# MOL2 file generated by ConQuest
# Please check atom types

@<TRIPOS>MOLECULE
CEWLOI
    46    48     1
SMALL
NO_CHARGES
****
Generated from CSD

@<TRIPOS>ATOM
      1 N1         4.9050    1.2620    3.2203 N.pl3     1 RES1    0.0000
      2 H1         5.0947    1.3652    4.0529 H         1 RES1    0.0000
      3 N2         3.4542    3.1272    4.8176 N.pl3     1 RES1    0.0000
      4 N3         3.7528    2.0233    1.3895 N.pl3     1 RES1    0.0000
      5 H2         4.1710    1.4330    0.9262 H         1 RES1    0.0000
      6 O1         4.2988    2.3958    5.4637 O.2       1 RES1    0.0000
      7 O2         2.7172    3.9247    5.4934 O.2       1 RES1    0.0000
      8 O3         0.2341    1.1935    2.4050 O.2       1 RES1    0.0000
      9 O4         4.0298    4.8602    1.4743 O.3       1 RES1    0.0000
     10 O5         1.8581    5.0400    0.6397 O.3       1 RES1    0.0000
     11 C1         7.5789   -0.3089    3.9583 C.ar      1 RES1    0.0000
     12 H3         8.0045    0.4338    3.5936 H         1 RES1    0.0000
     13 C2         8.2144   -1.0507    4.9551 C.ar      1 RES1    0.0000
     14 H4         9.0608   -0.8016    5.2491 H         1 RES1    0.0000
     15 C3         7.5985   -2.1394    5.5002 C.ar      1 RES1    0.0000
     16 H5         8.0212   -2.6216    6.1741 H         1 RES1    0.0000
     17 C4         6.3808   -2.5184    5.0637 C.ar      1 RES1    0.0000
     18 H6         5.9661   -3.2667    5.4271 H         1 RES1    0.0000
     19 C5         5.7489   -1.7797    4.0668 C.ar      1 RES1    0.0000
     20 H7         4.9112   -2.0450    3.7653 H         1 RES1    0.0000
     21 C6         6.3433   -0.6612    3.5154 C.ar      1 RES1    0.0000
     22 C7         5.5921    0.1710    2.5135 C.3       1 RES1    0.0000
     23 H8         6.2076    0.5371    1.8599 H         1 RES1    0.0000
     24 H9         4.9451   -0.3798    2.0467 H         1 RES1    0.0000
     25 C8         4.0222    2.1015    2.7003 C.2       1 RES1    0.0000
     26 C9         3.3126    3.0772    3.4750 C.2       1 RES1    0.0000
     27 C10        2.7668    4.2546    1.3855 C.3       1 RES1    0.0000
     28 C11        2.7837    2.8869    0.6953 C.3       1 RES1    0.0000
     29 H10        3.0912    3.0127   -0.2259 H         1 RES1    0.0000
     30 C12        1.4064    2.2507    0.6524 C.3       1 RES1    0.0000
     31 H11        0.8321    2.7676    0.0644 H         1 RES1    0.0000
     32 H12        1.4766    1.3548    0.2890 H         1 RES1    0.0000
     33 C13        0.7957    2.1862    2.0012 C.2       1 RES1    0.0000
     34 C14        0.8957    3.4482    2.8631 C.3       1 RES1    0.0000
     35 H13        0.6485    3.2369    3.7766 H         1 RES1    0.0000
     36 H14        0.2768    4.1175    2.5312 H         1 RES1    0.0000
     37 C15        2.3345    4.0159    2.8353 C.3       1 RES1    0.0000
     38 H15        2.3497    4.8690    3.3173 H         1 RES1    0.0000
     39 C16        4.7320    5.0610    0.2385 C.3       1 RES1    0.0000
     40 H16        5.0067    4.2118   -0.1148 H         1 RES1    0.0000
     41 H17        5.5048    5.6077    0.3949 H         1 RES1    0.0000
     42 H18        4.1528    5.4972   -0.3912 H         1 RES1    0.0000
     43 C17        1.6874    6.3980    1.0978 C.3       1 RES1    0.0000
     44 H19        1.1671    6.4012    1.9041 H         1 RES1    0.0000
     45 H20        1.2366    6.9092    0.4227 H         1 RES1    0.0000
     46 H21        2.5483    6.7875    1.2706 H         1 RES1    0.0000
@<TRIPOS>BOND
     1    1    2 1
     2    3    6 2
     3    4    5 1
     4    7    3 2
     5    8   33 2
     6    9   27 1
     7   10   27 1
     8   11   12 1
     9   13   11 ar
    10   14   13 1
    11   15   13 ar
    12   16   15 1
    13   17   15 ar
    14   18   17 1
    15   19   17 ar
    16   20   19 1
    17   21   11 ar
    18   22    1 1
    19   23   22 1
    20   24   22 1
    21   25    1 1
    22   26    3 1
    23   27   28 1
    24   28    4 1
    25   29   28 1
    26   30   28 1
    27   31   30 1
    28   32   30 1
    29   33   30 1
    30   34   33 1
    31   35   34 1
    32   36   34 1
    33   37   26 1
    34   38   37 1
    35   39    9 1
    36   40   39 1
    37   41   39 1
    38   42   39 1
    39   43   10 1
    40   44   43 1
    41   45   43 1
    42   46   43 1
    43    4   25 1
    44   19   21 ar
    45   21   22 1
    46   25   26 2
    47   27   37 1
    48   34   37 1
@<TRIPOS>SUBSTRUCTURE
     1 RES1 1

@<TRIPOS>CRYSIN
  17.6700    8.0640   12.9260  90.0000 102.5300  90.0000  14 1

