# MOL2 file generated by ConQuest
# Please check atom types

@<TRIPOS>MOLECULE
CEXYIO
    27    28     1
SMALL
NO_CHARGES
****
Generated from CSD

@<TRIPOS>ATOM
      1 N1         1.1575    2.2611    4.8017 N.3       1 RES1    0.0000
      2 N2         1.9078    1.1904    4.4196 N.2       1 RES1    0.0000
      3 N3         1.4550   -0.9425    1.6381 N.3       1 RES1    0.0000
      4 O1         2.3528    0.0306    1.0554 O.3       1 RES1    0.0000
      5 C1        -0.0859    2.2146    4.2408 C.ar      1 RES1    0.0000
      6 C2        -0.1436    1.0385    3.4702 C.ar      1 RES1    0.0000
      7 C3         1.1460    0.4513    3.6252 C.2       1 RES1    0.0000
      8 C4        -1.3424    0.6784    2.8246 C.ar      1 RES1    0.0000
      9 H1        -1.3980   -0.0957    2.3124 H         1 RES1    0.0000
     10 C5        -1.1817    3.0837    4.3697 C.ar      1 RES1    0.0000
     11 H2        -1.1274    3.8732    4.8583 H         1 RES1    0.0000
     12 C6         1.6610   -0.8337    3.0687 C.3       1 RES1    0.0000
     13 H3         2.6092   -0.9039    3.2584 H         1 RES1    0.0000
     14 H4         1.2134   -1.5726    3.5104 H         1 RES1    0.0000
     15 C7        -2.4325    1.5109    2.9769 C.ar      1 RES1    0.0000
     16 H5        -3.2398    1.2837    2.5752 H         1 RES1    0.0000
     17 C8        -2.3430    2.7013    3.7315 C.ar      1 RES1    0.0000
     18 H6        -3.0931    3.2459    3.8004 H         1 RES1    0.0000
     19 C9         1.9089   -2.2537    1.1755 C.3       1 RES1    0.0000
     20 H7         1.9678   -2.2524    0.2172 H         1 RES1    0.0000
     21 H8         1.2832   -2.9260    1.4565 H         1 RES1    0.0000
     22 H9         2.7725   -2.4438    1.5499 H         1 RES1    0.0000
     23 C10        1.6670    0.6588   -0.0306 C.3       1 RES1    0.0000
     24 H10        1.3887   -0.0080   -0.6625 H         1 RES1    0.0000
     25 H11        2.2545    1.2830   -0.4616 H         1 RES1    0.0000
     26 H12        0.8962    1.1231    0.3041 H         1 RES1    0.0000
     27 H13        1.4078    2.8464    5.3156 H         1 RES1    0.0000
@<TRIPOS>BOND
     1    1    2 1
     2    2    7 2
     3    3    4 1
     4    4   23 1
     5    5    1 1
     6    6    5 ar
     7    7    6 1
     8    8    6 ar
     9    9    8 1
    10   10    5 ar
    11   11   10 1
    12   12    3 1
    13   13   12 1
    14   14   12 1
    15   15    8 ar
    16   16   15 1
    17   17   10 ar
    18   18   17 1
    19   19    3 1
    20   20   19 1
    21   21   19 1
    22   22   19 1
    23   23   24 1
    24   25   23 1
    25   26   23 1
    26   27    1 1
    27    7   12 1
    28   15   17 ar
@<TRIPOS>SUBSTRUCTURE
     1 RES1 1

@<TRIPOS>CRYSIN
   7.4495    6.1744   11.2283  90.0000 104.6870  90.0000   4 1

