# MOL2 file generated by ConQuest
# Please check atom types

@<TRIPOS>MOLECULE
CEYDUF
    33    32     1
SMALL
NO_CHARGES
****
Generated from CSD

@<TRIPOS>ATOM
      1 O1         3.1037    4.7355    0.4410 O.2       1 RES1    0.0000
      2 O2         4.1569    5.9290   -1.0151 O.2       1 RES1    0.0000
      3 O3         0.8894    8.2354    0.2611 O.2       1 RES1    0.0000
      4 O4         1.8191    7.3672   -1.4929 O.2       1 RES1    0.0000
      5 O5         0.2366    7.9126    3.3241 O.2       1 RES1    0.0000
      6 O6        -1.1691    6.5518    2.4142 O.2       1 RES1    0.0000
      7 O7         0.6331    5.3476    4.5610 O.2       1 RES1    0.0000
      8 O8         2.3316    4.4279    3.5522 O.2       1 RES1    0.0000
      9 O9         0.4236    5.3942    0.2028 O.2       1 RES1    0.0000
     10 O10        0.1394    3.9340    1.7755 O.2       1 RES1    0.0000
     11 O11        3.8193    9.3169    3.0922 O.2       1 RES1    0.0000
     12 O12        5.3905    7.9881    3.7588 O.2       1 RES1    0.0000
     13 O13        5.8948    9.8692   -0.0710 O.2       1 RES1    0.0000
     14 O14        6.5941    9.9894    1.9605 O.2       1 RES1    0.0000
     15 O15        5.4349    6.0391    1.6944 O.2       1 RES1    0.0000
     16 O16        7.1484    7.2344    1.1165 O.2       1 RES1    0.0000
     17 N1         3.4256    5.8000   -0.0634 N.pl3     1 RES1    0.0000
     18 N2         1.7354    7.5823   -0.3156 N.pl3     1 RES1    0.0000
     19 N3        -0.0736    6.9161    2.7070 N.pl3     1 RES1    0.0000
     20 N4         1.3686    5.1652    3.6169 N.pl3     1 RES1    0.0000
     21 N5         0.5122    4.9934    1.3332 N.pl3     1 RES1    0.0000
     22 N6         4.7394    8.5336    2.9123 N.pl3     1 RES1    0.0000
     23 N7         5.9539    9.5144    1.0620 N.pl3     1 RES1    0.0000
     24 N8         6.0016    7.0803    1.4067 N.pl3     1 RES1    0.0000
     25 C1         1.1053    5.9843    2.3458 C.3       1 RES1    0.0000
     26 C2         2.3777    6.7601    2.0137 C.3       1 RES1    0.0000
     27 C3         2.8673    7.0589    0.6172 C.3       1 RES1    0.0000
     28 C4         3.8935    8.2115    0.5196 C.3       1 RES1    0.0000
     29 C5         5.0827    8.2958    1.4612 C.3       1 RES1    0.0000
     30 H1         2.2683    7.5918    2.4636 H         1 RES1    0.0000
     31 H2         3.0679    6.3203    2.4104 H         1 RES1    0.0000
     32 H3         3.4534    9.0577    0.7642 H         1 RES1    0.0000
     33 H4         4.2489    8.1693   -0.3358 H         1 RES1    0.0000
@<TRIPOS>BOND
     1    1   17 2
     2    2   17 2
     3    3   18 2
     4    4   18 2
     5    5   19 2
     6    6   19 2
     7    7   20 2
     8    8   20 2
     9    9   21 2
    10   10   21 2
    11   11   22 2
    12   12   22 2
    13   13   23 2
    14   14   23 2
    15   15   24 2
    16   16   24 2
    17   17   27 1
    18   18   27 1
    19   19   25 1
    20   20   25 1
    21   21   25 1
    22   22   29 1
    23   23   29 1
    24   24   29 1
    25   25   26 1
    26   26   27 1
    27   27   28 1
    28   28   29 1
    29   30   26 1
    30   31   26 1
    31   32   28 1
    32   33   28 1
@<TRIPOS>SUBSTRUCTURE
     1 RES1 1

@<TRIPOS>CRYSIN
  18.5550    6.3675   12.6730  90.0000  90.0000  98.8700  14 4

