# MOL2 file generated by ConQuest
# Please check atom types

@<TRIPOS>MOLECULE
CHEXOX10
    20    20     1
SMALL
NO_CHARGES
****
Generated from CSD

@<TRIPOS>ATOM
      1 C1         0.5277    3.6851    1.9553 C.2       1 RES1    0.0000
      2 C2        -0.3649    3.7818    0.7568 C.3       1 RES1    0.0000
      3 C3        -1.5060    4.7743    1.0425 C.3       1 RES1    0.0000
      4 C4        -0.9969    6.0478    1.6520 C.2       1 RES1    0.0000
      5 C5         0.4899    6.1816    1.8361 C.3       1 RES1    0.0000
      6 C6         1.0512    4.9572    2.5487 C.3       1 RES1    0.0000
      7 H1         1.4996    1.8684    4.0785 H         1 RES1    0.0000
      8 H2        -3.5705    7.5663    2.0319 H         1 RES1    0.0000
      9 H3        -0.7784    2.8755    0.5153 H         1 RES1    0.0000
     10 H4         0.1928    4.1873   -0.0589 H         1 RES1    0.0000
     11 H5        -2.1494    4.3198    1.7080 H         1 RES1    0.0000
     12 H6        -1.9638    4.9824    0.2209 H         1 RES1    0.0000
     13 H7         0.7070    7.0893    2.3264 H         1 RES1    0.0000
     14 H8         0.9355    6.2147    0.8982 H         1 RES1    0.0000
     15 H9         0.7355    4.9691    3.5043 H         1 RES1    0.0000
     16 H10        2.0852    4.9161    2.5178 H         1 RES1    0.0000
     17 N1         0.7277    2.5389    2.4766 N.2       1 RES1    0.0000
     18 N2        -1.7438    7.0032    2.0511 N.2       1 RES1    0.0000
     19 O1         1.5546    2.6449    3.6118 O.3       1 RES1    0.0000
     20 O2        -3.1113    6.7395    1.8199 O.3       1 RES1    0.0000
@<TRIPOS>BOND
     1    1    2 1
     2    2    3 1
     3    3    4 1
     4    4    5 1
     5    5    6 1
     6    6    1 1
     7    7   19 1
     8    8   20 1
     9    9    2 1
    10   10    2 1
    11   11    3 1
    12   12    3 1
    13   13    5 1
    14   14    5 1
    15   15    6 1
    16   16    6 1
    17   17    1 2
    18   18    4 2
    19   19   17 1
    20   20   18 1
@<TRIPOS>SUBSTRUCTURE
     1 RES1 1

@<TRIPOS>CRYSIN
   7.1410   13.2510   14.7240  90.0000  90.0000  90.0000  61 1

