# MOL2 file generated by ConQuest
# Please check atom types

@<TRIPOS>MOLECULE
CIBBEU
    25    27     1
SMALL
NO_CHARGES
****
Generated from CSD

@<TRIPOS>ATOM
      1 C1         8.1741    0.4147    4.2050 C.3       1 RES1    0.0000
      2 C2         7.1164    1.4221    3.7066 C.3       1 RES1    0.0000
      3 C3         6.8372    2.5021    4.7612 C.3       1 RES1    0.0000
      4 C4         8.0826    3.3981    4.6535 C.3       1 RES1    0.0000
      5 C5         8.9340    2.6321    3.6322 C.3       1 RES1    0.0000
      6 C6         9.4679    1.3021    4.2339 C.3       1 RES1    0.0000
      7 C7        10.3997    0.6723    3.2170 C.2       1 RES1    0.0000
      8 C8         8.4326   -0.5687    3.0627 C.2       1 RES1    0.0000
      9 C9         7.8195   -0.3768    5.4672 C.3       1 RES1    0.0000
     10 C10       10.1971    1.4584    5.5860 C.3       1 RES1    0.0000
     11 N1         9.7259   -0.3559    2.6209 N.am      1 RES1    0.0000
     12 O1         7.6778   -1.3934    2.6132 O.2       1 RES1    0.0000
     13 O2        10.2464   -1.0383    1.5330 O.3       1 RES1    0.0000
     14 O3        11.5385    0.9602    2.9429 O.2       1 RES1    0.0000
     15 O4         7.9152    2.1470    2.7120 O.3       1 RES1    0.0000
     16 H1         6.1886    1.0600    3.3747 H         1 RES1    0.0000
     17 H2         5.9742    2.9555    4.5625 H         1 RES1    0.0000
     18 H3         7.6768    4.2476    4.3849 H         1 RES1    0.0000
     19 H4         9.8140    3.0793    3.3414 H         1 RES1    0.0000
     20 H5         8.5812   -0.8820    5.6504 H         1 RES1    0.0000
     21 H6         6.8804   -0.8665    5.3506 H         1 RES1    0.0000
     22 H7        11.0759    2.0194    5.6282 H         1 RES1    0.0000
     23 H8         9.5813    1.7872    6.2609 H         1 RES1    0.0000
     24 H9        10.5155    0.6112    5.8391 H         1 RES1    0.0000
     25 H10       10.8458   -1.5783    1.7761 H         1 RES1    0.0000
@<TRIPOS>BOND
     1    1    2 1
     2    2    3 1
     3    3    4 1
     4    4    5 1
     5    5    6 1
     6    6    1 1
     7    7    6 1
     8    8    1 1
     9    9    1 1
    10   10    6 1
    11   11    7 1
    12   12    8 2
    13   13   11 1
    14   14    7 2
    15   15    2 1
    16   16    2 1
    17   17    3 1
    18   18    4 1
    19   19    5 1
    20   20    9 1
    21   21    9 1
    22   22   10 1
    23   23   10 1
    24   24   10 1
    25   25   13 1
    26    5   15 1
    27    8   11 1
@<TRIPOS>SUBSTRUCTURE
     1 RES1 1

@<TRIPOS>CRYSIN
  11.6570    7.7370   11.1010  90.0000  90.2200  90.0000  14 1

