# MOL2 file generated by ConQuest
# Please check atom types

@<TRIPOS>MOLECULE
CIBBIY
    18    20     1
SMALL
NO_CHARGES
****
Generated from CSD

@<TRIPOS>ATOM
      1 C1         0.7058    5.5827   12.9083 C.3       1 RES1    0.0000
      2 C2         1.7648    4.4676   12.6587 C.3       1 RES1    0.0000
      3 C3         2.8204    4.6450   13.7256 C.2       1 RES1    0.0000
      4 C4         2.2811    4.2579   14.8549 C.2       1 RES1    0.0000
      5 C5         0.8710    3.8071   14.5237 C.3       1 RES1    0.0000
      6 C6         0.0713    5.1288   14.2397 C.3       1 RES1    0.0000
      7 C7        -1.3819    4.8123   13.9192 C.2       1 RES1    0.0000
      8 C8        -0.4201    5.5042   11.8844 C.2       1 RES1    0.0000
      9 N1        -1.5369    5.0707   12.5705 N.am      1 RES1    0.0000
     10 O1        -2.2399    4.4189   14.6549 O.2       1 RES1    0.0000
     11 O2        -2.7265    4.7958   11.9166 O.3       1 RES1    0.0000
     12 O3        -0.3852    5.7555   10.7164 O.2       1 RES1    0.0000
     13 O4         1.0333    3.3250   13.1685 O.3       1 RES1    0.0000
     14 H1         1.0640    6.5023   12.8416 H         1 RES1    0.0000
     15 H2         2.0476    4.3427   11.7015 H         1 RES1    0.0000
     16 H3         2.4781    4.3270   15.7454 H         1 RES1    0.0000
     17 H4         0.3299    3.1726   15.1432 H         1 RES1    0.0000
     18 H5         0.1394    5.8348   15.0356 H         1 RES1    0.0000
@<TRIPOS>BOND
     1    1    2 1
     2    2    3 1
     3    3    4 2
     4    4    5 1
     5    5    6 1
     6    6    1 1
     7    7    6 1
     8    8    1 1
     9    9    7 1
    10   10    7 2
    11   11    9 1
    12   12    8 2
    13   13    2 1
    14   14    1 1
    15   15    2 1
    16   16    4 1
    17   17    5 1
    18   18    6 1
    19    5   13 1
    20    8    9 1
@<TRIPOS>SUBSTRUCTURE
     1 RES1 1

@<TRIPOS>CRYSIN
   8.8790    7.8530   21.5320  90.0000  92.5800  90.0000  15 1

