# MOL2 file generated by ConQuest
# Please check atom types

@<TRIPOS>MOLECULE
CIBPUY
    31    33     1
SMALL
NO_CHARGES
****
Generated from CSD

@<TRIPOS>ATOM
      1 C1         1.9571    6.3153    4.2914 C.ar      1 RES1    0.0000
      2 C2         2.1485    5.9555    5.6146 C.ar      1 RES1    0.0000
      3 H1         2.9695    5.4851    5.8882 H         1 RES1    0.0000
      4 C3         1.1707    6.2413    6.5453 C.ar      1 RES1    0.0000
      5 H2         1.3514    6.0176    7.4352 H         1 RES1    0.0000
      6 C4         0.0058    6.8466    6.1635 C.ar      1 RES1    0.0000
      7 H3        -0.6622    7.0294    6.7698 H         1 RES1    0.0000
      8 C5        -0.2109    7.1643    4.8304 C.ar      1 RES1    0.0000
      9 H4        -1.0637    7.5974    4.5409 H         1 RES1    0.0000
     10 C6         0.7744    6.9103    3.8814 C.ar      1 RES1    0.0000
     11 C7         0.5512    7.2447    2.4501 C.2       1 RES1    0.0000
     12 C8        -0.5815    6.6280    1.7274 C.ar      1 RES1    0.0000
     13 C9        -1.2647    7.3116    0.7252 C.ar      1 RES1    0.0000
     14 H5        -1.0259    8.2187    0.5406 H         1 RES1    0.0000
     15 C10       -2.2668    6.6886    0.0100 C.ar      1 RES1    0.0000
     16 H6        -2.7391    7.1359   -0.6903 H         1 RES1    0.0000
     17 C11       -2.6045    5.3697    0.2769 C.ar      1 RES1    0.0000
     18 H7        -3.3418    4.9525   -0.2162 H         1 RES1    0.0000
     19 C12       -1.9372    4.6880    1.2741 C.ar      1 RES1    0.0000
     20 H8        -2.1772    3.7632    1.4554 H         1 RES1    0.0000
     21 C13       -0.9433    5.3058    2.0068 C.ar      1 RES1    0.0000
     22 H9        -0.4817    4.8283    2.6946 H         1 RES1    0.0000
     23 N1         1.3161    8.0009    1.7457 N.2       1 RES1    0.0000
     24 O1         2.3318    8.6241    2.5557 O.3       1 RES1    0.0000
     25 C14        3.6024    8.0448    2.2206 C.3       1 RES1    0.0000
     26 H10        3.5253    7.6507    1.3057 H         1 RES1    0.0000
     27 H11        4.2614    8.7690    2.2289 H         1 RES1    0.0000
     28 C15        3.9744    6.9939    3.2202 C.3       1 RES1    0.0000
     29 H12        4.8044    6.5146    2.9275 H         1 RES1    0.0000
     30 H13        4.1520    7.4022    4.1334 H         1 RES1    0.0000
     31 O2         2.9396    5.9966    3.3566 O.3       1 RES1    0.0000
@<TRIPOS>BOND
     1    1    2 ar
     2    2    3 1
     3    4    2 ar
     4    5    4 1
     5    6    4 ar
     6    7    6 1
     7    8    6 ar
     8    9    8 1
     9   10    1 ar
    10   11   10 1
    11   12   11 1
    12   13   12 ar
    13   14   13 1
    14   15   13 ar
    15   16   15 1
    16   17   15 ar
    17   18   17 1
    18   19   17 ar
    19   20   19 1
    20   21   12 ar
    21   22   21 1
    22   23   11 2
    23   24   23 1
    24   25   24 1
    25   26   25 1
    26   27   25 1
    27   28   25 1
    28   29   28 1
    29   30   28 1
    30   31    1 1
    31    8   10 ar
    32   19   21 ar
    33   28   31 1
@<TRIPOS>SUBSTRUCTURE
     1 RES1 1

@<TRIPOS>CRYSIN
   8.2830   17.7510    8.3930  90.0000  97.7300  90.0000  14 1

