# MOL2 file generated by ConQuest
# Please check atom types

@<TRIPOS>MOLECULE
CIBREK
    25    25     1
SMALL
NO_CHARGES
****
Generated from CSD

@<TRIPOS>ATOM
      1 C1         0.4555    2.8593    4.0214 C.2       1 RES1    0.0000
      2 C2        -0.8671    2.5405    3.5396 C.2       1 RES1    0.0000
      3 C3        -1.3713    3.3901    2.6146 C.2       1 RES1    0.0000
      4 C4        -0.6158    4.5936    2.1199 C.3       1 RES1    0.0000
      5 C5         0.8419    4.1980    1.9015 C.3       1 RES1    0.0000
      6 C6         1.5472    3.3801    3.0514 C.3       1 RES1    0.0000
      7 C7        -1.7153    1.4155    4.1563 C.3       1 RES1    0.0000
      8 C8        -0.8969    0.1719    4.3683 C.3       1 RES1    0.0000
      9 C9        -2.8950    1.0866    3.2698 C.3       1 RES1    0.0000
     10 C10       -2.2588    1.8879    5.5118 C.3       1 RES1    0.0000
     11 C11       -1.2237    5.1929    0.8929 C.3       1 RES1    0.0000
     12 C12        2.3656    2.1583    2.5054 C.3       1 RES1    0.0000
     13 C13        1.5347    1.1935    1.7281 C.3       1 RES1    0.0000
     14 C14        3.5280    2.6841    1.5867 C.3       1 RES1    0.0000
     15 C15        3.0238    1.3955    3.6745 C.3       1 RES1    0.0000
     16 N1        -0.7336    5.6686    3.2762 N.pl3     1 RES1    0.0000
     17 N2         1.6493    5.4032    1.4839 N.pl3     1 RES1    0.0000
     18 O1         0.7681    2.7191    5.1970 O.2       1 RES1    0.0000
     19 O2         2.4206    4.2231    3.8030 O.3       1 RES1    0.0000
     20 O3        -0.1806    5.3848    4.3234 O.2       1 RES1    0.0000
     21 O4        -1.3964    6.6451    3.0707 O.2       1 RES1    0.0000
     22 O5         2.2934    5.3264    0.4433 O.2       1 RES1    0.0000
     23 O6         1.5315    6.4164    2.1392 O.2       1 RES1    0.0000
     24 H1         2.8589    4.6070    3.7902 H         1 RES1    0.0000
     25 H2        -2.3562    3.5220    2.4411 H         1 RES1    0.0000
@<TRIPOS>BOND
     1    1    2 1
     2    2    3 2
     3    3    4 1
     4    4    5 1
     5    5    6 1
     6    6    1 1
     7    7    2 1
     8    8    7 1
     9    9    7 1
    10   10    7 1
    11   11    4 1
    12   12    6 1
    13   13   12 1
    14   14   12 1
    15   15   12 1
    16   16    4 1
    17   17    5 1
    18   18    1 2
    19   19    6 1
    20   20   16 2
    21   21   16 2
    22   22   17 2
    23   23   17 2
    24   24   19 1
    25   25    3 1
@<TRIPOS>SUBSTRUCTURE
     1 RES1 1

@<TRIPOS>CRYSIN
  15.7080   16.6920    6.4240  90.0000  90.0000  90.0000  19 1

