# MOL2 file generated by ConQuest
# Please check atom types

@<TRIPOS>MOLECULE
CICMAD01
    30    31     1
SMALL
NO_CHARGES
****
Generated from CSD

@<TRIPOS>ATOM
      1 C1         4.9627    2.9875    0.6087 C.ar      1 RES1    0.0000
      2 H1         4.7881    3.0520    1.5203 H         1 RES1    0.0000
      3 C2         6.0643    2.2658    0.1626 C.ar      1 RES1    0.0000
      4 N1         8.0118    1.0273    0.7555 N.2       1 RES1    0.0000
      5 C3         6.9453    1.6441    1.1297 C.2       1 RES1    0.0000
      6 H2         6.7378    1.6912    2.0343 H         1 RES1    0.0000
      7 C4         4.1306    3.6061   -0.2971 C.ar      1 RES1    0.0000
      8 O1         7.3465    1.5240   -1.7308 O.3       1 RES1    0.0000
      9 H3         7.7822    1.1998   -1.1162 H         1 RES1    0.0000
     10 N2         8.8086    0.4951    1.7029 N.pl3     1 RES1    0.0000
     11 H4         8.6213    0.6254    2.5322 H         1 RES1    0.0000
     12 C5         9.9275   -0.2598    1.3684 C.ar      1 RES1    0.0000
     13 N3         2.9907    4.3609    0.1982 N.pl3     1 RES1    0.0000
     14 C6         6.2966    2.1976   -1.2287 C.ar      1 RES1    0.0000
     15 C7         5.4338    2.8287   -2.1185 C.ar      1 RES1    0.0000
     16 H5         5.5940    2.7693   -3.0324 H         1 RES1    0.0000
     17 O2         2.2870    4.9537   -0.5861 O.2       1 RES1    0.0000
     18 C8         4.3479    3.5393   -1.6656 C.ar      1 RES1    0.0000
     19 H6         3.7737    3.9642   -2.2613 H         1 RES1    0.0000
     20 C9        10.5980   -0.9094    2.3979 C.ar      1 RES1    0.0000
     21 H7        10.2995   -0.8250    3.2744 H         1 RES1    0.0000
     22 C10       10.3990   -0.3691    0.0718 C.ar      1 RES1    0.0000
     23 H8         9.9717    0.0805   -0.6206 H         1 RES1    0.0000
     24 O3         2.7894    4.3603    1.4022 O.2       1 RES1    0.0000
     25 C11       11.7041   -1.6772    2.1178 C.ar      1 RES1    0.0000
     26 H9        12.1506   -2.1095    2.8101 H         1 RES1    0.0000
     27 C12       11.5063   -1.1480   -0.1880 C.ar      1 RES1    0.0000
     28 H10       11.8175   -1.2244   -1.0606 H         1 RES1    0.0000
     29 C13       12.1584   -1.8144    0.8262 C.ar      1 RES1    0.0000
     30 H11       12.8952   -2.3502    0.6403 H         1 RES1    0.0000
@<TRIPOS>BOND
     1    1    2 1
     2    3    1 ar
     3    4    5 2
     4    5    3 1
     5    6    5 1
     6    7    1 ar
     7    8    9 1
     8   10    4 1
     9   11   10 1
    10   12   10 1
    11   13    7 1
    12   14    3 ar
    13   15   14 ar
    14   16   15 1
    15   17   13 2
    16   18    7 ar
    17   19   18 1
    18   20   12 ar
    19   21   20 1
    20   22   12 ar
    21   23   22 1
    22   24   13 2
    23   25   20 ar
    24   26   25 1
    25   27   22 ar
    26   28   27 1
    27   29   25 ar
    28   30   29 1
    29    8   14 1
    30   15   18 ar
    31   27   29 ar
@<TRIPOS>SUBSTRUCTURE
     1 RES1 1

@<TRIPOS>CRYSIN
  12.8167    8.2176   12.5848  90.0000 113.0680  90.0000  14 1

