# MOL2 file generated by ConQuest
# Please check atom types

@<TRIPOS>MOLECULE
CICQUC
    50    51     1
SMALL
NO_CHARGES
****
Generated from CSD

@<TRIPOS>ATOM
      1 O1         6.0598    2.4198    1.9796 O.3       1 RES1    0.0000
      2 O2         5.8748    4.6177    2.3498 O.2       1 RES1    0.0000
      3 O3        11.0454    4.7659    7.3502 O.2       1 RES1    0.0000
      4 O4         9.9545    3.0841    4.0906 O.2       1 RES1    0.0000
      5 O5         9.1766    3.6826    2.1934 O.2       1 RES1    0.0000
      6 N1         9.3150    3.8372    3.3926 N.pl3     1 RES1    0.0000
      7 C1         5.3135    1.2616    0.0297 C.ar      1 RES1    0.0000
      8 C2         6.2395    0.2459    0.1147 C.ar      1 RES1    0.0000
      9 H1         7.0595    0.3965    0.5708 H         1 RES1    0.0000
     10 C3         5.9919   -0.9895   -0.4558 C.ar      1 RES1    0.0000
     11 H2         6.6392   -1.6813   -0.3875 H         1 RES1    0.0000
     12 C4         4.8266   -1.2144   -1.1131 C.ar      1 RES1    0.0000
     13 H3         4.6604   -2.0630   -1.5064 H         1 RES1    0.0000
     14 C5         3.9025   -0.2326   -1.2093 C.ar      1 RES1    0.0000
     15 H4         3.0890   -0.3932   -1.6722 H         1 RES1    0.0000
     16 C6         4.1373    1.0229   -0.6284 C.ar      1 RES1    0.0000
     17 H5         3.4803    1.7060   -0.6912 H         1 RES1    0.0000
     18 C7         5.5774    2.6108    0.6266 C.3       1 RES1    0.0000
     19 H6         6.2544    3.0945    0.0890 H         1 RES1    0.0000
     20 H7         4.7451    3.1471    0.6354 H         1 RES1    0.0000
     21 C8         6.1677    3.5197    2.7206 C.2       1 RES1    0.0000
     22 C9         6.6896    3.1943    4.1016 C.3       1 RES1    0.0000
     23 H8         7.3375    2.4496    4.0321 H         1 RES1    0.0000
     24 H9         5.9362    2.8888    4.6657 H         1 RES1    0.0000
     25 C10        7.3653    4.3740    4.7783 C.3       1 RES1    0.0000
     26 H10        6.6825    5.0998    4.8665 H         1 RES1    0.0000
     27 C11        7.8917    4.0735    6.1758 C.3       1 RES1    0.0000
     28 H11        8.3644    3.2030    6.1966 H         1 RES1    0.0000
     29 H12        7.1539    4.0552    6.8354 H         1 RES1    0.0000
     30 C12        8.8604    5.2326    6.4661 C.3       1 RES1    0.0000
     31 H13        8.3327    5.9931    6.8424 H         1 RES1    0.0000
     32 C13        9.4456    5.6765    5.1040 C.3       1 RES1    0.0000
     33 H14       10.3703    5.3022    5.0375 H         1 RES1    0.0000
     34 C14        8.5817    4.9730    4.0431 C.3       1 RES1    0.0000
     35 H15        8.2791    5.6296    3.3531 H         1 RES1    0.0000
     36 C15        9.8763    4.8167    7.4842 C.2       1 RES1    0.0000
     37 H16        9.5387    4.5652    8.3366 H         1 RES1    0.0000
     38 C16        9.5478    7.2117    4.8991 C.3       1 RES1    0.0000
     39 C17       10.3671    7.8130    6.0447 C.3       1 RES1    0.0000
     40 H17       10.4363    8.7832    5.9225 H         1 RES1    0.0000
     41 H18       11.2646    7.4194    6.0464 H         1 RES1    0.0000
     42 H19        9.9254    7.6218    6.8983 H         1 RES1    0.0000
     43 C18       10.2888    7.4815    3.5916 C.3       1 RES1    0.0000
     44 H20       10.3600    8.4493    3.4509 H         1 RES1    0.0000
     45 H21        9.7961    7.0773    2.8469 H         1 RES1    0.0000
     46 H22       11.1870    7.0921    3.6394 H         1 RES1    0.0000
     47 C19        8.1698    7.8727    4.8578 C.3       1 RES1    0.0000
     48 H23        8.2745    8.8375    4.7268 H         1 RES1    0.0000
     49 H24        7.7022    7.7057    5.7026 H         1 RES1    0.0000
     50 H25        7.6499    7.4968    4.1159 H         1 RES1    0.0000
@<TRIPOS>BOND
     1    1   18 1
     2    2   21 2
     3    3   36 2
     4    4    6 2
     5    5    6 2
     6    6   34 1
     7    7    8 ar
     8    8    9 1
     9   10    8 ar
    10   11   10 1
    11   12   10 ar
    12   13   12 1
    13   14   12 ar
    14   15   14 1
    15   16    7 ar
    16   17   16 1
    17   18    7 1
    18   19   18 1
    19   20   18 1
    20   21    1 1
    21   22   21 1
    22   23   22 1
    23   24   22 1
    24   25   22 1
    25   26   25 1
    26   27   25 1
    27   28   27 1
    28   29   27 1
    29   30   27 1
    30   31   30 1
    31   32   30 1
    32   33   32 1
    33   34   25 1
    34   35   34 1
    35   36   30 1
    36   37   36 1
    37   38   32 1
    38   39   38 1
    39   40   39 1
    40   41   39 1
    41   42   39 1
    42   43   38 1
    43   44   43 1
    44   45   43 1
    45   46   43 1
    46   47   38 1
    47   48   47 1
    48   49   47 1
    49   50   47 1
    50   14   16 ar
    51   32   34 1
@<TRIPOS>SUBSTRUCTURE
     1 RES1 1

@<TRIPOS>CRYSIN
   6.4665   16.4511   17.4551  90.0000  90.0000  90.0000  19 1

