# MOL2 file generated by ConQuest
# Please check atom types

@<TRIPOS>MOLECULE
CICZET
    52    54     1
SMALL
NO_CHARGES
****
Generated from CSD

@<TRIPOS>ATOM
      1 N1         1.6476    2.8517    3.5796 N.2       1 RES1    0.0000
      2 C1         1.4722    4.1112    3.4918 C.2       1 RES1    0.0000
      3 C2         2.1048    4.7864    2.3015 C.3       1 RES1    0.0000
      4 C3         2.3958    3.5738    1.4140 C.3       1 RES1    0.0000
      5 C4         2.4642    2.4150    2.4351 C.3       1 RES1    0.0000
      6 C5         0.7269    4.8615    4.5320 C.ar      1 RES1    0.0000
      7 C6         0.4837    6.2224    4.3794 C.ar      1 RES1    0.0000
      8 C7        -0.1849    6.9278    5.3927 C.ar      1 RES1    0.0000
      9 C8        -0.5830    6.2677    6.5182 C.ar      1 RES1    0.0000
     10 C9        -0.3655    4.9191    6.6723 C.ar      1 RES1    0.0000
     11 C10        0.2934    4.2083    5.6733 C.ar      1 RES1    0.0000
     12 C11        3.5565    3.7348    0.4521 C.ar      1 RES1    0.0000
     13 C12        3.4741    3.4909   -0.9105 C.ar      1 RES1    0.0000
     14 N2         2.1760    3.1602   -1.5641 N.pl3     1 RES1    0.0000
     15 O1         2.1875    2.3044   -2.4351 O.2       1 RES1    0.0000
     16 O2         1.1819    3.8071   -1.2393 O.2       1 RES1    0.0000
     17 C13        4.5489    3.5944   -1.7878 C.ar      1 RES1    0.0000
     18 C14        5.7653    3.9643   -1.2788 C.ar      1 RES1    0.0000
     19 C15        5.9052    4.2273    0.0672 C.ar      1 RES1    0.0000
     20 C16        4.8125    4.1295    0.9231 C.ar      1 RES1    0.0000
     21 C17        1.9280    1.1146    1.8431 C.2       1 RES1    0.0000
     22 O3         1.7314    0.9485    0.6742 O.2       1 RES1    0.0000
     23 O4         1.7195    0.2074    2.7971 O.3       1 RES1    0.0000
     24 C18        1.2071   -1.1019    2.3687 C.3       1 RES1    0.0000
     25 C19        2.3519   -1.9945    2.0921 C.3       1 RES1    0.0000
     26 C20        3.8921    2.1478    2.9749 C.2       1 RES1    0.0000
     27 O5         4.3510    2.6683    3.9463 O.2       1 RES1    0.0000
     28 O6         4.5325    1.3011    2.1727 O.3       1 RES1    0.0000
     29 C21        5.9616    1.0784    2.4889 C.3       1 RES1    0.0000
     30 C22        6.4533    0.0370    1.6677 C.3       1 RES1    0.0000
     31 H1         1.4237    5.4755    1.8250 H         1 RES1    0.0000
     32 H2         3.0111    5.3070    2.5742 H         1 RES1    0.0000
     33 H3         1.6344    3.3902    0.6702 H         1 RES1    0.0000
     34 H4         0.8077    6.7347    3.4855 H         1 RES1    0.0000
     35 H5        -0.3814    7.9833    5.2828 H         1 RES1    0.0000
     36 H6        -1.0802    6.8158    7.3046 H         1 RES1    0.0000
     37 H7        -0.7028    4.4141    7.5654 H         1 RES1    0.0000
     38 H8         0.4641    3.1478    5.7871 H         1 RES1    0.0000
     39 H9         4.4266    3.3907   -2.8414 H         1 RES1    0.0000
     40 H10        6.6192    4.0485   -1.9340 H         1 RES1    0.0000
     41 H11        6.8700    4.5108    0.4616 H         1 RES1    0.0000
     42 H12        4.9364    4.3639    1.9696 H         1 RES1    0.0000
     43 H13        0.5979   -1.5262    3.1528 H         1 RES1    0.0000
     44 H14        0.6124   -0.9852    1.4748 H         1 RES1    0.0000
     45 H15        1.9866   -2.9612    1.7767 H         1 RES1    0.0000
     46 H16        2.9453   -2.1083    2.9876 H         1 RES1    0.0000
     47 H17        2.9602   -1.5669    1.3088 H         1 RES1    0.0000
     48 H18        6.0643    0.7956    3.5266 H         1 RES1    0.0000
     49 H19        6.5193    1.9844    2.3047 H         1 RES1    0.0000
     50 H20        7.4961   -0.1373    1.8890 H         1 RES1    0.0000
     51 H21        6.3464    0.3201    0.6323 H         1 RES1    0.0000
     52 H22        5.8925   -0.8658    1.8495 H         1 RES1    0.0000
@<TRIPOS>BOND
     1    1    2 2
     2    2    3 1
     3    3    4 1
     4    4    5 1
     5    5    1 1
     6    6    2 1
     7    7    6 ar
     8    8    7 ar
     9    9    8 ar
    10   10    9 ar
    11   11    6 ar
    12   12    4 1
    13   13   12 ar
    14   14   13 1
    15   15   14 2
    16   16   14 2
    17   17   13 ar
    18   18   17 ar
    19   19   18 ar
    20   20   12 ar
    21   21    5 1
    22   22   21 2
    23   23   21 1
    24   24   23 1
    25   25   24 1
    26   26    5 1
    27   27   26 2
    28   28   26 1
    29   29   28 1
    30   30   29 1
    31   31    3 1
    32   32    3 1
    33   33    4 1
    34   34    7 1
    35   35    8 1
    36   36    9 1
    37   37   10 1
    38   38   11 1
    39   39   17 1
    40   40   18 1
    41   41   19 1
    42   42   20 1
    43   43   24 1
    44   44   24 1
    45   45   25 1
    46   46   25 1
    47   47   25 1
    48   48   29 1
    49   49   29 1
    50   50   30 1
    51   51   30 1
    52   52   30 1
    53   10   11 ar
    54   19   20 ar
@<TRIPOS>SUBSTRUCTURE
     1 RES1 1

@<TRIPOS>CRYSIN
  11.2010   11.7920    9.1370 112.1300 112.4600  81.7500   2 1

