# MOL2 file generated by ConQuest
# Please check atom types

@<TRIPOS>MOLECULE
CIDVAO
    43    45     1
SMALL
NO_CHARGES
****
Generated from CSD

@<TRIPOS>ATOM
      1 O1       -17.5261   -1.4562   -1.3101 O.3       1 RES1    0.0000
      2 H1       -16.9045   -1.7479   -0.6388 H         1 RES1    0.0000
      3 O2       -16.0722   -3.3758   -4.0457 O.3       1 RES1    0.0000
      4 O3       -17.8017   -0.7638   -4.0406 O.3       1 RES1    0.0000
      5 O4       -20.6670   -2.3769   -2.5432 O.3       1 RES1    0.0000
      6 N1       -17.0590   -4.2218   -0.7891 N.pl3     1 RES1    0.0000
      7 O5       -17.5681   -4.3965    0.3048 O.2       1 RES1    0.0000
      8 C1       -17.9329   -3.7788   -1.9200 C.3       1 RES1    0.0000
      9 H2       -17.8558   -4.3274   -2.4887 H         1 RES1    0.0000
     10 H3       -18.7847   -3.6618   -1.4214 H         1 RES1    0.0000
     11 C2       -17.5247   -2.3849   -2.3850 C.3       1 RES1    0.0000
     12 C3       -16.2073   -2.2884   -3.1573 C.3       1 RES1    0.0000
     13 H4       -15.4782   -2.2211   -2.5357 H         1 RES1    0.0000
     14 O6       -15.8765   -4.3725   -0.9951 O.2       1 RES1    0.0000
     15 C4       -18.5103   -1.8483   -3.4326 C.3       1 RES1    0.0000
     16 H5       -18.7323   -2.5504   -4.1113 H         1 RES1    0.0000
     17 O7       -21.9329   -1.0372   -3.8238 O.3       1 RES1    0.0000
     18 C5       -19.8215   -1.2912   -2.9096 C.3       1 RES1    0.0000
     19 H6       -19.5663   -0.5531   -2.1347 H         1 RES1    0.0000
     20 C6       -15.6705   -2.8861   -5.3262 C.3       1 RES1    0.0000
     21 C7       -16.4255   -1.0840   -4.0825 C.3       1 RES1    0.0000
     22 H7       -15.8341   -0.2860   -3.8225 H         1 RES1    0.0000
     23 O8       -16.0624   -1.5389   -5.3583 O.3       1 RES1    0.0000
     24 C8       -22.0021   -1.9157   -2.7199 C.3       1 RES1    0.0000
     25 C9       -20.6387   -0.5588   -3.9819 C.3       1 RES1    0.0000
     26 H8       -20.3361   -0.7700   -4.8677 H         1 RES1    0.0000
     27 H9       -20.6279    0.3933   -3.8578 H         1 RES1    0.0000
     28 C10      -22.8876   -3.0830   -3.0844 C.3       1 RES1    0.0000
     29 H10      -23.7877   -2.7719   -3.2059 H         1 RES1    0.0000
     30 H11      -22.8669   -3.7320   -2.3777 H         1 RES1    0.0000
     31 H12      -22.5756   -3.4854   -3.8983 H         1 RES1    0.0000
     32 C11      -14.1841   -2.9603   -5.4738 C.3       1 RES1    0.0000
     33 H13      -13.9240   -2.6275   -6.3374 H         1 RES1    0.0000
     34 H14      -13.8919   -3.8707   -5.3824 H         1 RES1    0.0000
     35 H15      -13.7770   -2.4237   -4.7893 H         1 RES1    0.0000
     36 C12      -22.4883   -1.1787   -1.5024 C.3       1 RES1    0.0000
     37 H16      -23.3902   -0.8802   -1.6356 H         1 RES1    0.0000
     38 H17      -21.9213   -0.4224   -1.3286 H         1 RES1    0.0000
     39 H18      -22.4573   -1.7792   -0.7538 H         1 RES1    0.0000
     40 C13      -16.3734   -3.6715   -6.3739 C.3       1 RES1    0.0000
     41 H19      -16.1154   -3.3564   -7.2427 H         1 RES1    0.0000
     42 H20      -17.3238   -3.5739   -6.2668 H         1 RES1    0.0000
     43 H21      -16.1350   -4.5968   -6.2851 H         1 RES1    0.0000
@<TRIPOS>BOND
     1    1    2 1
     2    3   12 1
     3    4   15 1
     4    5   18 1
     5    6    7 2
     6    8    6 1
     7    9    8 1
     8   10    8 1
     9   11    1 1
    10   12   11 1
    11   13   12 1
    12   14    6 2
    13   15   11 1
    14   16   15 1
    15   17   24 1
    16   18   15 1
    17   19   18 1
    18   20    3 1
    19   21    4 1
    20   22   21 1
    21   23   20 1
    22   24    5 1
    23   25   17 1
    24   26   25 1
    25   27   25 1
    26   28   24 1
    27   29   28 1
    28   30   28 1
    29   31   28 1
    30   32   20 1
    31   33   32 1
    32   34   32 1
    33   35   32 1
    34   36   24 1
    35   37   36 1
    36   38   36 1
    37   39   36 1
    38   40   20 1
    39   41   40 1
    40   42   40 1
    41   43   40 1
    42    8   11 1
    43   12   21 1
    44   18   25 1
    45   21   23 1
@<TRIPOS>SUBSTRUCTURE
     1 RES1 1

@<TRIPOS>CRYSIN
  21.0971    5.7082   14.0890  90.0000 111.9897  90.0000   5 1

