# MOL2 file generated by ConQuest
# Please check atom types

@<TRIPOS>MOLECULE
CIFFIG
    45    47     1
SMALL
NO_CHARGES
****
Generated from CSD

@<TRIPOS>ATOM
      1 N1         4.2645    3.5243   23.7810 N.3       1 RES1    0.0000
      2 C1         3.3644    2.9632   24.6148 C.2       1 RES1    0.0000
      3 N2         2.6483    3.5732   25.5083 N.2       1 RES1    0.0000
      4 C2         2.9186    4.9197   25.5156 C.2       1 RES1    0.0000
      5 C3         3.7746    5.6117   24.7231 C.2       1 RES1    0.0000
      6 C4         4.5461    4.8968   23.7426 C.2       1 RES1    0.0000
      7 N3         5.3810    5.4611   22.9414 N.2       1 RES1    0.0000
      8 O1         6.0009    4.4722   22.1140 O.3       1 RES1    0.0000
      9 C5         6.7926    5.1588   21.1712 C.3       1 RES1    0.0000
     10 N4         3.7689    6.9561   25.0535 N.2       1 RES1    0.0000
     11 C6         2.9054    7.0412   26.0410 C.2       1 RES1    0.0000
     12 N5         2.3700    5.8370   26.3872 N.pl3     1 RES1    0.0000
     13 C7         1.3234    5.5410   27.3782 C.3       1 RES1    0.0000
     14 O2         0.9686    6.7413   28.0314 O.3       1 RES1    0.0000
     15 C8         1.7998    4.5534   28.4510 C.3       1 RES1    0.0000
     16 O3         0.7204    3.7773   28.9138 O.3       1 RES1    0.0000
     17 C9         0.5397    2.5743   28.1851 C.3       1 RES1    0.0000
     18 C10        2.2639    5.5039   29.5664 C.3       1 RES1    0.0000
     19 O4         2.1302    5.0261   30.8840 O.3       1 RES1    0.0000
     20 C11        3.0842    4.0247   31.2008 C.3       1 RES1    0.0000
     21 C12        1.3760    6.7144   29.4020 C.3       1 RES1    0.0000
     22 C13        2.0799    7.9982   29.7623 C.3       1 RES1    0.0000
     23 O5         1.1460    9.0370   29.7721 O.3       1 RES1    0.0000
     24 C14        1.7064   10.2511   30.1552 C.3       1 RES1    0.0000
     25 H1         4.7071    3.0014   23.2027 H         1 RES1    0.0000
     26 H2         3.2147    2.0542   24.5358 H         1 RES1    0.0000
     27 H3         2.7032    7.8629   26.5672 H         1 RES1    0.0000
     28 H4         6.1854    5.6033   20.6951 H         1 RES1    0.0000
     29 H5         7.3070    4.5192   20.6634 H         1 RES1    0.0000
     30 H6         7.3774    5.9457   21.6156 H         1 RES1    0.0000
     31 H7         0.5632    5.2381   26.8846 H         1 RES1    0.0000
     32 H8         2.4544    4.0056   28.1543 H         1 RES1    0.0000
     33 H9        -0.1736    2.0998   28.6939 H         1 RES1    0.0000
     34 H10        1.3140    2.0770   28.2495 H         1 RES1    0.0000
     35 H11        0.4458    2.6932   27.3290 H         1 RES1    0.0000
     36 H12        3.1819    5.6946   29.4556 H         1 RES1    0.0000
     37 H13        3.0645    3.2524   30.4714 H         1 RES1    0.0000
     38 H14        2.9237    3.8116   32.0902 H         1 RES1    0.0000
     39 H15        4.0078    4.3137   31.1379 H         1 RES1    0.0000
     40 H16        0.6195    6.6075   29.8683 H         1 RES1    0.0000
     41 H17        2.3700    7.8743   30.6301 H         1 RES1    0.0000
     42 H18        2.8768    8.3764   29.2017 H         1 RES1    0.0000
     43 H19        2.1353   10.2023   31.1697 H         1 RES1    0.0000
     44 H20        1.1545   10.8985   30.4396 H         1 RES1    0.0000
     45 H21        2.5154   10.5447   29.5509 H         1 RES1    0.0000
@<TRIPOS>BOND
     1    1    2 1
     2    2    3 2
     3    3    4 1
     4    4    5 2
     5    5    6 1
     6    6    1 1
     7    7    6 2
     8    8    7 1
     9    9    8 1
    10   10    5 1
    11   11   10 2
    12   12    4 1
    13   13   12 1
    14   14   13 1
    15   15   13 1
    16   16   15 1
    17   17   16 1
    18   18   15 1
    19   19   18 1
    20   20   19 1
    21   21   14 1
    22   22   21 1
    23   23   22 1
    24   24   23 1
    25   25    1 1
    26   26    2 1
    27   27   11 1
    28   28    9 1
    29   29    9 1
    30   30    9 1
    31   31   13 1
    32   32   15 1
    33   33   17 1
    34   34   17 1
    35   35   17 1
    36   36   18 1
    37   37   20 1
    38   38   20 1
    39   39   20 1
    40   40   21 1
    41   41   22 1
    42   42   22 1
    43   43   24 1
    44   44   24 1
    45   45   24 1
    46   11   12 1
    47   18   21 1
@<TRIPOS>SUBSTRUCTURE
     1 RES1 1

@<TRIPOS>CRYSIN
   4.6930   11.4120   31.7410  90.0000  90.0000  90.0000  19 1

