# MOL2 file generated by ConQuest
# Please check atom types

@<TRIPOS>MOLECULE
CIFQIR
    35    35     1
SMALL
NO_CHARGES
****
Generated from CSD

@<TRIPOS>ATOM
      1 N1         0.6649    7.7303    3.3682 N.am      1 RES1    0.0000
      2 H1        -0.1326    7.4077    3.3741 H         1 RES1    0.0000
      3 N2        -0.7121   10.1839    3.3147 N.3       1 RES1    0.0000
      4 H2        -0.9013    9.5164    2.7801 H         1 RES1    0.0000
      5 N3         3.0352    9.2409    7.3542 N.pl3     1 RES1    0.0000
      6 O1         2.7500    7.7058    2.4760 O.2       1 RES1    0.0000
      7 O2         3.1840   10.0861    8.2417 O.2       1 RES1    0.0000
      8 O3         3.7298    8.2268    7.2948 O.2       1 RES1    0.0000
      9 C1         0.8957    8.7262    4.3745 C.ar      1 RES1    0.0000
     10 C2         0.1281    9.9188    4.3496 C.ar      1 RES1    0.0000
     11 C3         0.3236   10.8308    5.4046 C.ar      1 RES1    0.0000
     12 H3        -0.1869   11.6071    5.4343 H         1 RES1    0.0000
     13 C4         1.2513   10.6003    6.3919 C.ar      1 RES1    0.0000
     14 H4         1.3574   11.2070    7.0881 H         1 RES1    0.0000
     15 C5         2.0235    9.4593    6.3396 C.ar      1 RES1    0.0000
     16 C6         1.8308    8.5082    5.3499 C.ar      1 RES1    0.0000
     17 H5         2.3340    7.7267    5.3487 H         1 RES1    0.0000
     18 C7         1.6223    7.2454    2.5484 C.2       1 RES1    0.0000
     19 C8         1.1984    6.0619    1.7156 C.3       1 RES1    0.0000
     20 H6         0.2401    6.0114    1.6978 H         1 RES1    0.0000
     21 H7         1.5567    5.2570    2.0993 H         1 RES1    0.0000
     22 H8         1.5299    6.1643    0.8210 H         1 RES1    0.0000
     23 C9        -1.5364   11.3729    3.2518 C.3       1 RES1    0.0000
     24 H9        -0.9912   12.1514    3.4454 H         1 RES1    0.0000
     25 H10       -2.2303   11.3187    3.9278 H         1 RES1    0.0000
     26 C10       -2.1756   11.5335    1.8890 C.3       1 RES1    0.0000
     27 H11       -2.7314   10.7606    1.7049 H         1 RES1    0.0000
     28 H12       -1.4801   11.5682    1.2142 H         1 RES1    0.0000
     29 C11       -3.0229   12.7894    1.7940 C.3       1 RES1    0.0000
     30 H13       -3.7567   12.7167    2.4249 H         1 RES1    0.0000
     31 H14       -2.4818   13.5500    2.0589 H         1 RES1    0.0000
     32 C12       -3.5913   13.0559    0.4194 C.3       1 RES1    0.0000
     33 H15       -4.0633   12.2770    0.1105 H         1 RES1    0.0000
     34 H16       -2.8770   13.2594   -0.1889 H         1 RES1    0.0000
     35 H17       -4.1971   13.7988    0.4610 H         1 RES1    0.0000
@<TRIPOS>BOND
     1    1    2 1
     2    3    4 1
     3    5    7 2
     4    6   18 2
     5    8    5 2
     6    9    1 1
     7   10    3 1
     8   11   10 ar
     9   12   11 1
    10   13   11 ar
    11   14   13 1
    12   15    5 1
    13   16    9 ar
    14   17   16 1
    15   18    1 1
    16   19   18 1
    17   20   19 1
    18   21   19 1
    19   22   19 1
    20   23    3 1
    21   24   23 1
    22   25   23 1
    23   26   23 1
    24   27   26 1
    25   28   26 1
    26   29   26 1
    27   30   29 1
    28   31   29 1
    29   32   29 1
    30   33   32 1
    31   34   32 1
    32   35   32 1
    33    9   10 ar
    34   13   15 ar
    35   15   16 ar
@<TRIPOS>SUBSTRUCTURE
     1 RES1 1

@<TRIPOS>CRYSIN
   4.8740   11.0020   12.3350  76.1400  82.2700  86.9900   2 1

