# MOL2 file generated by ConQuest
# Please check atom types

@<TRIPOS>MOLECULE
CIFROY02
    10    10     1
SMALL
NO_CHARGES
****
Generated from CSD

@<TRIPOS>ATOM
      1 N1         3.2441    0.1717    0.3815 N.pl3     1 RES1    0.0000
      2 H1         4.0076    0.5514    0.2691 H         1 RES1    0.0000
      3 O1        -0.6944   -1.1623    1.5703 O.2       1 RES1    0.0000
      4 N2         1.5639   -1.1747    0.0408 N.2       1 RES1    0.0000
      5 O2         0.1485    0.3496    2.8809 O.2       1 RES1    0.0000
      6 N3         0.2018   -0.3995    1.9124 N.pl3     1 RES1    0.0000
      7 C1         2.7618   -0.7991   -0.3860 C.2       1 RES1    0.0000
      8 H2         3.2024   -1.1637   -1.1198 H         1 RES1    0.0000
      9 N4         2.3678    0.4803    1.3637 N.2       1 RES1    0.0000
     10 C2         1.3997   -0.3646    1.1055 C.2       1 RES1    0.0000
@<TRIPOS>BOND
     1    1    2 1
     2    3    6 2
     3    4    7 2
     4    5    6 2
     5    6   10 1
     6    7    1 1
     7    8    7 1
     8    9    1 1
     9   10    4 1
    10    9   10 2
@<TRIPOS>SUBSTRUCTURE
     1 RES1 1

@<TRIPOS>CRYSIN
   6.8413    6.8413   18.8196  90.0000  90.0000  90.0000  92 1

