# MOL2 file generated by ConQuest
# Please check atom types

@<TRIPOS>MOLECULE
CIGLUB
    48    51     1
SMALL
NO_CHARGES
****
Generated from CSD

@<TRIPOS>ATOM
      1 C1        15.8754   12.1487    3.8771 C.ar      1 RES1    0.0000
      2 H1        15.6451   12.1687    4.7779 H         1 RES1    0.0000
      3 C2        17.2040   12.0551    3.5166 C.ar      1 RES1    0.0000
      4 H2        17.8598   12.0052    4.1740 H         1 RES1    0.0000
      5 C3        17.5583   12.0364    2.2030 C.ar      1 RES1    0.0000
      6 H3        18.4544   11.9677    1.9619 H         1 RES1    0.0000
      7 C4        16.5937   12.1188    1.2408 C.ar      1 RES1    0.0000
      8 H4        16.8361   12.1213    0.3435 H         1 RES1    0.0000
      9 C5        15.2708   12.1974    1.5888 C.ar      1 RES1    0.0000
     10 H5        14.6226   12.2411    0.9235 H         1 RES1    0.0000
     11 C6        14.8847   12.2123    2.9207 C.ar      1 RES1    0.0000
     12 C7        13.4736   12.2525    3.3472 C.2       1 RES1    0.0000
     13 H6        13.3189   12.4471    4.2434 H         1 RES1    0.0000
     14 C8        12.4141   12.0451    2.6068 C.2       1 RES1    0.0000
     15 H7        12.5394   11.8354    1.7094 H         1 RES1    0.0000
     16 C9        11.0291   12.1266    3.1185 C.3       1 RES1    0.0000
     17 H8        11.0421   12.5032    4.0239 H         1 RES1    0.0000
     18 C10       10.1923   10.8157    3.1231 C.3       1 RES1    0.0000
     19 C11        8.7088   11.3308    3.1220 C.3       1 RES1    0.0000
     20 H9         8.3468   11.2326    4.0284 H         1 RES1    0.0000
     21 C12        8.5651   13.7140    3.7805 C.2       1 RES1    0.0000
     22 C13        9.4773   14.8723    3.5428 C.3       1 RES1    0.0000
     23 H10        8.9738   15.6637    3.2982 H         1 RES1    0.0000
     24 H11       10.0031   15.0658    4.3344 H         1 RES1    0.0000
     25 C14       10.3594   14.4279    2.4111 C.3       1 RES1    0.0000
     26 H12       10.1151   14.8885    1.5934 H         1 RES1    0.0000
     27 H13       11.2879   14.6252    2.6102 H         1 RES1    0.0000
     28 C15        7.7784   10.6559    2.1689 C.ar      1 RES1    0.0000
     29 C16        7.6707   11.0403    0.8564 C.ar      1 RES1    0.0000
     30 H14        8.1929   11.7393    0.5357 H         1 RES1    0.0000
     31 C17        6.7838   10.3913    0.0023 C.ar      1 RES1    0.0000
     32 H15        6.7178   10.6446   -0.8905 H         1 RES1    0.0000
     33 C18        6.0025    9.3627    0.5016 C.ar      1 RES1    0.0000
     34 H16        5.4059    8.9209   -0.0580 H         1 RES1    0.0000
     35 C19        6.1020    9.0008    1.7993 C.ar      1 RES1    0.0000
     36 H17        5.5634    8.3180    2.1291 H         1 RES1    0.0000
     37 C20        6.9824    9.6249    2.6284 C.ar      1 RES1    0.0000
     38 H18        7.0497    9.3553    3.5155 H         1 RES1    0.0000
     39 C21       10.5423    9.8720    2.0006 C.3       1 RES1    0.0000
     40 H19       11.4596    9.5999    2.0859 H         1 RES1    0.0000
     41 H20       10.4178   10.3164    1.1589 H         1 RES1    0.0000
     42 H21        9.9751    9.0994    2.0415 H         1 RES1    0.0000
     43 N1        10.4547   10.1291    4.4629 N.pl3     1 RES1    0.0000
     44 N2        10.1642   12.9623    2.2578 N.3       1 RES1    0.0000
     45 N3         8.8653   12.7554    2.8423 N.am      1 RES1    0.0000
     46 O1        11.0337    9.0832    4.4731 O.2       1 RES1    0.0000
     47 O2        10.1086   10.6921    5.4831 O.2       1 RES1    0.0000
     48 O3         7.6885   13.5855    4.6039 O.2       1 RES1    0.0000
@<TRIPOS>BOND
     1    1    2 1
     2    3    1 ar
     3    4    3 1
     4    5    3 ar
     5    6    5 1
     6    7    5 ar
     7    8    7 1
     8    9    7 ar
     9   10    9 1
    10   11    1 ar
    11   12   11 1
    12   13   12 1
    13   14   12 2
    14   15   14 1
    15   16   14 1
    16   17   16 1
    17   18   16 1
    18   19   18 1
    19   20   19 1
    20   21   22 1
    21   22   23 1
    22   24   22 1
    23   25   22 1
    24   26   25 1
    25   27   25 1
    26   28   19 1
    27   29   28 ar
    28   30   29 1
    29   31   29 ar
    30   32   31 1
    31   33   31 ar
    32   34   33 1
    33   35   33 ar
    34   36   35 1
    35   37   28 ar
    36   38   37 1
    37   39   18 1
    38   40   39 1
    39   41   39 1
    40   42   39 1
    41   43   18 1
    42   44   16 1
    43   45   19 1
    44   46   43 2
    45   47   43 2
    46   48   21 2
    47    9   11 ar
    48   21   45 1
    49   25   44 1
    50   35   37 ar
    51   44   45 1
@<TRIPOS>SUBSTRUCTURE
     1 RES1 1

@<TRIPOS>CRYSIN
  13.6160   12.4820   12.4820  90.0000 114.3320  90.0000  14 1

