# MOL2 file generated by ConQuest
# Please check atom types

@<TRIPOS>MOLECULE
CIGMAI
    45    48     1
SMALL
NO_CHARGES
****
Generated from CSD

@<TRIPOS>ATOM
      1 C1         5.4658    8.7760   -0.7095 C.ar      1 RES1    0.0000
      2 H1         6.3034    8.5682   -0.3626 H         1 RES1    0.0000
      3 C2         5.3751    9.4809   -1.8861 C.ar      1 RES1    0.0000
      4 H2         6.1516    9.7524   -2.3212 H         1 RES1    0.0000
      5 C3         4.1528    9.7874   -2.4267 C.ar      1 RES1    0.0000
      6 H3         4.0934   10.2566   -3.2276 H         1 RES1    0.0000
      7 C4         3.0226    9.3910   -1.7667 C.ar      1 RES1    0.0000
      8 H4         2.1880    9.5967   -2.1210 H         1 RES1    0.0000
      9 C5         3.1057    8.6911   -0.5842 C.ar      1 RES1    0.0000
     10 H5         2.3263    8.4295   -0.1500 H         1 RES1    0.0000
     11 C6         4.3344    8.3736   -0.0371 C.ar      1 RES1    0.0000
     12 C7         4.4268    7.6875    1.3044 C.3       1 RES1    0.0000
     13 H6         4.3120    8.3581    2.0097 H         1 RES1    0.0000
     14 C8         3.4055    6.5588    1.5236 C.3       1 RES1    0.0000
     15 H7         3.0186    6.3144    0.6576 H         1 RES1    0.0000
     16 C9         4.1799    5.3460    2.0773 C.3       1 RES1    0.0000
     17 H8         3.7786    4.5290    1.7156 H         1 RES1    0.0000
     18 C10        4.2574    5.2204    3.5572 C.2       1 RES1    0.0000
     19 H9         4.4843    5.9629    4.0681 H         1 RES1    0.0000
     20 C11        4.0109    4.0742    4.1571 C.2       1 RES1    0.0000
     21 H10        3.7016    3.3892    3.6091 H         1 RES1    0.0000
     22 C12        4.1584    3.7359    5.5727 C.ar      1 RES1    0.0000
     23 C13        4.6470    4.6268    6.5137 C.ar      1 RES1    0.0000
     24 H11        4.8675    5.4931    6.2575 H         1 RES1    0.0000
     25 C14        4.8083    4.2407    7.8264 C.ar      1 RES1    0.0000
     26 H12        5.1394    4.8490    8.4468 H         1 RES1    0.0000
     27 C15        4.4855    2.9692    8.2268 C.ar      1 RES1    0.0000
     28 H13        4.6110    2.7108    9.1118 H         1 RES1    0.0000
     29 C16        3.9776    2.0843    7.3155 C.ar      1 RES1    0.0000
     30 H14        3.7387    1.2266    7.5825 H         1 RES1    0.0000
     31 C17        3.8219    2.4663    6.0045 C.ar      1 RES1    0.0000
     32 H15        3.4809    1.8544    5.3923 H         1 RES1    0.0000
     33 C18        6.6935    5.0050    2.0097 C.3       1 RES1    0.0000
     34 H16        7.3268    4.7305    1.3266 H         1 RES1    0.0000
     35 H17        6.4609    4.2289    2.5437 H         1 RES1    0.0000
     36 C19        7.2982    6.0808    2.8824 C.3       1 RES1    0.0000
     37 H18        7.1210    5.9049    3.8201 H         1 RES1    0.0000
     38 H19        8.2567    6.1359    2.7489 H         1 RES1    0.0000
     39 C20        6.6195    7.3447    2.4366 C.2       1 RES1    0.0000
     40 N1         5.4850    5.5792    1.3868 N.3       1 RES1    0.0000
     41 N2         5.6839    6.9939    1.5203 N.am      1 RES1    0.0000
     42 N3         2.3001    6.9291    2.4506 N.pl3     1 RES1    0.0000
     43 O1         6.8357    8.4926    2.7703 O.2       1 RES1    0.0000
     44 O2         2.5187    7.7660    3.3051 O.2       1 RES1    0.0000
     45 O3         1.2887    6.2916    2.3871 O.2       1 RES1    0.0000
@<TRIPOS>BOND
     1    1    2 1
     2    3    1 ar
     3    4    3 1
     4    5    3 ar
     5    6    5 1
     6    7    5 ar
     7    8    7 1
     8    9    7 ar
     9   10    9 1
    10   11    1 ar
    11   12   11 1
    12   13   12 1
    13   14   12 1
    14   15   14 1
    15   16   14 1
    16   17   16 1
    17   18   16 1
    18   19   18 1
    19   20   18 2
    20   21   20 1
    21   22   20 1
    22   23   22 ar
    23   24   23 1
    24   25   23 ar
    25   26   25 1
    26   27   25 ar
    27   28   27 1
    28   29   27 ar
    29   30   29 1
    30   31   22 ar
    31   32   31 1
    32   33   34 1
    33   35   33 1
    34   36   33 1
    35   37   36 1
    36   38   36 1
    37   39   36 1
    38   40   16 1
    39   41   12 1
    40   42   14 1
    41   43   39 2
    42   44   42 2
    43   45   42 2
    44    9   11 ar
    45   29   31 ar
    46   33   40 1
    47   39   41 1
    48   40   41 1
@<TRIPOS>SUBSTRUCTURE
     1 RES1 1

@<TRIPOS>CRYSIN
  10.1100   10.5430   10.5740 111.8840 116.2900  98.5330   2 1

