# MOL2 file generated by ConQuest
# Please check atom types

@<TRIPOS>MOLECULE
CIGSUH
    37    39     1
SMALL
NO_CHARGES
****
Generated from CSD

@<TRIPOS>ATOM
      1 O1         3.2477   -6.6629    7.1922 O.2       1 RES1    0.0000
      2 O2         1.5294   -7.8936    6.7504 O.2       1 RES1    0.0000
      3 N1        -3.1646    2.3496    4.3840 N.ar      1 RES1    0.0000
      4 N2         2.0968   -6.8098    6.7801 N.pl3     1 RES1    0.0000
      5 C1        -0.3346    4.2771    5.7948 C.ar      1 RES1    0.0000
      6 H1         0.3190    3.6212    5.8772 H         1 RES1    0.0000
      7 C2        -0.0409    5.5946    6.1527 C.ar      1 RES1    0.0000
      8 H2         0.8066    5.8097    6.4697 H         1 RES1    0.0000
      9 C3        -1.0031    6.5830    6.0368 C.ar      1 RES1    0.0000
     10 H3        -0.8102    7.4581    6.2834 H         1 RES1    0.0000
     11 C4        -2.2613    6.2509    5.5483 C.ar      1 RES1    0.0000
     12 H4        -2.9133    6.9097    5.4688 H         1 RES1    0.0000
     13 C5        -2.5520    4.9455    5.1770 C.ar      1 RES1    0.0000
     14 H5        -3.3914    4.7426    4.8332 H         1 RES1    0.0000
     15 C6        -1.6022    3.9369    5.3136 C.ar      1 RES1    0.0000
     16 C7        -1.9681    2.5292    4.9824 C.ar      1 RES1    0.0000
     17 C8        -1.1391    1.4521    5.3032 C.ar      1 RES1    0.0000
     18 H6        -0.3231    1.6089    5.7213 H         1 RES1    0.0000
     19 C9        -1.5190    0.1494    5.0047 C.ar      1 RES1    0.0000
     20 C10       -2.7644   -0.0287    4.3929 C.ar      1 RES1    0.0000
     21 H7        -3.0734   -0.8810    4.1827 H         1 RES1    0.0000
     22 C11       -3.5211    1.0845    4.1085 C.ar      1 RES1    0.0000
     23 H8        -4.3428    0.9502    3.6949 H         1 RES1    0.0000
     24 C12       -0.6314   -0.9706    5.3634 C.2       1 RES1    0.0000
     25 H9         0.1276   -0.7740    5.8638 H         1 RES1    0.0000
     26 C13       -0.8336   -2.2509    5.0240 C.2       1 RES1    0.0000
     27 H10       -1.5646   -2.4273    4.4768 H         1 RES1    0.0000
     28 C14       -0.0212   -3.3989    5.4287 C.ar      1 RES1    0.0000
     29 C15       -0.5319   -4.6842    5.2297 C.ar      1 RES1    0.0000
     30 H11       -1.3450   -4.7887    4.7909 H         1 RES1    0.0000
     31 C16        0.1541   -5.8099    5.6760 C.ar      1 RES1    0.0000
     32 H12       -0.2026   -6.6611    5.5624 H         1 RES1    0.0000
     33 C17        1.3756   -5.6317    6.2915 C.ar      1 RES1    0.0000
     34 C18        1.9413   -4.3728    6.4668 C.ar      1 RES1    0.0000
     35 H13        2.7766   -4.2815    6.8655 H         1 RES1    0.0000
     36 C19        1.2415   -3.2607    6.0376 C.ar      1 RES1    0.0000
     37 H14        1.6075   -2.4141    6.1519 H         1 RES1    0.0000
@<TRIPOS>BOND
     1    1    4 2
     2    2    4 2
     3    3   16 ar
     4    4   33 1
     5    5    6 1
     6    7    5 ar
     7    8    7 1
     8    9    7 ar
     9   10    9 1
    10   11    9 ar
    11   12   11 1
    12   13   11 ar
    13   14   13 1
    14   15    5 ar
    15   16   15 1
    16   17   16 ar
    17   18   17 1
    18   19   17 ar
    19   20   19 ar
    20   21   20 1
    21   22    3 ar
    22   23   22 1
    23   24   19 1
    24   25   24 1
    25   26   24 2
    26   27   26 1
    27   28   26 1
    28   29   28 ar
    29   30   29 1
    30   31   29 ar
    31   32   31 1
    32   33   31 ar
    33   34   33 ar
    34   35   34 1
    35   36   28 ar
    36   37   36 1
    37   13   15 ar
    38   20   22 ar
    39   34   36 ar
@<TRIPOS>SUBSTRUCTURE
     1 RES1 1

@<TRIPOS>CRYSIN
   5.8871   16.4674    7.4517  90.0000  94.8160  90.0000   4 1

