# MOL2 file generated by ConQuest
# Please check atom types

@<TRIPOS>MOLECULE
CIGWIA
    29    31     1
SMALL
NO_CHARGES
****
Generated from CSD

@<TRIPOS>ATOM
      1 O1         3.7463    6.4945    2.4915 O.3       1 RES1    0.0000
      2 N1         5.8681    5.4099   -0.4167 N.pl3     1 RES1    0.0000
      3 O2         5.4308    9.5866   -0.2058 O.2       1 RES1    0.0000
      4 C1         4.0900    6.4853    1.0935 C.3       1 RES1    0.0000
      5 O3         5.2478    5.8288   -1.3754 O.2       1 RES1    0.0000
      6 N2         4.2474    7.8427    0.6124 N.am      1 RES1    0.0000
      7 H1         3.5602    8.3107    0.4769 H         1 RES1    0.0000
      8 O4         6.8747    4.7296   -0.5037 O.2       1 RES1    0.0000
      9 C2         5.4184    8.4732    0.3648 C.2       1 RES1    0.0000
     10 N3         6.5453    7.8423    0.7195 N.am      1 RES1    0.0000
     11 H2         7.2339    8.2580    0.6191 H         1 RES1    0.0000
     12 C3         6.4819    6.6614    1.5863 C.3       1 RES1    0.0000
     13 H3         7.3654    6.1926    1.5930 H         1 RES1    0.0000
     14 C4         6.0613    7.0078    3.0195 C.ar      1 RES1    0.0000
     15 C5         6.9837    7.4270    3.9682 C.ar      1 RES1    0.0000
     16 H4         7.9043    7.4943    3.7457 H         1 RES1    0.0000
     17 C6         6.5491    7.7483    5.2449 C.ar      1 RES1    0.0000
     18 H5         7.1793    8.0361    5.8950 H         1 RES1    0.0000
     19 C7         5.2312    7.6561    5.5846 C.ar      1 RES1    0.0000
     20 H6         4.9550    7.8724    6.4673 H         1 RES1    0.0000
     21 C8         4.2922    7.2494    4.6501 C.ar      1 RES1    0.0000
     22 H7         3.3742    7.1820    4.8860 H         1 RES1    0.0000
     23 C9         4.7152    6.9405    3.3575 C.ar      1 RES1    0.0000
     24 C10        5.4150    5.7532    0.9898 C.3       1 RES1    0.0000
     25 H8         5.3649    4.9134    1.5286 H         1 RES1    0.0000
     26 C11        2.8922    5.8175    0.4459 C.3       1 RES1    0.0000
     27 H9         2.1175    6.4146    0.4986 H         1 RES1    0.0000
     28 H10        2.6925    4.9793    0.9136 H         1 RES1    0.0000
     29 H11        3.0936    5.6264   -0.4945 H         1 RES1    0.0000
@<TRIPOS>BOND
     1    1    4 1
     2    2    5 2
     3    3    9 2
     4    4    6 1
     5    6    7 1
     6    8    2 2
     7    9    6 1
     8   10    9 1
     9   11   10 1
    10   12   10 1
    11   13   12 1
    12   14   12 1
    13   15   14 ar
    14   16   15 1
    15   17   15 ar
    16   18   17 1
    17   19   17 ar
    18   20   19 1
    19   21   19 ar
    20   22   21 1
    21   23    1 1
    22   24    2 1
    23   25   24 1
    24   26    4 1
    25   27   26 1
    26   28   26 1
    27   29   26 1
    28    4   24 1
    29   12   24 1
    30   14   23 ar
    31   21   23 ar
@<TRIPOS>SUBSTRUCTURE
     1 RES1 1

@<TRIPOS>CRYSIN
   7.2169   18.8110    9.0227  90.0000 111.9870  90.0000 231 1

