# MOL2 file generated by ConQuest
# Please check atom types

@<TRIPOS>MOLECULE
CIJBAA
    40    43     1
SMALL
NO_CHARGES
****
Generated from CSD

@<TRIPOS>ATOM
      1 N1         7.6835    2.1463    2.6147 N.ar      1 RES1    0.0000
      2 N2         5.8920    2.2399    1.0257 N.ar      1 RES1    0.0000
      3 C1         6.9319    2.6833    3.5615 C.ar      1 RES1    0.0000
      4 C2         5.6020    3.1315    3.2726 C.ar      1 RES1    0.0000
      5 C3         5.1179    2.8554    1.9717 C.ar      1 RES1    0.0000
      6 C4         7.1273    1.9885    1.3800 C.ar      1 RES1    0.0000
      7 N3         9.8189    3.0252    0.9917 N.pl3     1 RES1    0.0000
      8 C5         7.5678    2.7817    4.8984 C.ar      1 RES1    0.0000
      9 C6         4.7929    3.8683    4.1631 C.ar      1 RES1    0.0000
     10 H1         5.1034    4.0976    5.0103 H         1 RES1    0.0000
     11 C7         8.0334    1.4531    0.3324 C.ar      1 RES1    0.0000
     12 C8         3.5464    4.2372    3.7547 C.ar      1 RES1    0.0000
     13 C9         7.6253    0.4529   -0.5426 C.ar      1 RES1    0.0000
     14 H2         6.7647    0.1071   -0.4692 H         1 RES1    0.0000
     15 O1         9.1046    4.0127    1.0941 O.2       1 RES1    0.0000
     16 C10        9.3366    1.9084    0.1754 C.ar      1 RES1    0.0000
     17 C11        8.9000    3.1695    4.9858 C.ar      1 RES1    0.0000
     18 H3         9.3655    3.4004    4.2150 H         1 RES1    0.0000
     19 C12        3.0364    3.9413    2.4914 C.ar      1 RES1    0.0000
     20 H4         2.1761    4.2039    2.2546 H         1 RES1    0.0000
     21 C13        3.8151    3.2647    1.6132 C.ar      1 RES1    0.0000
     22 H5         3.4875    3.0680    0.7655 H         1 RES1    0.0000
     23 C14        6.8927    2.4255    6.0652 C.ar      1 RES1    0.0000
     24 H6         5.9986    2.1725    6.0243 H         1 RES1    0.0000
     25 C15       10.1985    1.4206   -0.7786 C.ar      1 RES1    0.0000
     26 H7        11.0685    1.7442   -0.8410 H         1 RES1    0.0000
     27 O2         3.1927    5.4396    5.7006 O.2       1 RES1    0.0000
     28 N4         2.7002    5.0145    4.6733 N.pl3     1 RES1    0.0000
     29 C16        8.4666   -0.0381   -1.5150 C.ar      1 RES1    0.0000
     30 H8         8.1660   -0.7012   -2.0936 H         1 RES1    0.0000
     31 C17        9.5364    3.2156    6.2102 C.ar      1 RES1    0.0000
     32 H9        10.4185    3.5035    6.2649 H         1 RES1    0.0000
     33 O3        10.9163    2.9387    1.4834 O.2       1 RES1    0.0000
     34 C18        8.8625    2.8317    7.3560 C.ar      1 RES1    0.0000
     35 H10        9.2994    2.8356    8.1775 H         1 RES1    0.0000
     36 C19        7.5438    2.4454    7.2790 C.ar      1 RES1    0.0000
     37 H11        7.0895    2.1971    8.0523 H         1 RES1    0.0000
     38 C20        9.7508    0.4458   -1.6383 C.ar      1 RES1    0.0000
     39 H12       10.3115    0.1142   -2.3004 H         1 RES1    0.0000
     40 O4         1.5485    5.2080    4.3647 O.2       1 RES1    0.0000
@<TRIPOS>BOND
     1    1    3 ar
     2    2    5 ar
     3    3    4 ar
     4    4    5 ar
     5    5   21 ar
     6    6    1 ar
     7    7   15 2
     8    8    3 1
     9    9    4 ar
    10   10    9 1
    11   11    6 1
    12   12    9 ar
    13   13   11 ar
    14   14   13 1
    15   16    7 1
    16   17    8 ar
    17   18   17 1
    18   19   12 ar
    19   20   19 1
    20   21   19 ar
    21   22   21 1
    22   23    8 ar
    23   24   23 1
    24   25   16 ar
    25   26   25 1
    26   27   28 2
    27   28   12 1
    28   29   13 ar
    29   30   29 1
    30   31   17 ar
    31   32   31 1
    32   33    7 2
    33   34   31 ar
    34   35   34 1
    35   36   23 ar
    36   37   36 1
    37   38   25 ar
    38   39   38 1
    39   40   28 2
    40    2    6 ar
    41   11   16 ar
    42   29   38 ar
    43   34   36 ar
@<TRIPOS>SUBSTRUCTURE
     1 RES1 1

@<TRIPOS>CRYSIN
  10.7619    7.9318   19.9964  90.0000  96.1290  90.0000 231 1

