# MOL2 file generated by ConQuest
# Please check atom types

@<TRIPOS>MOLECULE
CIKBEE
    32    33     1
SMALL
NO_CHARGES
****
Generated from CSD

@<TRIPOS>ATOM
      1 C1         4.2678    3.9622    7.7971 C.ar      1 RES1    0.0000
      2 C2         3.5677    2.9900    7.0977 C.ar      1 RES1    0.0000
      3 C3         2.7522    2.1357    7.8196 C.ar      1 RES1    0.0000
      4 N1         2.0298    1.0928    7.0721 N.pl3     1 RES1    0.0000
      5 O1         2.2493    0.9708    5.8677 O.2       1 RES1    0.0000
      6 O2         1.2309    0.3930    7.6859 O.2       1 RES1    0.0000
      7 C4         2.5845    2.2120    9.1814 C.ar      1 RES1    0.0000
      8 C5         3.2894    3.1923    9.8546 C.ar      1 RES1    0.0000
      9 C6         4.1355    4.0568    9.1840 C.ar      1 RES1    0.0000
     10 N2         5.1240    4.8278    7.0858 N.am      1 RES1    0.0000
     11 N3         5.3180    4.5849    5.6871 N.2       1 RES1    0.0000
     12 C7         5.8064    5.9291    7.5330 C.2       1 RES1    0.0000
     13 O3         5.7694    6.3584    8.6584 O.2       1 RES1    0.0000
     14 C8         6.5414    6.4060    6.3157 C.2       1 RES1    0.0000
     15 C9         6.1280    5.4938    5.2657 C.2       1 RES1    0.0000
     16 C10        6.5221    5.4765    3.8231 C.3       1 RES1    0.0000
     17 C11        7.3781    7.4800    6.3203 C.2       1 RES1    0.0000
     18 C12        7.6413    8.2691    7.5730 C.3       1 RES1    0.0000
     19 C13        8.0839    7.9681    5.0827 C.3       1 RES1    0.0000
     20 H1         3.6451    2.9137    6.1538 H         1 RES1    0.0000
     21 H2         2.0065    1.6150    9.6415 H         1 RES1    0.0000
     22 H3         3.1920    3.2727   10.7957 H         1 RES1    0.0000
     23 H4         4.6250    4.7127    9.6654 H         1 RES1    0.0000
     24 H5         6.0069    4.7890    3.3512 H         1 RES1    0.0000
     25 H6         7.4782    5.2761    3.7487 H         1 RES1    0.0000
     26 H7         6.3385    6.3521    3.4241 H         1 RES1    0.0000
     27 H8         6.8165    8.7166    7.8566 H         1 RES1    0.0000
     28 H9         8.3332    8.9404    7.3981 H         1 RES1    0.0000
     29 H10        7.9449    7.6640    8.2819 H         1 RES1    0.0000
     30 H11        8.2120    7.2206    4.4630 H         1 RES1    0.0000
     31 H12        8.9561    8.3414    5.3296 H         1 RES1    0.0000
     32 H13        7.5429    8.6617    4.6498 H         1 RES1    0.0000
@<TRIPOS>BOND
     1    1    2 ar
     2    2    3 ar
     3    3    4 1
     4    4    5 2
     5    6    4 2
     6    7    3 ar
     7    8    7 ar
     8    9    1 ar
     9   10    1 1
    10   11   10 1
    11   12   10 1
    12   13   12 2
    13   14   12 1
    14   15   11 2
    15   16   15 1
    16   17   14 2
    17   18   17 1
    18   19   17 1
    19   20    2 1
    20   21    7 1
    21   22    8 1
    22   23    9 1
    23   24   16 1
    24   25   16 1
    25   26   16 1
    26   27   18 1
    27   28   18 1
    28   29   18 1
    29   30   19 1
    30   31   19 1
    31   32   19 1
    32    8    9 ar
    33   14   15 1
@<TRIPOS>SUBSTRUCTURE
     1 RES1 1

@<TRIPOS>CRYSIN
   8.8910   10.1699   13.4731  90.0000 100.4150  90.0000  14 1

