# MOL2 file generated by ConQuest
# Please check atom types

@<TRIPOS>MOLECULE
CILSUL
    14    15     1
SMALL
NO_CHARGES
****
Generated from CSD

@<TRIPOS>ATOM
      1 C1        -0.1975   -0.5045   12.3847 C.3       1 RES1    0.0000
      2 C2         0.3371    0.7649   12.9657 C.3       1 RES1    0.0000
      3 C3         1.1375    1.5901   11.9627 C.3       1 RES1    0.0000
      4 C4         2.0061    1.7036    9.5635 C.3       1 RES1    0.0000
      5 C5         2.1077    0.9402    8.2485 C.3       1 RES1    0.0000
      6 C6         0.7554    0.4631    7.7691 C.3       1 RES1    0.0000
      7 C7        -0.0913    0.5007   10.0889 C.3       1 RES1    0.0000
      8 C8         1.2804    0.8912   10.6174 C.3       1 RES1    0.0000
      9 N1        -0.8320   -0.2273   11.0890 N.3       1 RES1    0.0000
     10 N2         0.0757   -0.2482    8.8455 N.pl3     1 RES1    0.0000
     11 N3        -2.1450   -0.3705   11.0260 N.2       1 RES1    0.0000
     12 N4        -0.1925   -1.5260    8.8496 N.2       1 RES1    0.0000
     13 O1        -2.6321    0.0057    9.9700 O.2       1 RES1    0.0000
     14 O2         0.0867   -2.1231    7.7968 O.2       1 RES1    0.0000
@<TRIPOS>BOND
     1    1    2 1
     2    2    3 1
     3    3    8 1
     4    4    5 1
     5    5    6 1
     6    6   10 1
     7    7    8 1
     8    8    4 1
     9    9    1 1
    10   10    7 1
    11   11    9 1
    12   12   10 1
    13   13   11 2
    14   14   12 2
    15    7    9 1
@<TRIPOS>SUBSTRUCTURE
     1 RES1 1

@<TRIPOS>CRYSIN
   7.4440    9.5460   13.8010  90.0000  97.3400  90.0000  14 1

