# MOL2 file generated by ConQuest
# Please check atom types

@<TRIPOS>MOLECULE
CIMKIS
    56    59     1
SMALL
NO_CHARGES
****
Generated from CSD

@<TRIPOS>ATOM
      1 N1         0.9577    3.5476    2.5040 N.2       1 RES1    0.0000
      2 N2         0.6808    3.7838    1.3415 N.2       1 RES1    0.0000
      3 N3        -2.4380   -0.1332   -1.3114 N.pl3     1 RES1    0.0000
      4 N4         0.9670    3.4972    5.2384 N.2       1 RES1    0.0000
      5 N5         1.2397    2.6496    6.0774 N.2       1 RES1    0.0000
      6 N6        -2.8872    0.8112    9.5019 N.pl3     1 RES1    0.0000
      7 O1        -2.6738    0.1332   -2.4982 O.2       1 RES1    0.0000
      8 O2        -2.8266   -1.0615   -0.6872 O.2       1 RES1    0.0000
      9 O3        -2.5391   -0.0383   10.3008 O.2       1 RES1    0.0000
     10 O4        -3.9397    1.3016    9.3745 O.2       1 RES1    0.0000
     11 C1         3.2507    3.0230    4.3279 C.3       1 RES1    0.0000
     12 C2         4.4592    3.6203    3.5319 C.3       1 RES1    0.0000
     13 C3         3.9652    4.1308    2.1890 C.3       1 RES1    0.0000
     14 C4         2.8864    5.1661    2.3451 C.3       1 RES1    0.0000
     15 C5         0.5853    5.7553    3.4575 C.3       1 RES1    0.0000
     16 C6         1.1095    6.8612    4.3737 C.3       1 RES1    0.0000
     17 C7         1.5633    6.2861    5.7037 C.3       1 RES1    0.0000
     18 C8         2.6393    5.1903    5.5162 C.3       1 RES1    0.0000
     19 C9         2.1297    4.0865    4.5484 C.3       1 RES1    0.0000
     20 C10        1.6828    4.6818    3.2098 C.3       1 RES1    0.0000
     21 C11       -0.0821    2.6860    0.7430 C.ar      1 RES1    0.0000
     22 C12       -0.1800    2.8393   -0.6714 C.ar      1 RES1    0.0000
     23 C13       -0.9629    1.8707   -1.3357 C.ar      1 RES1    0.0000
     24 C14       -1.5892    0.8879   -0.6242 C.ar      1 RES1    0.0000
     25 C15       -1.4526    0.7467    0.7387 C.ar      1 RES1    0.0000
     26 C16       -0.6730    1.6669    1.3730 C.ar      1 RES1    0.0000
     27 C17        0.1430    2.1290    6.8491 C.ar      1 RES1    0.0000
     28 C18        0.4568    1.2774    7.8684 C.ar      1 RES1    0.0000
     29 C19       -0.5628    0.8193    8.7002 C.ar      1 RES1    0.0000
     30 C20       -1.8390    1.2209    8.5126 C.ar      1 RES1    0.0000
     31 C21       -2.2020    2.0866    7.4947 C.ar      1 RES1    0.0000
     32 C22       -1.1157    2.5386    6.6973 C.ar      1 RES1    0.0000
     33 H1         3.5889    2.6819    5.2814 H         1 RES1    0.0000
     34 H2         2.8256    2.2037    3.7653 H         1 RES1    0.0000
     35 H3         4.9155    4.4134    4.0874 H         1 RES1    0.0000
     36 H4         5.1870    2.8313    3.3529 H         1 RES1    0.0000
     37 H5         4.7849    4.5889    1.6650 H         1 RES1    0.0000
     38 H6         3.5666    3.3156    1.6178 H         1 RES1    0.0000
     39 H7         3.3049    6.0439    2.8032 H         1 RES1    0.0000
     40 H8         2.5122    5.4203    1.3572 H         1 RES1    0.0000
     41 H9         0.2922    6.1731    2.5011 H         1 RES1    0.0000
     42 H10       -0.2730    5.2751    3.9099 H         1 RES1    0.0000
     43 H11        1.9461    7.3697    3.9070 H         1 RES1    0.0000
     44 H12        0.3226    7.5897    4.5598 H         1 RES1    0.0000
     45 H13        1.9768    7.0691    6.3208 H         1 RES1    0.0000
     46 H14        0.7088    5.8482    6.2062 H         1 RES1    0.0000
     47 H15        3.5339    5.6262    5.1082 H         1 RES1    0.0000
     48 H16        2.8666    4.7362    6.4768 H         1 RES1    0.0000
     49 H17        0.3129    3.6506   -1.1969 H         1 RES1    0.0000
     50 H18       -1.0695    1.8989   -2.4095 H         1 RES1    0.0000
     51 H19       -1.9143   -0.0646    1.2770 H         1 RES1    0.0000
     52 H20       -0.5339    1.5922    2.4438 H         1 RES1    0.0000
     53 H21        1.4835    0.9807    8.0244 H         1 RES1    0.0000
     54 H22       -0.3252    0.1271    9.5105 H         1 RES1    0.0000
     55 H23       -3.2086    2.4014    7.3086 H         1 RES1    0.0000
     56 H24       -1.3343    3.2611    5.9199 H         1 RES1    0.0000
@<TRIPOS>BOND
     1    1    2 2
     2    2   21 1
     3    3    7 2
     4    4    5 2
     5    5   27 1
     6    6    9 2
     7    8    3 2
     8   10    6 2
     9   11   12 1
    10   12   13 1
    11   13   14 1
    12   14   20 1
    13   15   16 1
    14   16   17 1
    15   17   18 1
    16   18   19 1
    17   19    4 1
    18   20    1 1
    19   21   22 ar
    20   22   23 ar
    21   23   24 ar
    22   24    3 1
    23   25   24 ar
    24   26   21 ar
    25   27   28 ar
    26   28   29 ar
    27   29   30 ar
    28   30    6 1
    29   31   30 ar
    30   32   27 ar
    31   33   11 1
    32   34   11 1
    33   35   12 1
    34   36   12 1
    35   37   13 1
    36   38   13 1
    37   39   14 1
    38   40   14 1
    39   41   15 1
    40   42   15 1
    41   43   16 1
    42   44   16 1
    43   45   17 1
    44   46   17 1
    45   47   18 1
    46   48   18 1
    47   49   22 1
    48   50   23 1
    49   51   25 1
    50   52   26 1
    51   53   28 1
    52   54   29 1
    53   55   31 1
    54   56   32 1
    55   11   19 1
    56   15   20 1
    57   19   20 1
    58   25   26 ar
    59   31   32 ar
@<TRIPOS>SUBSTRUCTURE
     1 RES1 1

@<TRIPOS>CRYSIN
   7.5200   20.1800   14.8230  90.0000 105.0200  90.0000  14 1

