# MOL2 file generated by ConQuest
# Please check atom types

@<TRIPOS>MOLECULE
CIMQAS
    65    54     2
SMALL
NO_CHARGES
****
Generated from CSD

@<TRIPOS>ATOM
      1 O1         3.5967    7.0175   10.3956 O.2       1 RES1    0.0000
      2 O2         1.6730    9.7555    8.1000 O.3       1 RES1    0.0000
      3 N1         2.1565    8.8083   10.0598 N.am      1 RES1    0.0000
      4 O3         2.0144    7.5410    8.1624 O.2       1 RES1    0.0000
      5 C1         1.6359    9.8512   10.8905 C.ar      1 RES1    0.0000
      6 C2         2.2460    9.7915   12.1335 C.ar      1 RES1    0.0000
      7 N2         1.7464    7.2002   13.3987 N.pl3     1 RES1    0.0000
      8 C3         3.1251    7.7394   13.3245 C.3       1 RES1    0.0000
      9 H1         3.7522    7.0066   13.2261 H         1 RES1    0.0000
     10 H2         3.3340    8.2039   14.1507 H         1 RES1    0.0000
     11 C4         3.2821    8.7027   12.1472 C.3       1 RES1    0.0000
     12 C5         4.7001    9.2448   12.1305 C.2       1 RES1    0.0000
     13 N3         6.3839   10.7029   12.0271 N.pl3     1 RES1    0.0000
     14 H3         6.8063   11.4483   11.9546 H         1 RES1    0.0000
     15 C6         5.9389    8.5172   12.1756 C.ar      1 RES1    0.0000
     16 C7         3.0514    8.0122   10.7829 C.2       1 RES1    0.0000
     17 C8         6.3109    7.1550   12.2276 C.ar      1 RES1    0.0000
     18 H4         5.6591    6.4914   12.2231 H         1 RES1    0.0000
     19 C9         0.6251   10.7590   10.6199 C.ar      1 RES1    0.0000
     20 H5         0.2141   10.7941    9.7860 H         1 RES1    0.0000
     21 C10        1.8576   10.6486   13.1446 C.ar      1 RES1    0.0000
     22 H6         2.2669   10.6135   13.9794 H         1 RES1    0.0000
     23 C11        6.9699    9.4733   12.1437 C.ar      1 RES1    0.0000
     24 C12        1.9299    8.6112    8.6707 C.2       1 RES1    0.0000
     25 C13        0.8491   11.5599   12.8937 C.ar      1 RES1    0.0000
     26 H7         0.5719   12.1391   13.5672 H         1 RES1    0.0000
     27 C14        1.4820    9.8665    6.6170 C.3       1 RES1    0.0000
     28 C15        0.2514   11.6166   11.6509 C.ar      1 RES1    0.0000
     29 H8        -0.4183   12.2439   11.4988 H         1 RES1    0.0000
     30 C16        5.0346   10.5661   12.0431 C.2       1 RES1    0.0000
     31 H9         4.4263   11.2689   12.0010 H         1 RES1    0.0000
     32 C17        7.6450    6.8185   12.2843 C.ar      1 RES1    0.0000
     33 H10        7.8854    5.9205   12.3203 H         1 RES1    0.0000
     34 C18        8.3240    9.1106   12.2044 C.ar      1 RES1    0.0000
     35 H11        8.9920    9.7572   12.1868 H         1 RES1    0.0000
     36 C19        8.6374    7.7896   12.2888 C.ar      1 RES1    0.0000
     37 H12        9.5288    7.5333   12.3508 H         1 RES1    0.0000
     38 O4         1.0275    7.6229   14.2799 O.2       1 RES1    0.0000
     39 O5         1.2877    6.5532   12.4742 O.2       1 RES1    0.0000
     40 C20        1.5567   11.3245    6.3416 C.3       1 RES1    0.0000
     41 H13        2.4086   11.6617    6.6290 H         1 RES1    0.0000
     42 H14        0.8563   11.7766    6.8177 H         1 RES1    0.0000
     43 H15        1.4524   11.4786    5.3996 H         1 RES1    0.0000
     44 C21        2.6973    9.1346    5.8829 C.3       1 RES1    0.0000
     45 H16        3.5239    9.5451    6.1457 H         1 RES1    0.0000
     46 H17        2.5897    9.2104    4.9322 H         1 RES1    0.0000
     47 H18        2.7082    8.2064    6.1297 H         1 RES1    0.0000
     48 C22        0.2305    9.2243    6.1921 C.3       1 RES1    0.0000
     49 H19        0.2646    8.2872    6.3982 H         1 RES1    0.0000
     50 H20        0.1153    9.3392    5.2457 H         1 RES1    0.0000
     51 H21       -0.5094    9.6259    6.6551 H         1 RES1    0.0000
     52 O6         1.1856    7.0066   12.4713 Du        2 SUP2    0.0000
     53 O7         1.3580    6.7768   14.4860 Du        2 SUP2    0.0000
     54 C23        0.4501    8.8404    6.1398 Du        2 SUP2    0.0000
     55 H22       -0.3711    8.9730    6.6159 Du        2 SUP2    0.0000
     56 H23        0.7827    7.9551    6.3169 Du        2 SUP2    0.0000
     57 H24        0.3041    8.9477    5.2022 Du        2 SUP2    0.0000
     58 C24        0.7212   11.2412    6.5448 Du        2 SUP2    0.0000
     59 H25       -0.1295   11.1603    6.9817 Du        2 SUP2    0.0000
     60 H26        0.5851   11.4836    5.6246 Du        2 SUP2    0.0000
     61 H27        1.2427   11.9181    6.9803 Du        2 SUP2    0.0000
     62 C25        2.7620    9.8772    6.0208 Du        2 SUP2    0.0000
     63 H28        3.2912   10.5756    6.4127 Du        2 SUP2    0.0000
     64 H29        2.6753   10.0313    5.0773 Du        2 SUP2    0.0000
     65 H30        3.1902    9.0298    6.1674 Du        2 SUP2    0.0000
@<TRIPOS>BOND
     1    1   16 2
     2    2   24 1
     3    3    5 1
     4    4   24 2
     5    5    6 ar
     6    6   11 1
     7    7    8 1
     8    8    9 1
     9   10    8 1
    10   11    8 1
    11   12   11 1
    12   13   14 1
    13   15   12 1
    14   16    3 1
    15   17   15 ar
    16   18   17 1
    17   19    5 ar
    18   20   19 1
    19   21    6 ar
    20   22   21 1
    21   23   13 1
    22   24    3 1
    23   25   21 ar
    24   26   25 1
    25   27    2 1
    26   28   19 ar
    27   29   28 1
    28   30   12 2
    29   31   30 1
    30   32   17 ar
    31   33   32 1
    32   34   23 ar
    33   35   34 1
    34   36   32 ar
    35   37   36 1
    36   38    7 2
    37   39    7 2
    38   40   27 1
    39   41   40 1
    40   42   40 1
    41   43   40 1
    42   44   27 1
    43   45   44 1
    44   46   44 1
    45   47   44 1
    46   48   27 1
    47   49   48 1
    48   50   48 1
    49   51   48 1
    50   11   16 1
    51   13   30 1
    52   15   23 ar
    53   25   28 ar
    54   34   36 ar
@<TRIPOS>SUBSTRUCTURE
     1 RES1 1
     2 SUP2 52

@<TRIPOS>CRYSIN
  10.9779   12.6291   14.5150  90.0000  90.0000  90.0000  19 1

