# MOL2 file generated by ConQuest
# Please check atom types

@<TRIPOS>MOLECULE
CINJAM
    21    21     1
SMALL
NO_CHARGES
****
Generated from CSD

@<TRIPOS>ATOM
      1 O1         1.2247    5.4964    7.3445 O.3       1 RES1    0.0000
      2 H1         0.5649    6.0403    7.0544 H         1 RES1    0.0000
      3 N1         1.6254    6.1587    8.5196 N.2       1 RES1    0.0000
      4 N2         1.5544    8.1374   10.3347 N.pl3     1 RES1    0.0000
      5 H2         1.1516    7.8080    9.6448 H         1 RES1    0.0000
      6 H3         0.9983    8.6190   10.8164 H         1 RES1    0.0000
      7 C1         2.8584    4.0673    8.8840 C.3       1 RES1    0.0000
      8 H4         2.3426    3.7565    8.1115 H         1 RES1    0.0000
      9 H5         2.7087    3.4636    9.6415 H         1 RES1    0.0000
     10 H6         3.8121    4.0782    8.6575 H         1 RES1    0.0000
     11 C2         2.4157    5.4576    9.2564 C.2       1 RES1    0.0000
     12 C3         2.8667    6.0501   10.5426 C.ar      1 RES1    0.0000
     13 C4         3.7863    5.3385   11.3257 C.ar      1 RES1    0.0000
     14 H7         4.1532    4.5356   10.9757 H         1 RES1    0.0000
     15 C5         4.1838    5.7507   12.5838 C.ar      1 RES1    0.0000
     16 H8         4.8122    5.2427   13.0833 H         1 RES1    0.0000
     17 C6         3.6470    6.9251   13.1050 C.ar      1 RES1    0.0000
     18 H9         3.8839    7.2088   13.9794 H         1 RES1    0.0000
     19 C7         2.7717    7.6748   12.3494 C.ar      1 RES1    0.0000
     20 H10        2.4293    8.4854   12.7066 H         1 RES1    0.0000
     21 C8         2.3741    7.2729   11.0690 C.ar      1 RES1    0.0000
@<TRIPOS>BOND
     1    1    2 1
     2    3    1 1
     3    4    5 1
     4    6    4 1
     5    7    8 1
     6    9    7 1
     7   10    7 1
     8   11    3 2
     9   12   11 1
    10   13   12 ar
    11   14   13 1
    12   15   13 ar
    13   16   15 1
    14   17   15 ar
    15   18   17 1
    16   19   17 ar
    17   20   19 1
    18   21    4 1
    19    7   11 1
    20   12   21 ar
    21   19   21 ar
@<TRIPOS>SUBSTRUCTURE
     1 RES1 1

@<TRIPOS>CRYSIN
   4.3787   10.2778   16.5947  90.0000  90.0000  90.0000  19 1

