# MOL2 file generated by ConQuest
# Please check atom types

@<TRIPOS>MOLECULE
CINVIE
    32    33     1
SMALL
NO_CHARGES
****
Generated from CSD

@<TRIPOS>ATOM
      1 O1        -0.5328    6.9567   10.1234 O.2       1 RES1    0.0000
      2 O2         0.8266    6.4862    7.8545 O.3       1 RES1    0.0000
      3 O3        -1.3201    8.8232    7.5131 O.2       1 RES1    0.0000
      4 O4        -0.3155    8.2930    5.6800 O.2       1 RES1    0.0000
      5 O5         0.6764   11.1244    6.0546 O.2       1 RES1    0.0000
      6 O6        -0.3761   12.0205    7.7102 O.2       1 RES1    0.0000
      7 O7        -1.1622   10.4325   11.7818 O.2       1 RES1    0.0000
      8 O8        -0.2354    8.5872   12.3854 O.2       1 RES1    0.0000
      9 N1        -0.3132    8.6363    6.8470 N.pl3     1 RES1    0.0000
     10 N2         0.3773   11.1973    7.2384 N.pl3     1 RES1    0.0000
     11 N3        -0.5036    9.4343   11.5653 N.pl3     1 RES1    0.0000
     12 C1         0.1226    7.8688    9.7030 C.2       1 RES1    0.0000
     13 C2         1.1249    7.6606    8.5567 C.3       1 RES1    0.0000
     14 C3         1.0211    8.8166    7.5506 C.3       1 RES1    0.0000
     15 C4         1.1076   10.2111    8.1848 C.3       1 RES1    0.0000
     16 C5         0.4512   10.3092    9.5378 C.2       1 RES1    0.0000
     17 C6         0.0655    9.2514   10.2053 C.2       1 RES1    0.0000
     18 C7         2.5530   10.7108    8.2042 C.3       1 RES1    0.0000
     19 C8         2.8646   12.1173    8.6316 C.3       1 RES1    0.0000
     20 C9         3.3072   10.9654    9.4615 C.3       1 RES1    0.0000
     21 C10        2.5295    7.5665    9.1881 C.3       1 RES1    0.0000
     22 H1         0.4962    5.7398    8.2986 H         1 RES1    0.0000
     23 H2         1.6227    8.7357    6.8692 H         1 RES1    0.0000
     24 H3         0.3517   11.1218    9.8667 H         1 RES1    0.0000
     25 H4         3.0455   10.3264    7.5215 H         1 RES1    0.0000
     26 H5         2.1569   12.6860    8.9508 H         1 RES1    0.0000
     27 H6         3.5357   12.6330    8.0627 H         1 RES1    0.0000
     28 H7         4.2114   10.6976    9.4504 H         1 RES1    0.0000
     29 H8         2.8942   10.8169   10.2969 H         1 RES1    0.0000
     30 H9         2.5088    6.6943    9.7002 H         1 RES1    0.0000
     31 H10        2.7560    8.4308    9.6863 H         1 RES1    0.0000
     32 H11        3.1343    7.5162    8.4929 H         1 RES1    0.0000
@<TRIPOS>BOND
     1    1   12 2
     2    2   13 1
     3    3    9 2
     4    4    9 2
     5    5   10 2
     6    6   10 2
     7    7   11 2
     8    8   11 2
     9    9   14 1
    10   10   15 1
    11   11   17 1
    12   12   13 1
    13   13   14 1
    14   14   15 1
    15   15   16 1
    16   16   17 2
    17   17   12 1
    18   18   15 1
    19   19   18 1
    20   20   18 1
    21   21   13 1
    22   22    2 1
    23   23   14 1
    24   24   16 1
    25   25   18 1
    26   26   19 1
    27   27   19 1
    28   28   20 1
    29   29   20 1
    30   30   21 1
    31   31   21 1
    32   32   21 1
    33   19   20 1
@<TRIPOS>SUBSTRUCTURE
     1 RES1 1

@<TRIPOS>CRYSIN
   6.7990   13.2560   14.0870  90.0000  99.9000  90.0000 231 1

