# MOL2 file generated by ConQuest
# Please check atom types

@<TRIPOS>MOLECULE
CINZII
    45    46     1
SMALL
NO_CHARGES
****
Generated from CSD

@<TRIPOS>ATOM
      1 O1         5.4326    3.8853    8.4982 O.2       1 RES1    0.0000
      2 O2         3.0432   10.1860    2.7233 O.3       1 RES1    0.0000
      3 N1         4.1679    3.8615    8.7965 N.pl3     1 RES1    0.0000
      4 C1         3.5338   10.7259    3.9373 C.3       1 RES1    0.0000
      5 C2         2.4485   11.6587    4.4964 C.3       1 RES1    0.0000
      6 C3         1.2704   10.8895    5.0525 C.3       1 RES1    0.0000
      7 C4         1.6933    9.9007    6.1361 C.3       1 RES1    0.0000
      8 C5         2.7343    8.8965    5.6205 C.3       1 RES1    0.0000
      9 C6         3.8955    9.7049    5.0045 C.3       1 RES1    0.0000
     10 C7         4.9498    8.6587    4.7227 C.3       1 RES1    0.0000
     11 C8         4.8260    7.6937    5.9098 C.3       1 RES1    0.0000
     12 C9         3.5359    8.0825    6.6817 C.3       1 RES1    0.0000
     13 C10        2.0762    7.9496    4.6253 C.3       1 RES1    0.0000
     14 C11        2.8792    6.8965    7.3756 C.3       1 RES1    0.0000
     15 C12        1.6089    7.2769    8.1460 C.3       1 RES1    0.0000
     16 C13        3.8646    6.2168    8.3438 C.3       1 RES1    0.0000
     17 C14        3.4071    4.8783    8.7695 C.2       1 RES1    0.0000
     18 C15        3.6450    2.5357    9.1052 C.3       1 RES1    0.0000
     19 H1         3.4275    9.3706    2.7428 H         1 RES1    0.0000
     20 H2         4.3284   11.2867    3.7320 H         1 RES1    0.0000
     21 H3         2.7870   12.2378    5.2308 H         1 RES1    0.0000
     22 H4         2.0621   12.2517    3.7620 H         1 RES1    0.0000
     23 H5         0.8657   10.3776    4.3165 H         1 RES1    0.0000
     24 H6         0.6264   11.5245    5.4406 H         1 RES1    0.0000
     25 H7         2.0973   10.4056    6.9095 H         1 RES1    0.0000
     26 H8         0.8868    9.4126    6.4448 H         1 RES1    0.0000
     27 H9         4.2791   10.2378    5.7554 H         1 RES1    0.0000
     28 H10        5.8838    9.0629    4.6912 H         1 RES1    0.0000
     29 H11        4.7929    8.1818    3.8669 H         1 RES1    0.0000
     30 H12        5.6374    7.7902    6.5198 H         1 RES1    0.0000
     31 H13        4.7858    6.7552    5.5905 H         1 RES1    0.0000
     32 H14        3.8005    8.7273    7.4041 H         1 RES1    0.0000
     33 H15        1.3583    7.4126    5.0809 H         1 RES1    0.0000
     34 H16        2.7589    7.3427    4.2416 H         1 RES1    0.0000
     35 H17        1.6539    8.4755    3.8819 H         1 RES1    0.0000
     36 H18        2.5970    6.2378    6.6846 H         1 RES1    0.0000
     37 H19        1.8510    7.9720    8.8279 H         1 RES1    0.0000
     38 H20        1.2457    6.4755    8.6031 H         1 RES1    0.0000
     39 H21        0.9361    7.6503    7.5090 H         1 RES1    0.0000
     40 H22        4.7577    6.1119    7.8687 H         1 RES1    0.0000
     41 H23        3.9976    6.7832    9.1577 H         1 RES1    0.0000
     42 H24        2.4492    4.7552    9.0378 H         1 RES1    0.0000
     43 H25        2.6744    2.6154    9.3225 H         1 RES1    0.0000
     44 H26        4.1383    2.1538    9.8921 H         1 RES1    0.0000
     45 H27        3.7653    1.9441    8.3034 H         1 RES1    0.0000
@<TRIPOS>BOND
     1    1    3 1
     2    2    4 1
     3    3   17 2
     4    4    5 1
     5    5    6 1
     6    6    7 1
     7    7    8 1
     8    8    9 1
     9    9    4 1
    10   10    9 1
    11   11   10 1
    12   12    8 1
    13   13    8 1
    14   14   12 1
    15   15   14 1
    16   16   14 1
    17   17   16 1
    18   18    3 1
    19   19    2 1
    20   20    4 1
    21   21    5 1
    22   22    5 1
    23   23    6 1
    24   24    6 1
    25   25    7 1
    26   26    7 1
    27   27    9 1
    28   28   10 1
    29   29   10 1
    30   30   11 1
    31   31   11 1
    32   32   12 1
    33   33   13 1
    34   34   13 1
    35   35   13 1
    36   36   14 1
    37   37   15 1
    38   38   15 1
    39   39   15 1
    40   40   16 1
    41   41   16 1
    42   42   17 1
    43   43   18 1
    44   44   18 1
    45   45   18 1
    46   11   12 1
@<TRIPOS>SUBSTRUCTURE
     1 RES1 1

@<TRIPOS>CRYSIN
   7.0380   13.9860   14.9880  90.0000  90.0000  90.0000  19 1

