# MOL2 file generated by ConQuest
# Please check atom types

@<TRIPOS>MOLECULE
CIPBIN
    31    31     1
SMALL
NO_CHARGES
****
Generated from CSD

@<TRIPOS>ATOM
      1 C1        13.3126   -3.8807    9.7581 C.2       1 RES1    0.0000
      2 H1        12.8458   -4.2939   10.4605 H         1 RES1    0.0000
      3 C2        12.7809   -2.7706    9.2912 C.2       1 RES1    0.0000
      4 H2        13.1788   -2.3347    8.5597 H         1 RES1    0.0000
      5 C3        11.5690   -2.2062    9.9033 C.2       1 RES1    0.0000
      6 C4        10.9645   -0.9712    9.3456 C.2       1 RES1    0.0000
      7 N1        11.3998   -0.6504    8.1902 N.2       1 RES1    0.0000
      8 O1        10.7419    0.4684    7.6986 O.3       1 RES1    0.0000
      9 C5        11.3241    0.8288    6.4452 C.3       1 RES1    0.0000
     10 H3        11.3193    0.0604    5.8375 H         1 RES1    0.0000
     11 H4        12.2516    1.1176    6.5727 H         1 RES1    0.0000
     12 C6        10.5162    1.9366    5.8782 C.3       1 RES1    0.0000
     13 H5        10.8551    2.1673    4.9999 H         1 RES1    0.0000
     14 H6        10.5751    2.7101    6.4611 H         1 RES1    0.0000
     15 H7         9.5900    1.6564    5.8049 H         1 RES1    0.0000
     16 O2        11.0359   -2.7183   10.8735 O.2       1 RES1    0.0000
     17 C7         9.9177   -0.2488   10.1057 C.3       1 RES1    0.0000
     18 H8         9.1025   -0.2139    9.5811 H         1 RES1    0.0000
     19 H9        10.2200    0.6533   10.2953 H         1 RES1    0.0000
     20 H10        9.7440   -0.7137   10.9398 H         1 RES1    0.0000
     21 C8        14.5348   -4.5549    9.3247 C.ar      1 RES1    0.0000
     22 C9        14.9178   -5.7068    9.9826 C.ar      1 RES1    0.0000
     23 H11       14.3876   -6.0375   10.6839 H         1 RES1    0.0000
     24 C10       16.0678   -6.3793    9.6255 C.ar      1 RES1    0.0000
     25 H12       16.3112   -7.1621   10.0859 H         1 RES1    0.0000
     26 C11       16.8549   -5.9207    8.6120 C.ar      1 RES1    0.0000
     27 H13       17.6384   -6.3827    8.3712 H         1 RES1    0.0000
     28 C12       16.4927   -4.7804    7.9485 C.ar      1 RES1    0.0000
     29 H14       17.0290   -4.4607    7.2451 H         1 RES1    0.0000
     30 C13       15.3480   -4.0946    8.2996 C.ar      1 RES1    0.0000
     31 H15       15.1166   -3.3082    7.8384 H         1 RES1    0.0000
@<TRIPOS>BOND
     1    1    2 1
     2    3    1 2
     3    4    3 1
     4    5    3 1
     5    6    5 1
     6    7    6 2
     7    8    7 1
     8    9    8 1
     9   10    9 1
    10   11    9 1
    11   12    9 1
    12   13   12 1
    13   14   12 1
    14   15   12 1
    15   16    5 2
    16   17    6 1
    17   18   17 1
    18   19   17 1
    19   20   17 1
    20   21    1 1
    21   22   21 ar
    22   23   22 1
    23   24   22 ar
    24   25   24 1
    25   26   24 ar
    26   27   26 1
    27   28   26 ar
    28   29   28 1
    29   30   21 ar
    30   31   30 1
    31   28   30 ar
@<TRIPOS>SUBSTRUCTURE
     1 RES1 1

@<TRIPOS>CRYSIN
  17.7060    5.8120   23.4580  90.0000  97.3300  90.0000  15 1

