# MOL2 file generated by ConQuest
# Please check atom types

@<TRIPOS>MOLECULE
CIPFOY
    72    76     1
SMALL
NO_CHARGES
****
Generated from CSD

@<TRIPOS>ATOM
      1 O1        17.3320    6.0477   -1.3183 O.3       1 RES1    0.0000
      2 O2        18.5123    6.0310    4.8260 O.2       1 RES1    0.0000
      3 O3        16.5731    6.9607    4.8243 O.2       1 RES1    0.0000
      4 O4        14.8315    4.2724   -0.3977 O.3       1 RES1    0.0000
      5 O5        15.0218    3.4430    5.3648 O.2       1 RES1    0.0000
      6 O6        16.9058    2.3965    5.4189 O.2       1 RES1    0.0000
      7 O7        15.0969    1.0322   -0.4103 O.3       1 RES1    0.0000
      8 O8        17.7646    3.0054   -0.4601 O.3       1 RES1    0.0000
      9 N1        17.5120    6.4337    4.2423 N.pl3     1 RES1    0.0000
     10 N2        15.8864    2.7573    4.8388 N.pl3     1 RES1    0.0000
     11 C1        19.6651    5.0090    0.0028 C.3       1 RES1    0.0000
     12 H1        19.4722    4.9868   -0.9685 H         1 RES1    0.0000
     13 H2        20.4930    5.5330    0.1404 H         1 RES1    0.0000
     14 C2        18.5141    5.6750    0.7335 C.ar      1 RES1    0.0000
     15 C3        18.5458    5.7702    2.1198 C.ar      1 RES1    0.0000
     16 H3        19.3047    5.4681    2.6058 H         1 RES1    0.0000
     17 C4        17.4534    6.3153    2.7843 C.ar      1 RES1    0.0000
     18 C5        16.3152    6.7433    2.1243 C.ar      1 RES1    0.0000
     19 H4        15.5801    7.0928    2.6120 H         1 RES1    0.0000
     20 C6        16.2614    6.6549    0.7390 C.ar      1 RES1    0.0000
     21 C7        17.3784    6.1450    0.0571 C.ar      1 RES1    0.0000
     22 C8        17.8482    7.2017   -1.9836 C.3       1 RES1    0.0000
     23 H5        17.3380    7.9939   -1.7081 H         1 RES1    0.0000
     24 H6        17.7695    7.0826   -2.9532 H         1 RES1    0.0000
     25 H7        18.7903    7.3215   -1.7466 H         1 RES1    0.0000
     26 C9        14.9946    7.0509    0.0064 C.3       1 RES1    0.0000
     27 H8        14.8194    8.0144    0.1508 H         1 RES1    0.0000
     28 H9        15.1170    6.9051   -0.9653 H         1 RES1    0.0000
     29 C10       13.8055    6.2453    0.4905 C.ar      1 RES1    0.0000
     30 C11       12.7447    6.8232    1.1869 C.ar      1 RES1    0.0000
     31 H10       12.7246    7.7653    1.3211 H         1 RES1    0.0000
     32 C12       11.7154    6.0371    1.6858 C.ar      1 RES1    0.0000
     33 H11       10.9766    6.4443    2.1221 H         1 RES1    0.0000
     34 C13       11.7621    4.6503    1.5485 C.ar      1 RES1    0.0000
     35 H12       11.0752    4.1164    1.9265 H         1 RES1    0.0000
     36 C14       12.8094    4.0454    0.8627 C.ar      1 RES1    0.0000
     37 C15       13.7945    4.8629    0.3015 C.ar      1 RES1    0.0000
     38 C16       14.5642    4.1414   -1.7966 C.3       1 RES1    0.0000
     39 H13       13.6942    3.7103   -1.9234 H         1 RES1    0.0000
     40 H14       15.2628    3.5942   -2.2126 H         1 RES1    0.0000
     41 H15       14.5534    5.0278   -2.2116 H         1 RES1    0.0000
     42 C17       12.9877    2.5439    0.8171 C.3       1 RES1    0.0000
     43 H16       13.0281    2.2425   -0.1248 H         1 RES1    0.0000
     44 H17       12.2142    2.1026    1.2472 H         1 RES1    0.0000
     45 C18       14.2633    2.1442    1.5376 C.ar      1 RES1    0.0000
     46 C19       14.4710    2.5866    2.8364 C.ar      1 RES1    0.0000
     47 H18       13.7967    3.0754    3.2924 H         1 RES1    0.0000
     48 C20       15.6771    2.3053    3.4609 C.ar      1 RES1    0.0000
     49 C21       16.6975    1.6186    2.8244 C.ar      1 RES1    0.0000
     50 H19       17.5193    1.4609    3.2726 H         1 RES1    0.0000
     51 C22       16.5101    1.1636    1.5270 C.ar      1 RES1    0.0000
     52 C23       15.2818    1.4206    0.8996 C.ar      1 RES1    0.0000
     53 C24       14.5938   -0.2857   -0.5621 C.3       1 RES1    0.0000
     54 H20       15.2274   -0.9250   -0.1748 H         1 RES1    0.0000
     55 H21       14.4746   -0.4813   -1.5146 H         1 RES1    0.0000
     56 H22       13.7316   -0.3618   -0.1019 H         1 RES1    0.0000
     57 C25       17.6676    0.5062    0.8036 C.3       1 RES1    0.0000
     58 H23       17.8582   -0.3755    1.2098 H         1 RES1    0.0000
     59 H24       17.4306    0.3652   -0.1477 H         1 RES1    0.0000
     60 C26       18.8903    1.3896    0.9010 C.ar      1 RES1    0.0000
     61 C27       19.9970    1.0557    1.6806 C.ar      1 RES1    0.0000
     62 H25       20.0378    0.2048    2.1044 H         1 RES1    0.0000
     63 C28       21.0436    1.9599    1.8417 C.ar      1 RES1    0.0000
     64 H26       21.8153    1.7067    2.3385 H         1 RES1    0.0000
     65 C29       20.9691    3.2228    1.2819 C.ar      1 RES1    0.0000
     66 H27       21.6734    3.8434    1.4220 H         1 RES1    0.0000
     67 C30       19.8671    3.5969    0.5138 C.ar      1 RES1    0.0000
     68 C31       18.8607    2.6477    0.2964 C.ar      1 RES1    0.0000
     69 C32       17.9303    2.7511   -1.8614 C.3       1 RES1    0.0000
     70 H28       18.8830    2.7989   -2.0919 H         1 RES1    0.0000
     71 H29       17.4345    3.4235   -2.3759 H         1 RES1    0.0000
     72 H30       17.5863    1.8568   -2.0742 H         1 RES1    0.0000
@<TRIPOS>BOND
     1    1   21 1
     2    2    9 2
     3    3    9 2
     4    4   37 1
     5    5   10 2
     6    6   10 2
     7    7   52 1
     8    8   68 1
     9    9   17 1
    10   10   48 1
    11   11   12 1
    12   13   11 1
    13   14   11 1
    14   15   14 ar
    15   16   15 1
    16   17   15 ar
    17   18   17 ar
    18   19   18 1
    19   20   18 ar
    20   21   14 ar
    21   22    1 1
    22   23   22 1
    23   24   22 1
    24   25   22 1
    25   26   20 1
    26   27   26 1
    27   28   26 1
    28   29   26 1
    29   30   29 ar
    30   31   30 1
    31   32   30 ar
    32   33   32 1
    33   34   32 ar
    34   35   34 1
    35   36   34 ar
    36   37   29 ar
    37   38    4 1
    38   39   38 1
    39   40   38 1
    40   41   38 1
    41   42   36 1
    42   43   42 1
    43   44   42 1
    44   45   42 1
    45   46   45 ar
    46   47   46 1
    47   48   46 ar
    48   49   48 ar
    49   50   49 1
    50   51   49 ar
    51   52   45 ar
    52   53    7 1
    53   54   53 1
    54   55   53 1
    55   56   53 1
    56   57   51 1
    57   58   57 1
    58   59   57 1
    59   60   57 1
    60   61   60 ar
    61   62   61 1
    62   63   61 ar
    63   64   63 1
    64   65   63 ar
    65   66   65 1
    66   67   11 1
    67   68   60 ar
    68   69    8 1
    69   70   69 1
    70   71   69 1
    71   72   69 1
    72   20   21 ar
    73   36   37 ar
    74   51   52 ar
    75   65   67 ar
    76   67   68 ar
@<TRIPOS>SUBSTRUCTURE
     1 RES1 1

@<TRIPOS>CRYSIN
  39.4134   39.4134   10.4024  90.0000  90.0000 120.0000 233 1

