# MOL2 file generated by ConQuest
# Please check atom types

@<TRIPOS>MOLECULE
CIPNUL
    64    69     1
SMALL
NO_CHARGES
****
Generated from CSD

@<TRIPOS>ATOM
      1 C1        -0.1554   21.2045    0.1639 C.3       1 RES1    0.0000
      2 H1         0.0443   22.0053   -0.3641 H         1 RES1    0.0000
      3 C2        -0.9071   20.2022   -0.6855 C.3       1 RES1    0.0000
      4 H2        -1.8501   20.4273   -0.6647 H         1 RES1    0.0000
      5 H3        -0.6058   20.2908   -1.6035 H         1 RES1    0.0000
      6 C3        -1.1090   18.5602    1.0518 C.3       1 RES1    0.0000
      7 H4        -1.4608   17.6573    1.1012 H         1 RES1    0.0000
      8 H5        -1.8131   19.1679    1.3293 H         1 RES1    0.0000
      9 C4         0.0718   18.6893    2.0247 C.3       1 RES1    0.0000
     10 C5         0.6552   20.0988    2.0962 C.3       1 RES1    0.0000
     11 H6         1.4024   20.1125    2.7310 H         1 RES1    0.0000
     12 C6         1.1242   20.6323    0.7412 C.3       1 RES1    0.0000
     13 H7         1.8013   21.3191    0.8467 H         1 RES1    0.0000
     14 H8         1.4754   19.9196    0.1843 H         1 RES1    0.0000
     15 C7         0.1862   22.1974    3.2529 C.3       1 RES1    0.0000
     16 H9         0.7012   22.7332    2.6301 H         1 RES1    0.0000
     17 H10        0.7848   21.8888    3.9507 H         1 RES1    0.0000
     18 C8         1.0844   16.5750    2.1927 C.3       1 RES1    0.0000
     19 H11        1.9583   16.2705    2.5161 H         1 RES1    0.0000
     20 C9        -0.4673   14.8783    1.9867 C.3       1 RES1    0.0000
     21 C10        0.0651   16.6507    3.3459 C.3       1 RES1    0.0000
     22 H12        0.4527   16.3543    4.1964 H         1 RES1    0.0000
     23 C11       -0.3557   18.1211    3.3942 C.3       1 RES1    0.0000
     24 H13       -1.3256   18.1979    3.5120 H         1 RES1    0.0000
     25 C12       -0.3097   18.6079    5.6957 C.3       1 RES1    0.0000
     26 H14       -0.4695   17.6610    5.8372 H         1 RES1    0.0000
     27 H15       -1.1679   19.0605    5.6902 H         1 RES1    0.0000
     28 C13       -0.9020   23.0446    3.8638 C.ar      1 RES1    0.0000
     29 C14       -1.0905   24.3716    3.5115 C.ar      1 RES1    0.0000
     30 H16       -0.5469   24.7552    2.8626 H         1 RES1    0.0000
     31 C15       -2.0840   25.1389    4.1185 C.ar      1 RES1    0.0000
     32 H17       -2.2024   26.0274    3.8739 H         1 RES1    0.0000
     33 C16       -2.8890   24.5749    5.0815 C.ar      1 RES1    0.0000
     34 H18       -3.5459   25.0865    5.4972 H         1 RES1    0.0000
     35 C17       -2.7213   23.2490    5.4316 C.ar      1 RES1    0.0000
     36 H19       -3.2693   22.8679    6.0785 H         1 RES1    0.0000
     37 C18       -1.7401   22.4865    4.8215 C.ar      1 RES1    0.0000
     38 H20       -1.6403   21.5921    5.0541 H         1 RES1    0.0000
     39 C19       -1.5617   14.4615    1.0477 C.3       1 RES1    0.0000
     40 H21       -1.2100   13.8500    0.3970 H         1 RES1    0.0000
     41 H22       -1.9123   15.2350    0.6010 H         1 RES1    0.0000
     42 H23       -2.2635   14.0338    1.5443 H         1 RES1    0.0000
     43 C20        0.1868   13.7051    2.7087 C.3       1 RES1    0.0000
     44 H24        0.5997   13.1238    2.0664 H         1 RES1    0.0000
     45 H25       -0.4802   13.2184    3.1983 H         1 RES1    0.0000
     46 H26        0.8527   14.0338    3.3167 H         1 RES1    0.0000
     47 C21        0.5296   19.1454    6.8160 C.ar      1 RES1    0.0000
     48 C22        0.1593   18.8787    8.1341 C.ar      1 RES1    0.0000
     49 H27       -0.6345   18.4254    8.3050 H         1 RES1    0.0000
     50 C23        0.9565   19.2789    9.1925 C.ar      1 RES1    0.0000
     51 H28        0.6978   19.0988   10.0686 H         1 RES1    0.0000
     52 C24        2.1485   19.9523    8.9389 C.ar      1 RES1    0.0000
     53 H29        2.6960   20.2108    9.6453 H         1 RES1    0.0000
     54 C25        2.5148   20.2361    7.6480 C.ar      1 RES1    0.0000
     55 H30        3.3052   20.6985    7.4846 H         1 RES1    0.0000
     56 C26        1.7126   19.8375    6.5779 C.ar      1 RES1    0.0000
     57 H31        1.9690   20.0342    5.7056 H         1 RES1    0.0000
     58 O1        -0.9778   21.5575    1.3116 O.3       1 RES1    0.0000
     59 O2        -0.7612   18.8442   -0.2922 O.3       1 RES1    0.0000
     60 O3         1.1780   17.8463    1.6138 O.3       1 RES1    0.0000
     61 O4         0.5189   15.6325    1.2826 O.3       1 RES1    0.0000
     62 O5        -1.0126   15.8128    2.9322 O.3       1 RES1    0.0000
     63 O6         0.3299   18.7952    4.4434 O.3       1 RES1    0.0000
     64 N1        -0.3876   21.0343    2.5450 N.3       1 RES1    0.0000
@<TRIPOS>BOND
     1    1    2 1
     2    3    1 1
     3    4    3 1
     4    5    3 1
     5    6    7 1
     6    8    6 1
     7    9    6 1
     8   10    9 1
     9   11   10 1
    10   12    1 1
    11   13   12 1
    12   14   12 1
    13   15   16 1
    14   17   15 1
    15   18   19 1
    16   20   39 1
    17   21   18 1
    18   22   21 1
    19   23    9 1
    20   24   23 1
    21   25   26 1
    22   27   25 1
    23   28   15 1
    24   29   28 ar
    25   30   29 1
    26   31   29 ar
    27   32   31 1
    28   33   31 ar
    29   34   33 1
    30   35   33 ar
    31   36   35 1
    32   37   28 ar
    33   38   37 1
    34   39   40 1
    35   41   39 1
    36   42   39 1
    37   43   20 1
    38   44   43 1
    39   45   43 1
    40   46   43 1
    41   47   25 1
    42   48   47 ar
    43   49   48 1
    44   50   48 ar
    45   51   50 1
    46   52   50 ar
    47   53   52 1
    48   54   52 ar
    49   55   54 1
    50   56   47 ar
    51   57   56 1
    52   58    1 1
    53   59    3 1
    54   60    9 1
    55   61   18 1
    56   62   20 1
    57   63   23 1
    58   64   10 1
    59    6   59 1
    60   10   12 1
    61   15   64 1
    62   18   60 1
    63   20   61 1
    64   21   23 1
    65   21   62 1
    66   25   63 1
    67   35   37 ar
    68   54   56 ar
    69   58   64 1
@<TRIPOS>SUBSTRUCTURE
     1 RES1 1

@<TRIPOS>CRYSIN
   5.6097   18.1997   21.9360  90.0000  90.0000  90.0000  19 1

