# MOL2 file generated by ConQuest
# Please check atom types

@<TRIPOS>MOLECULE
CIPQID
    52    55     1
SMALL
NO_CHARGES
****
Generated from CSD

@<TRIPOS>ATOM
      1 O1        -4.2275    3.6688    2.3641 O.2       1 RES1    0.0000
      2 O2        -4.8171    2.7502    4.2275 O.2       1 RES1    0.0000
      3 O3         0.3946    4.7018    7.8733 O.3       1 RES1    0.0000
      4 N1         2.3452    4.4581    9.1273 N.2       1 RES1    0.0000
      5 N2        -4.0911    3.4872    3.5640 N.pl3     1 RES1    0.0000
      6 C1         1.2640    3.9862    8.6580 C.2       1 RES1    0.0000
      7 C2         0.7483    5.9648    7.3558 C.2       1 RES1    0.0000
      8 C3         1.7976    6.6327    8.1110 C.ar      1 RES1    0.0000
      9 C4         2.0766    8.0074    8.0787 C.ar      1 RES1    0.0000
     10 H1         1.5278    8.5802    7.5567 H         1 RES1    0.0000
     11 C5         3.1297    8.5472    8.7908 C.ar      1 RES1    0.0000
     12 H2         3.2942    9.4812    8.7513 H         1 RES1    0.0000
     13 C6         3.9478    7.7376    9.5620 C.ar      1 RES1    0.0000
     14 H3         4.6815    8.1104   10.0356 H         1 RES1    0.0000
     15 C7         3.6899    6.3959    9.6338 C.ar      1 RES1    0.0000
     16 H4         4.2535    5.8386   10.1575 H         1 RES1    0.0000
     17 C8         2.6108    5.8308    8.9486 C.ar      1 RES1    0.0000
     18 C9         0.0842    6.3531    6.2348 C.2       1 RES1    0.0000
     19 C10       -0.9796    5.5551    5.5837 C.ar      1 RES1    0.0000
     20 C11       -1.8560    4.7280    6.2725 C.ar      1 RES1    0.0000
     21 H5        -1.7546    4.6231    7.2105 H         1 RES1    0.0000
     22 C12       -2.8746    4.0523    5.6196 C.ar      1 RES1    0.0000
     23 H6        -3.4736    3.4989    6.1056 H         1 RES1    0.0000
     24 C13       -3.0070    4.1979    4.2564 C.ar      1 RES1    0.0000
     25 C14       -2.1656    4.9979    3.5407 C.ar      1 RES1    0.0000
     26 H7        -2.2721    5.0891    2.6008 H         1 RES1    0.0000
     27 C15       -1.1544    5.6774    4.1990 C.ar      1 RES1    0.0000
     28 H8        -0.5679    6.2366    3.7039 H         1 RES1    0.0000
     29 C16        0.4490    7.6191    5.5586 C.ar      1 RES1    0.0000
     30 C17       -0.4583    8.6831    5.5084 C.ar      1 RES1    0.0000
     31 H9        -1.3083    8.5977    5.9245 H         1 RES1    0.0000
     32 C18       -0.1288    9.8540    4.8608 C.ar      1 RES1    0.0000
     33 H10       -0.7476   10.5743    4.8573 H         1 RES1    0.0000
     34 C19        1.0876    9.9996    4.2151 C.ar      1 RES1    0.0000
     35 H11        1.2971   10.8015    3.7506 H         1 RES1    0.0000
     36 C20        1.9936    8.9511    4.2582 C.ar      1 RES1    0.0000
     37 H12        2.8402    9.0443    3.8367 H         1 RES1    0.0000
     38 C21        1.6770    7.7686    4.9111 C.ar      1 RES1    0.0000
     39 H13        2.3025    7.0541    4.9182 H         1 RES1    0.0000
     40 C22        0.7453    2.6115    8.9791 C.3       1 RES1    0.0000
     41 C23        0.2472    1.8970    7.7128 C.3       1 RES1    0.0000
     42 H14        0.9939    1.7805    7.0886 H         1 RES1    0.0000
     43 H15       -0.4529    2.4349    7.2877 H         1 RES1    0.0000
     44 H16       -0.1166    1.0194    7.9531 H         1 RES1    0.0000
     45 C24       -0.4072    2.7785    9.9764 C.3       1 RES1    0.0000
     46 H17       -1.1302    3.2892    9.5567 H         1 RES1    0.0000
     47 H18       -0.0864    3.2562   10.7692 H         1 RES1    0.0000
     48 H19       -0.7408    1.8951   10.2401 H         1 RES1    0.0000
     49 C25        1.8513    1.7863    9.6320 C.3       1 RES1    0.0000
     50 H20        1.4969    0.9106    9.8903 H         1 RES1    0.0000
     51 H21        2.1806    2.2543   10.4284 H         1 RES1    0.0000
     52 H22        2.5878    1.6679    8.9952 H         1 RES1    0.0000
@<TRIPOS>BOND
     1    1    5 2
     2    2    5 2
     3    3    6 1
     4    4    6 2
     5    5   24 1
     6    6   40 1
     7    7    3 1
     8    8    7 1
     9    9    8 ar
    10   10    9 1
    11   11    9 ar
    12   12   11 1
    13   13   11 ar
    14   14   13 1
    15   15   13 ar
    16   16   15 1
    17   17    4 1
    18   18    7 2
    19   19   18 1
    20   20   19 ar
    21   21   20 1
    22   22   20 ar
    23   23   22 1
    24   24   22 ar
    25   25   24 ar
    26   26   25 1
    27   27   19 ar
    28   28   27 1
    29   29   18 1
    30   30   29 ar
    31   31   30 1
    32   32   30 ar
    33   33   32 1
    34   34   32 ar
    35   35   34 1
    36   36   34 ar
    37   37   36 1
    38   38   29 ar
    39   39   38 1
    40   40   41 1
    41   41   42 1
    42   43   41 1
    43   44   41 1
    44   45   40 1
    45   46   45 1
    46   47   45 1
    47   48   45 1
    48   49   40 1
    49   50   49 1
    50   51   49 1
    51   52   49 1
    52    8   17 ar
    53   15   17 ar
    54   25   27 ar
    55   36   38 ar
@<TRIPOS>SUBSTRUCTURE
     1 RES1 1

@<TRIPOS>CRYSIN
   5.9898   19.4167   18.1253  90.0000  98.2730  90.0000  14 1

