# MOL2 file generated by ConQuest
# Please check atom types

@<TRIPOS>MOLECULE
CIPRAW
    54    57     1
SMALL
NO_CHARGES
****
Generated from CSD

@<TRIPOS>ATOM
      1 O1         5.4003    0.5158   11.5238 O.2       1 RES1    0.0000
      2 O2         5.4253    2.6732   11.6015 O.2       1 RES1    0.0000
      3 O3         5.6505    0.8314   14.6706 O.2       1 RES1    0.0000
      4 O4         2.5908    5.0056   15.9864 O.2       1 RES1    0.0000
      5 O5         2.8666    0.6640   15.0511 O.3       1 RES1    0.0000
      6 H1         2.8555   -0.0717   15.4578 H         1 RES1    0.0000
      7 O6         8.6442    2.8297   18.0104 O.3       1 RES1    0.0000
      8 H2         8.8340    2.2736   17.4104 H         1 RES1    0.0000
      9 N1         4.8230    1.6102   11.6043 N.pl3     1 RES1    0.0000
     10 N2         0.6864    3.7472   12.5699 N.3       1 RES1    0.0000
     11 N3         5.3891    3.0715   14.7889 N.am      1 RES1    0.0000
     12 N4         2.8651    2.7880   15.9334 N.am      1 RES1    0.0000
     13 C1         3.3698    1.6266   11.6589 C.ar      1 RES1    0.0000
     14 C2         2.7376    0.5295   11.1126 C.ar      1 RES1    0.0000
     15 H3         3.2523   -0.2050   10.7973 H         1 RES1    0.0000
     16 C3         1.3514    0.4919   11.0193 C.ar      1 RES1    0.0000
     17 H4         0.9267   -0.2644   10.6320 H         1 RES1    0.0000
     18 C4         0.5972    1.5310   11.4788 C.ar      1 RES1    0.0000
     19 H5        -0.3508    1.5166   11.4051 H         1 RES1    0.0000
     20 C5         1.2496    2.6063   12.0544 C.ar      1 RES1    0.0000
     21 C6         1.6858    4.5349   13.0192 C.2       1 RES1    0.0000
     22 H6         1.5434    5.3813   13.4255 H         1 RES1    0.0000
     23 C7         2.9199    3.9904   12.8289 C.2       1 RES1    0.0000
     24 C8         2.6666    2.7177   12.1859 C.ar      1 RES1    0.0000
     25 C9         4.1150    4.6954   13.3960 C.3       1 RES1    0.0000
     26 H7         3.9282    5.6676   13.4195 H         1 RES1    0.0000
     27 H8         4.8854    4.5526   12.7918 H         1 RES1    0.0000
     28 C10        4.5123    4.2268   14.8326 C.3       1 RES1    0.0000
     29 H9         5.0222    4.9735   15.2605 H         1 RES1    0.0000
     30 C11        4.9740    1.8118   14.9680 C.2       1 RES1    0.0000
     31 C12        3.6791    1.5720   15.7497 C.3       1 RES1    0.0000
     32 C13        3.2687    4.0088   15.6491 C.2       1 RES1    0.0000
     33 C14        6.7774    3.3018   14.3785 C.3       1 RES1    0.0000
     34 H10        6.8699    3.1153   13.4215 H         1 RES1    0.0000
     35 H11        7.3700    2.7088   14.8860 H         1 RES1    0.0000
     36 H12        7.0195    4.2343   14.5552 H         1 RES1    0.0000
     37 C15        1.5439    2.6288   16.5696 C.3       1 RES1    0.0000
     38 H13        0.8617    3.0708   16.0217 H         1 RES1    0.0000
     39 H14        1.5606    3.0340   17.4623 H         1 RES1    0.0000
     40 H15        1.3321    1.6751   16.6473 H         1 RES1    0.0000
     41 C16        4.1197    1.0295   17.1445 C.3       1 RES1    0.0000
     42 H16        3.3200    0.8888   17.7113 H         1 RES1    0.0000
     43 H17        4.5729    0.1571   17.0319 H         1 RES1    0.0000
     44 C17        5.0599    2.0037   17.8299 C.ar      1 RES1    0.0000
     45 C18        4.5537    3.0497   18.6046 C.ar      1 RES1    0.0000
     46 H18        3.6190    3.1194   18.7534 H         1 RES1    0.0000
     47 C19        5.4178    3.9890   19.1589 C.ar      1 RES1    0.0000
     48 H19        5.0704    4.6920   19.6939 H         1 RES1    0.0000
     49 C20        6.7812    3.9057   18.9355 C.ar      1 RES1    0.0000
     50 H20        7.3670    4.5581   19.3013 H         1 RES1    0.0000
     51 C21        7.2833    2.8720   18.1796 C.ar      1 RES1    0.0000
     52 C22        6.4310    1.9245   17.6400 C.ar      1 RES1    0.0000
     53 H21        6.7920    1.2078   17.1315 H         1 RES1    0.0000
     54 H22       -0.2074    3.8667   12.5886 H         1 RES1    0.0000
@<TRIPOS>BOND
     1    1    9 2
     2    2    9 2
     3    3   30 2
     4    4   32 2
     5    5    6 1
     6    7    8 1
     7    9   13 1
     8   10   20 1
     9   11   28 1
    10   12   31 1
    11   13   14 ar
    12   14   15 1
    13   16   14 ar
    14   17   16 1
    15   18   16 ar
    16   19   18 1
    17   20   18 ar
    18   21   10 1
    19   22   21 1
    20   23   21 2
    21   24   13 ar
    22   25   23 1
    23   26   25 1
    24   27   25 1
    25   28   25 1
    26   29   28 1
    27   30   11 1
    28   31    5 1
    29   32   12 1
    30   33   11 1
    31   34   33 1
    32   35   33 1
    33   36   33 1
    34   37   12 1
    35   38   37 1
    36   39   37 1
    37   40   37 1
    38   41   31 1
    39   42   41 1
    40   43   41 1
    41   44   41 1
    42   45   44 ar
    43   46   45 1
    44   47   45 ar
    45   48   47 1
    46   49   47 ar
    47   50   49 1
    48   51    7 1
    49   52   44 ar
    50   53   52 1
    51   54   10 1
    52   20   24 ar
    53   23   24 1
    54   28   32 1
    55   30   31 1
    56   49   51 ar
    57   51   52 ar
@<TRIPOS>SUBSTRUCTURE
     1 RES1 1

@<TRIPOS>CRYSIN
  14.8970    6.8317   20.3800  90.0000 102.1300  90.0000   5 1

