# MOL2 file generated by ConQuest
# Please check atom types

@<TRIPOS>MOLECULE
CIPWED
    42    45     1
SMALL
NO_CHARGES
****
Generated from CSD

@<TRIPOS>ATOM
      1 O1         6.1603    1.8093    2.5959 O.2       1 RES1    0.0000
      2 N1         7.9009    0.2637    1.1176 N.3       1 RES1    0.0000
      3 N2         5.8156    2.3794    1.4704 N.pl3     1 RES1    0.0000
      4 N3         7.6869    1.4538   -2.2517 N.3       1 RES1    0.0000
      5 C1         7.3241    1.0383    0.1459 C.2       1 RES1    0.0000
      6 C2         7.9993    0.8257   -1.0492 C.2       1 RES1    0.0000
      7 C3         9.0564   -0.0707   -0.7807 C.ar      1 RES1    0.0000
      8 C4        10.0865   -0.6264   -1.5546 C.ar      1 RES1    0.0000
      9 C5        10.9840   -1.4541   -0.9479 C.ar      1 RES1    0.0000
     10 C6        10.8777   -1.7553    0.4114 C.ar      1 RES1    0.0000
     11 C7         9.8835   -1.2480    1.1982 C.ar      1 RES1    0.0000
     12 C8         8.9710   -0.3978    0.5805 C.ar      1 RES1    0.0000
     13 C9         6.2753    2.0107    0.3272 C.2       1 RES1    0.0000
     14 C10        4.9233    3.5031    1.5650 C.ar      1 RES1    0.0000
     15 C11        3.9932    3.7464    0.6110 C.ar      1 RES1    0.0000
     16 C12        3.1815    4.8480    0.7270 C.ar      1 RES1    0.0000
     17 C13        3.2886    5.6898    1.7847 C.ar      1 RES1    0.0000
     18 C14        4.1997    5.4278    2.7357 C.ar      1 RES1    0.0000
     19 C15        5.0330    4.3187    2.6478 C.ar      1 RES1    0.0000
     20 C16        8.5897    2.2379   -2.9609 C.ar      1 RES1    0.0000
     21 C17        9.7752    2.6549   -2.4104 C.ar      1 RES1    0.0000
     22 C18       10.6225    3.4584   -3.1361 C.ar      1 RES1    0.0000
     23 C19       10.3094    3.8449   -4.4130 C.ar      1 RES1    0.0000
     24 C20        9.1358    3.4267   -4.9642 C.ar      1 RES1    0.0000
     25 C21        8.2725    2.6292   -4.2440 C.ar      1 RES1    0.0000
     26 H1         7.6737    0.2323    2.0448 H         1 RES1    0.0000
     27 H2         6.8638    1.2651   -2.6918 H         1 RES1    0.0000
     28 H3        10.1560   -0.4256   -2.4598 H         1 RES1    0.0000
     29 H4        11.7129   -1.9116   -1.4771 H         1 RES1    0.0000
     30 H5        11.5585   -2.4005    0.7996 H         1 RES1    0.0000
     31 H6         9.7862   -1.4350    2.1974 H         1 RES1    0.0000
     32 H7         6.0221    2.5749   -0.4395 H         1 RES1    0.0000
     33 H8         3.8656    3.1402   -0.1404 H         1 RES1    0.0000
     34 H9         2.5545    5.0459   -0.0488 H         1 RES1    0.0000
     35 H10        2.6791    6.4291    1.9044 H         1 RES1    0.0000
     36 H11        4.3078    5.9841    3.4975 H         1 RES1    0.0000
     37 H12        5.7713    4.1555    3.3021 H         1 RES1    0.0000
     38 H13       10.0335    2.3513   -1.5809 H         1 RES1    0.0000
     39 H14       11.4804    3.7668   -2.7467 H         1 RES1    0.0000
     40 H15       10.9508    4.4117   -4.8830 H         1 RES1    0.0000
     41 H16        8.8795    3.7216   -5.9329 H         1 RES1    0.0000
     42 H17        7.4792    2.3235   -4.6389 H         1 RES1    0.0000
@<TRIPOS>BOND
     1    1    3 1
     2    2    5 1
     3    3   13 2
     4    4    6 1
     5    5    6 2
     6    6    7 1
     7    7    8 ar
     8    8    9 ar
     9    9   10 ar
    10   10   11 ar
    11   11   12 ar
    12   12    2 1
    13   13    5 1
    14   14    3 1
    15   15   14 ar
    16   16   15 ar
    17   17   16 ar
    18   18   17 ar
    19   19   14 ar
    20   20    4 1
    21   21   20 ar
    22   22   21 ar
    23   23   22 ar
    24   24   23 ar
    25   25   20 ar
    26   26    2 1
    27   27    4 1
    28   28    8 1
    29   29    9 1
    30   30   10 1
    31   31   11 1
    32   32   13 1
    33   33   15 1
    34   34   16 1
    35   35   17 1
    36   36   18 1
    37   37   19 1
    38   38   21 1
    39   39   22 1
    40   40   23 1
    41   41   24 1
    42   42   25 1
    43    7   12 ar
    44   18   19 ar
    45   24   25 ar
@<TRIPOS>SUBSTRUCTURE
     1 RES1 1

@<TRIPOS>CRYSIN
  11.9820   11.4620    6.2530  83.4000  80.1000  95.7000   2 1

