# MOL2 file generated by ConQuest
# Please check atom types

@<TRIPOS>MOLECULE
CIRLUL
    50    52     1
SMALL
NO_CHARGES
****
Generated from CSD

@<TRIPOS>ATOM
      1 N1         7.7458    1.8256   13.0823 N.am      1 RES1    0.0000
      2 N2         9.9598    3.9077   10.9742 N.pl3     1 RES1    0.0000
      3 O1         8.2199    3.8288   13.9667 O.2       1 RES1    0.0000
      4 O2        10.7608    4.3194   10.1660 O.2       1 RES1    0.0000
      5 O3        10.2745    3.1767   11.8671 O.2       1 RES1    0.0000
      6 C1         7.9209    3.1520   13.0063 C.2       1 RES1    0.0000
      7 C2         7.6201    3.8534   11.7216 C.ar      1 RES1    0.0000
      8 C3         8.5650    4.2873   10.8398 C.ar      1 RES1    0.0000
      9 C4         8.2468    5.0997    9.7647 C.ar      1 RES1    0.0000
     10 H1         8.9109    5.4054    9.1903 H         1 RES1    0.0000
     11 C5         6.9499    5.4436    9.5658 C.ar      1 RES1    0.0000
     12 H2         6.7254    5.9848    8.8442 H         1 RES1    0.0000
     13 C6         5.9790    5.0146   10.3998 C.ar      1 RES1    0.0000
     14 H3         5.0913    5.2365   10.2360 H         1 RES1    0.0000
     15 C7         6.3058    4.2454   11.4989 C.ar      1 RES1    0.0000
     16 H4         5.6401    3.9853   12.0935 H         1 RES1    0.0000
     17 C8         8.1046    1.1563   14.3359 C.3       1 RES1    0.0000
     18 H5         7.9209    0.2059   14.1849 H         1 RES1    0.0000
     19 C9         9.6035    1.2426   14.5899 C.3       1 RES1    0.0000
     20 H6        10.0777    0.9184   13.8204 H         1 RES1    0.0000
     21 H7         9.8298    0.7063   15.3539 H         1 RES1    0.0000
     22 H8         9.8480    2.1560   14.7556 H         1 RES1    0.0000
     23 C10        7.2343    1.5507   15.4861 C.ar      1 RES1    0.0000
     24 C11        7.7206    2.0931   16.6132 C.ar      1 RES1    0.0000
     25 H9         8.6300    2.2830   16.6666 H         1 RES1    0.0000
     26 C12        6.9144    2.3766   17.6846 C.ar      1 RES1    0.0000
     27 H10        7.2863    2.7649   18.4431 H         1 RES1    0.0000
     28 C13        5.6331    2.1128   17.6626 C.ar      1 RES1    0.0000
     29 H11        5.1086    2.2620   18.4155 H         1 RES1    0.0000
     30 C14        5.0878    1.6259   16.5451 C.ar      1 RES1    0.0000
     31 H12        4.1681    1.4977   16.4880 H         1 RES1    0.0000
     32 C15        5.9071    1.3128   15.4718 C.ar      1 RES1    0.0000
     33 H13        5.5282    0.9258   14.7151 H         1 RES1    0.0000
     34 C16        7.4059    1.0170   11.8930 C.3       1 RES1    0.0000
     35 H14        7.1944    1.6469   11.1730 H         1 RES1    0.0000
     36 C17        8.5927    0.2096   11.4345 C.3       1 RES1    0.0000
     37 H15        9.3166    0.8013   11.2154 H         1 RES1    0.0000
     38 H16        8.3517   -0.3020   10.6594 H         1 RES1    0.0000
     39 H17        8.8658   -0.3846   12.1377 H         1 RES1    0.0000
     40 C18        6.1602    0.2145   12.1504 C.ar      1 RES1    0.0000
     41 C19        6.1940   -1.0946   12.5483 C.ar      1 RES1    0.0000
     42 H18        7.0124   -1.5236   12.6514 H         1 RES1    0.0000
     43 C20        5.0272   -1.7813   12.7968 C.ar      1 RES1    0.0000
     44 H19        5.0558   -2.6700   13.0693 H         1 RES1    0.0000
     45 C21        3.8196   -1.1439   12.6403 C.ar      1 RES1    0.0000
     46 H20        3.0281   -1.5963   12.8189 H         1 RES1    0.0000
     47 C22        3.7832    0.1183   12.2334 C.ar      1 RES1    0.0000
     48 H21        2.9622    0.5362   12.1064 H         1 RES1    0.0000
     49 C23        4.9370    0.8123   11.9960 C.ar      1 RES1    0.0000
     50 H22        4.8919    1.7011   11.7253 H         1 RES1    0.0000
@<TRIPOS>BOND
     1    1    6 1
     2    2    4 2
     3    3    6 2
     4    5    2 2
     5    6    7 1
     6    7    8 ar
     7    8    2 1
     8    9    8 ar
     9   10    9 1
    10   11    9 ar
    11   12   11 1
    12   13   11 ar
    13   14   13 1
    14   15    7 ar
    15   16   15 1
    16   17    1 1
    17   18   17 1
    18   19   17 1
    19   20   19 1
    20   21   19 1
    21   22   19 1
    22   23   17 1
    23   24   23 ar
    24   25   24 1
    25   26   24 ar
    26   27   26 1
    27   28   26 ar
    28   29   28 1
    29   30   28 ar
    30   31   30 1
    31   32   23 ar
    32   33   32 1
    33   34    1 1
    34   35   34 1
    35   36   34 1
    36   37   36 1
    37   38   36 1
    38   39   36 1
    39   40   34 1
    40   41   40 ar
    41   42   41 1
    42   43   41 ar
    43   44   43 1
    44   45   43 ar
    45   46   45 1
    46   47   45 ar
    47   48   47 1
    48   49   40 ar
    49   50   49 1
    50   13   15 ar
    51   30   32 ar
    52   47   49 ar
@<TRIPOS>SUBSTRUCTURE
     1 RES1 1

@<TRIPOS>CRYSIN
   8.6690   12.3270   18.4100  90.0000  90.0000  90.0000  19 1

