# MOL2 file generated by ConQuest
# Please check atom types

@<TRIPOS>MOLECULE
CITRON
    43    47     1
SMALL
NO_CHARGES
****
Generated from CSD

@<TRIPOS>ATOM
      1 C1         4.2294    1.2024    8.0267 C.3       1 RES1    0.0000
      2 C2         5.5889    1.7960    7.7636 C.3       1 RES1    0.0000
      3 O1         6.1476    1.2602    6.5356 O.3       1 RES1    0.0000
      4 N1         6.3120    2.2999    5.5881 N.2       1 RES1    0.0000
      5 C3         5.9563    3.4094    6.1058 C.2       1 RES1    0.0000
      6 C4         5.4484    3.3045    7.5180 C.3       1 RES1    0.0000
      7 C5         3.9763    3.6711    7.6690 C.3       1 RES1    0.0000
      8 N2         3.2311    2.8559    6.7127 N.am      1 RES1    0.0000
      9 O2         3.3774    1.4525    6.8874 O.3       1 RES1    0.0000
     10 C6         3.4886    3.3194    9.0654 C.3       1 RES1    0.0000
     11 C7         3.6079    1.7976    9.2566 C.3       1 RES1    0.0000
     12 C8         2.5633    3.2861    5.6243 C.2       1 RES1    0.0000
     13 O3         2.4089    4.4834    5.4278 O.2       1 RES1    0.0000
     14 C9         1.9921    2.2526    4.7101 C.ar      1 RES1    0.0000
     15 C10        0.6441    2.3086    4.4098 C.ar      1 RES1    0.0000
     16 C11        0.0860    1.3941    3.5315 C.ar      1 RES1    0.0000
     17 C12        0.8691    0.4866    2.9019 C.ar      1 RES1    0.0000
     18 C13        2.2061    0.4224    3.1776 C.ar      1 RES1    0.0000
     19 C14        2.7654    1.2956    4.1008 C.ar      1 RES1    0.0000
     20 C15        5.9827    4.6482    5.3232 C.ar      1 RES1    0.0000
     21 C16        6.0132    4.6095    3.9326 C.ar      1 RES1    0.0000
     22 C17        5.9950    5.7640    3.2029 C.ar      1 RES1    0.0000
     23 C18        5.9485    6.9776    3.8193 C.ar      1 RES1    0.0000
     24 C19        5.9090    7.0326    5.1942 C.ar      1 RES1    0.0000
     25 C20        5.9236    5.8729    5.9425 C.ar      1 RES1    0.0000
     26 H1         4.2698    0.2582    8.0420 H         1 RES1    0.0000
     27 H2         6.1180    1.6047    8.4948 H         1 RES1    0.0000
     28 H3         5.9624    3.8952    8.1136 H         1 RES1    0.0000
     29 H4         3.8087    4.5478    7.4003 H         1 RES1    0.0000
     30 H5         2.5334    3.5750    9.2383 H         1 RES1    0.0000
     31 H6         4.0469    3.8105    9.6730 H         1 RES1    0.0000
     32 H7         2.6733    1.3714    9.4168 H         1 RES1    0.0000
     33 H8         4.1426    1.5614    9.9749 H         1 RES1    0.0000
     34 H9         0.1587    3.0381    4.7420 H         1 RES1    0.0000
     35 H10       -0.8771    1.3817    3.3681 H         1 RES1    0.0000
     36 H11        0.4953   -0.1239    2.2598 H         1 RES1    0.0000
     37 H12        2.7745   -0.3552    2.7876 H         1 RES1    0.0000
     38 H13        3.7151    1.2660    4.2901 H         1 RES1    0.0000
     39 H14        5.9962    3.8043    3.5354 H         1 RES1    0.0000
     40 H15        5.9828    5.7044    2.1632 H         1 RES1    0.0000
     41 H16        5.8699    7.8688    5.6339 H         1 RES1    0.0000
     42 H17        5.8953    5.9047    6.9164 H         1 RES1    0.0000
     43 H18        5.9432    7.7940    3.2955 H         1 RES1    0.0000
@<TRIPOS>BOND
     1    1    2 1
     2    2    3 1
     3    3    4 1
     4    4    5 2
     5    5    6 1
     6    6    2 1
     7    7    6 1
     8    8    7 1
     9    9    1 1
    10   10    7 1
    11   11    1 1
    12   12    8 1
    13   13   12 2
    14   14   12 1
    15   15   14 ar
    16   16   15 ar
    17   17   16 ar
    18   18   17 ar
    19   19   14 ar
    20   20    5 1
    21   21   20 ar
    22   22   21 ar
    23   23   22 ar
    24   24   23 ar
    25   25   20 ar
    26   26    1 1
    27   27    2 1
    28   28    6 1
    29   29    7 1
    30   30   10 1
    31   31   10 1
    32   32   11 1
    33   33   11 1
    34   34   15 1
    35   35   16 1
    36   36   17 1
    37   37   18 1
    38   38   19 1
    39   39   21 1
    40   40   22 1
    41   41   24 1
    42   42   25 1
    43   43   23 1
    44    8    9 1
    45   10   11 1
    46   18   19 ar
    47   24   25 ar
@<TRIPOS>SUBSTRUCTURE
     1 RES1 1

@<TRIPOS>CRYSIN
   9.4540   20.6530    9.1836  90.0000 110.0860  90.0000   9 1

