# MOL2 file generated by ConQuest
# Please check atom types

@<TRIPOS>MOLECULE
CIVVEI10
    36    38     1
SMALL
NO_CHARGES
****
Generated from CSD

@<TRIPOS>ATOM
      1 O1         7.8519    9.1598    5.0275 O.2       1 RES1    0.0000
      2 O2         1.0654    4.5965    5.5507 O.2       1 RES1    0.0000
      3 O3         1.1208    4.3235    3.4127 O.2       1 RES1    0.0000
      4 O4         4.1152    6.9065    0.7794 O.2       1 RES1    0.0000
      5 O5         6.0286    7.4267    1.5847 O.2       1 RES1    0.0000
      6 O6         8.6134    9.0922    9.8655 O.2       1 RES1    0.0000
      7 O7         7.7700    7.4415   10.9679 O.2       1 RES1    0.0000
      8 O8         3.8654    6.0307    8.3088 O.3       1 RES1    0.0000
      9 O9         5.1096    4.1746    8.5457 O.2       1 RES1    0.0000
     10 N1         6.1307    8.0036    4.1598 N.am      1 RES1    0.0000
     11 N2         1.5679    4.7798    4.4548 N.pl3     1 RES1    0.0000
     12 N3         4.8835    7.0528    1.7182 N.pl3     1 RES1    0.0000
     13 N4         7.8491    8.1610    9.9861 N.pl3     1 RES1    0.0000
     14 C1         3.3739    6.0147    5.5313 C.ar      1 RES1    0.0000
     15 C2         2.7700    5.6174    4.3600 C.ar      1 RES1    0.0000
     16 C3         3.2418    5.9495    3.1134 C.ar      1 RES1    0.0000
     17 C4         4.3707    6.7330    3.0703 C.ar      1 RES1    0.0000
     18 C5         6.8782    8.4526    5.2127 C.2       1 RES1    0.0000
     19 C6         7.2659    8.3320    7.6069 C.ar      1 RES1    0.0000
     20 C7         6.9348    7.8695    8.8557 C.ar      1 RES1    0.0000
     21 C8         5.8192    7.0959    9.0796 C.ar      1 RES1    0.0000
     22 C9         5.0185    6.7662    8.0181 C.ar      1 RES1    0.0000
     23 C10        5.3000    7.1771    6.7026 C.ar      1 RES1    0.0000
     24 C11        4.5397    6.7859    5.4969 C.ar      1 RES1    0.0000
     25 C12        5.0324    7.1869    4.2287 C.ar      1 RES1    0.0000
     26 C13        6.4479    7.9815    6.5368 C.ar      1 RES1    0.0000
     27 C14        4.0379    4.6925    8.6038 C.2       1 RES1    0.0000
     28 C15        2.7446    4.0479    8.9160 C.3       1 RES1    0.0000
     29 H1         6.3856    8.2287    3.4880 H         1 RES1    0.0000
     30 H2         3.0226    5.7318    6.3732 H         1 RES1    0.0000
     31 H3         2.8381    5.6457    2.2608 H         1 RES1    0.0000
     32 H4         8.0238    8.9175    7.4713 H         1 RES1    0.0000
     33 H5         5.5377    6.7527   10.0119 H         1 RES1    0.0000
     34 H6         2.2785    4.4526    9.4521 H         1 RES1    0.0000
     35 H7         2.8438    3.1365    9.2368 H         1 RES1    0.0000
     36 H8         2.1112    3.9483    8.0741 H         1 RES1    0.0000
@<TRIPOS>BOND
     1    1   18 2
     2    2   11 2
     3    3   11 2
     4    4   12 2
     5    5   12 2
     6    6   13 2
     7    7   13 2
     8    8   22 1
     9    9   27 2
    10   10   18 1
    11   11   15 1
    12   12   17 1
    13   13   20 1
    14   14   15 ar
    15   15   16 ar
    16   16   17 ar
    17   17   25 ar
    18   18   26 1
    19   19   20 ar
    20   20   21 ar
    21   21   22 ar
    22   22   23 ar
    23   23   24 1
    24   24   14 ar
    25   25   10 1
    26   26   19 ar
    27   27    8 1
    28   28   27 1
    29   29   10 1
    30   30   14 1
    31   31   16 1
    32   32   19 1
    33   33   21 1
    34   34   28 1
    35   35   28 1
    36   36   28 1
    37   23   26 ar
    38   24   25 ar
@<TRIPOS>SUBSTRUCTURE
     1 RES1 1

@<TRIPOS>CRYSIN
   5.7684   12.3000   21.5310  90.0000  90.0000  90.0000  19 1

