# MOL2 file generated by ConQuest
# Please check atom types

@<TRIPOS>MOLECULE
CIWMEA10
    17    17     1
SMALL
NO_CHARGES
****
Generated from CSD

@<TRIPOS>ATOM
      1 N1         3.1010    1.9895    3.5705 N.3       1 RES1    0.0000
      2 C1         2.5575    3.3592    3.7489 C.3       1 RES1    0.0000
      3 C2         2.2582    3.3370    2.2463 C.3       1 RES1    0.0000
      4 C3         2.6125    1.8337    2.1883 C.3       1 RES1    0.0000
      5 N2         2.9061    1.0471    4.5185 N.pl3     1 RES1    0.0000
      6 O1         2.8912    1.3953    5.6857 O.2       1 RES1    0.0000
      7 O2         2.8206   -0.1202    4.1208 O.2       1 RES1    0.0000
      8 N3         0.8187    3.6497    1.8852 N.pl3     1 RES1    0.0000
      9 O3         0.5957    4.5053    1.0533 O.2       1 RES1    0.0000
     10 O4        -0.0206    2.9731    2.4634 O.2       1 RES1    0.0000
     11 N4         3.0889    4.2416    1.3951 N.pl3     1 RES1    0.0000
     12 O5         3.3458    5.3343    1.8637 O.2       1 RES1    0.0000
     13 O6         3.4088    3.8321    0.3009 O.2       1 RES1    0.0000
     14 H1         1.8139    1.3419    2.1195 H         1 RES1    0.0000
     15 H2         1.6649    3.3214    4.3164 H         1 RES1    0.0000
     16 H3         3.1474    3.8800    3.9811 H         1 RES1    0.0000
     17 H4         3.3177    1.6390    1.5757 H         1 RES1    0.0000
@<TRIPOS>BOND
     1    1    2 1
     2    2    3 1
     3    3    4 1
     4    4    1 1
     5    5    1 1
     6    6    5 2
     7    7    5 2
     8    8    3 1
     9    9    8 2
    10   10    8 2
    11   11    3 1
    12   12   11 2
    13   13   11 2
    14   14    4 1
    15   15    2 1
    16   16    2 1
    17   17    4 1
@<TRIPOS>SUBSTRUCTURE
     1 RES1 1

@<TRIPOS>CRYSIN
   5.7330   11.1270   21.4960  90.0000  90.0000  90.0000  61 1

