# MOL2 file generated by ConQuest
# Please check atom types

@<TRIPOS>MOLECULE
CIWMUS
    20    21     1
SMALL
NO_CHARGES
****
Generated from CSD

@<TRIPOS>ATOM
      1 O1         1.3571    5.7184    0.5480 O.3       1 RES1    0.0000
      2 O2        -0.4912    4.4870    4.2141 O.2       1 RES1    0.0000
      3 O3         0.2640    2.5934    4.9960 O.2       1 RES1    0.0000
      4 N1         1.9723    6.4594    1.5404 N.2       1 RES1    0.0000
      5 N2         0.9134    4.5093    1.0368 N.2       1 RES1    0.0000
      6 N3         1.0444    3.3509    3.0737 N.pl3     1 RES1    0.0000
      7 N4         0.2244    3.4995    4.1730 N.pl3     1 RES1    0.0000
      8 C1         1.2603    4.4927    2.2901 C.2       1 RES1    0.0000
      9 C2         1.9151    5.7163    2.6104 C.2       1 RES1    0.0000
     10 H1         1.6312    2.7964    3.1941 H         1 RES1    0.0000
     11 O1B        3.0326    6.1557    5.9440 O.3       1 RES1    0.0000
     12 O2B        4.8809    7.3871    2.2779 O.2       1 RES1    0.0000
     13 O3B        4.1257    9.2807    1.4960 O.2       1 RES1    0.0000
     14 N1B        2.4174    5.4147    4.9516 N.2       1 RES1    0.0000
     15 N2B        3.4763    7.3648    5.4552 N.2       1 RES1    0.0000
     16 N3B        3.3453    8.5232    3.4184 N.pl3     1 RES1    0.0000
     17 N4B        4.1653    8.3746    2.3190 N.pl3     1 RES1    0.0000
     18 C1B        3.1294    7.3814    4.2019 C.2       1 RES1    0.0000
     19 C2B        2.4746    6.1578    3.8817 C.2       1 RES1    0.0000
     20 H1B        2.7586    9.0777    3.2980 H         1 RES1    0.0000
@<TRIPOS>BOND
     1    1    4 1
     2    2    7 2
     3    3    7 2
     4    4    9 2
     5    5    1 1
     6    6    7 1
     7    8    5 2
     8    9    8 1
     9   10    6 1
    10   11   14 1
    11   12   17 2
    12   13   17 2
    13   14   19 2
    14   15   11 1
    15   16   17 1
    16   18   15 2
    17   19    9 1
    18   20   16 1
    19    6    8 1
    20   16   18 1
    21   18   19 1
@<TRIPOS>SUBSTRUCTURE
     1 RES1 1

@<TRIPOS>CRYSIN
   5.7455   11.8741    6.6321  90.0000 101.7960  90.0000 231 1

