# MOL2 file generated by ConQuest
# Please check atom types

@<TRIPOS>MOLECULE
CIWMOL
    26    27     1
SMALL
NO_CHARGES
****
Generated from CSD

@<TRIPOS>ATOM
      1 O1         5.2606   -0.5381    6.9333 O.2       1 RES1    0.0000
      2 O2         6.5438    1.3316    6.9843 O.3       1 RES1    0.0000
      3 O3         0.6846    1.0263    5.0198 O.2       1 RES1    0.0000
      4 O4         0.8465    3.1468    4.5375 O.2       1 RES1    0.0000
      5 N1         4.4295    1.5130    6.3036 N.am      1 RES1    0.0000
      6 N2         3.2292    1.0178    5.8898 N.2       1 RES1    0.0000
      7 N3         3.3031    3.2957    5.6960 N.2       1 RES1    0.0000
      8 N4         1.2852    2.0960    4.9965 N.pl3     1 RES1    0.0000
      9 C1         2.6326    2.1299    5.5474 C.2       1 RES1    0.0000
     10 C2         4.4477    2.8696    6.1805 C.2       1 RES1    0.0000
     11 H1         5.1821    3.4271    6.4116 H         1 RES1    0.0000
     12 C3         5.4451    0.6304    6.7750 C.2       1 RES1    0.0000
     13 C4         7.6697    0.5509    7.4861 C.3       1 RES1    0.0000
     14 H2         7.9672   -0.0898    6.7929 H         1 RES1    0.0000
     15 H3         7.3902    0.0357    8.2837 H         1 RES1    0.0000
     16 C5         8.8013    1.4688    7.8461 C.ar      1 RES1    0.0000
     17 C6         9.9056    0.9001    8.4894 C.ar      1 RES1    0.0000
     18 H4         9.9233   -0.0334    8.6631 H         1 RES1    0.0000
     19 C7        10.9765    1.6981    8.8744 C.ar      1 RES1    0.0000
     20 H5        11.7274    1.3073    9.3047 H         1 RES1    0.0000
     21 C8        10.9522    3.0674    8.6318 C.ar      1 RES1    0.0000
     22 H6        11.6806    3.6136    8.9043 H         1 RES1    0.0000
     23 C9         9.8574    3.6338    7.9882 C.ar      1 RES1    0.0000
     24 H7         9.8402    4.5688    7.8176 H         1 RES1    0.0000
     25 C10        8.7843    2.8370    7.5916 C.ar      1 RES1    0.0000
     26 H8         8.0415    3.2281    7.1475 H         1 RES1    0.0000
@<TRIPOS>BOND
     1    1   12 2
     2    2   12 1
     3    3    8 2
     4    4    8 2
     5    5    6 1
     6    6    9 2
     7    7    9 1
     8    8    9 1
     9   10    5 1
    10   11   10 1
    11   12    5 1
    12   13    2 1
    13   14   13 1
    14   15   13 1
    15   16   13 1
    16   17   16 ar
    17   18   17 1
    18   19   17 ar
    19   20   19 1
    20   21   19 ar
    21   22   21 1
    22   23   21 ar
    23   24   23 1
    24   25   16 ar
    25   26   25 1
    26    7   10 2
    27   23   25 ar
@<TRIPOS>SUBSTRUCTURE
     1 RES1 1

@<TRIPOS>CRYSIN
   9.5223   11.5082    9.6990  90.0000 100.6320  90.0000 231 1

