# MOL2 file generated by ConQuest
# Please check atom types

@<TRIPOS>MOLECULE
CIWYEO
    36    37     1
SMALL
NO_CHARGES
****
Generated from CSD

@<TRIPOS>ATOM
      1 O1         1.3325    6.0968    6.0936 O.2       1 RES1    0.0000
      2 O2         0.2163    5.3282    4.4342 O.2       1 RES1    0.0000
      3 N1         0.6403    5.2394    5.5724 N.pl3     1 RES1    0.0000
      4 C1         0.3072    4.0494    6.3441 C.ar      1 RES1    0.0000
      5 C2        -0.3280    2.9980    5.7243 C.ar      1 RES1    0.0000
      6 H1        -0.5487    3.0442    4.8222 H         1 RES1    0.0000
      7 C3        -0.6332    1.8717    6.4652 C.ar      1 RES1    0.0000
      8 H2        -1.0630    1.1578    6.0515 H         1 RES1    0.0000
      9 C4        -0.3074    1.7835    7.8256 C.ar      1 RES1    0.0000
     10 C5         0.3367    2.8713    8.4164 C.ar      1 RES1    0.0000
     11 H3         0.5617    2.8342    9.3185 H         1 RES1    0.0000
     12 C6         0.6463    4.0025    7.6883 C.ar      1 RES1    0.0000
     13 H4         1.0755    4.7221    8.0918 H         1 RES1    0.0000
     14 C7        -0.6613    0.5733    8.5596 C.2       1 RES1    0.0000
     15 H5        -1.1873   -0.0469    8.1097 H         1 RES1    0.0000
     16 C8        -0.3101    0.2618    9.8084 C.2       1 RES1    0.0000
     17 H6         0.2213    0.8708   10.2680 H         1 RES1    0.0000
     18 C9        -0.6901   -0.9443   10.4985 C.2       1 RES1    0.0000
     19 H7        -1.2275   -1.5519   10.0448 H         1 RES1    0.0000
     20 C10       -0.3241   -1.2488   11.7422 C.2       1 RES1    0.0000
     21 H8         0.2118   -0.6237   12.1749 H         1 RES1    0.0000
     22 C11       -0.6626   -2.4436   12.5077 C.ar      1 RES1    0.0000
     23 C12       -1.2806   -3.5433   11.9010 C.ar      1 RES1    0.0000
     24 H9        -1.4686   -3.5111   10.9918 H         1 RES1    0.0000
     25 C13       -1.6178   -4.6689   12.6145 C.ar      1 RES1    0.0000
     26 H10       -2.0247   -5.3870   12.1851 H         1 RES1    0.0000
     27 C14       -1.3511   -4.7312   13.9705 C.ar      1 RES1    0.0000
     28 H11       -1.5873   -5.4850   14.4615 H         1 RES1    0.0000
     29 C15       -0.7337   -3.6679   14.5865 C.ar      1 RES1    0.0000
     30 H12       -0.5453   -3.7211   15.4957 H         1 RES1    0.0000
     31 C16       -0.3810   -2.5122   13.8905 C.ar      1 RES1    0.0000
     32 C17        0.2595   -1.3986   14.6124 C.2       1 RES1    0.0000
     33 H13        0.9539   -0.9541   14.1818 H         1 RES1    0.0000
     34 C18       -0.0721   -0.9828   15.8168 C.2       1 RES1    0.0000
     35 H14       -0.7615   -1.4014   16.2810 H         1 RES1    0.0000
     36 H15        0.3833   -0.2702   16.2041 H         1 RES1    0.0000
@<TRIPOS>BOND
     1    1    3 2
     2    2    3 2
     3    3    4 1
     4    4    5 ar
     5    5    6 1
     6    7    5 ar
     7    8    7 1
     8    9    7 ar
     9   10    9 ar
    10   11   10 1
    11   12    4 ar
    12   13   12 1
    13   14    9 1
    14   15   14 1
    15   16   14 2
    16   17   16 1
    17   18   16 1
    18   19   18 1
    19   20   18 2
    20   21   20 1
    21   22   20 1
    22   23   22 ar
    23   24   23 1
    24   25   23 ar
    25   26   25 1
    26   27   25 ar
    27   28   27 1
    28   29   27 ar
    29   30   29 1
    30   31   22 ar
    31   32   31 1
    32   33   32 1
    33   34   32 2
    34   35   34 1
    35   36   34 1
    36   10   12 ar
    37   29   31 ar
@<TRIPOS>SUBSTRUCTURE
     1 RES1 1

