# MOL2 file generated by ConQuest
# Please check atom types

@<TRIPOS>MOLECULE
CIYNAB
    74    81     1
SMALL
NO_CHARGES
****
Generated from CSD

@<TRIPOS>ATOM
      1 C1         0.3996    8.1958   13.5994 C.ar      1 RES1    0.0000
      2 C2         1.1957    8.9512   14.4525 C.ar      1 RES1    0.0000
      3 H1         0.7944    9.4860   15.1268 H         1 RES1    0.0000
      4 C3         2.5789    8.9244   14.3177 C.ar      1 RES1    0.0000
      5 H2         3.1225    9.4408   14.9013 H         1 RES1    0.0000
      6 C4         3.1661    8.1421   13.3301 C.ar      1 RES1    0.0000
      7 H3         4.1108    8.1236   13.2375 H         1 RES1    0.0000
      8 C5         2.3699    7.3867   12.4771 C.ar      1 RES1    0.0000
      9 H4         2.7718    6.8522   11.8020 H         1 RES1    0.0000
     10 C6         0.9867    7.4135   12.6118 C.ar      1 RES1    0.0000
     11 H5         0.4419    6.8974   12.0289 H         1 RES1    0.0000
     12 C7        -0.0067    6.2936   15.6507 C.ar      1 RES1    0.0000
     13 C8         0.0332    7.0694   16.8034 C.ar      1 RES1    0.0000
     14 H6        -0.7435    7.5349   17.0889 H         1 RES1    0.0000
     15 C9         1.2098    7.1637   17.5374 C.ar      1 RES1    0.0000
     16 H7         1.2366    7.6941   18.3256 H         1 RES1    0.0000
     17 C10        2.3467    6.4822   17.1186 C.ar      1 RES1    0.0000
     18 C11        2.3068    5.7064   15.9660 C.ar      1 RES1    0.0000
     19 H8         3.0837    5.2403   15.6800 H         1 RES1    0.0000
     20 C12        1.1302    5.6121   15.2320 C.ar      1 RES1    0.0000
     21 H9         1.1034    5.0818   14.4448 H         1 RES1    0.0000
     22 C13       -1.1195    8.2534   13.6371 C.ar      1 RES1    0.0000
     23 C14       -1.9046    7.1900   14.1577 C.ar      1 RES1    0.0000
     24 C15       -1.3534    6.1574   14.9772 C.ar      1 RES1    0.0000
     25 C16       -2.1206    5.0589   15.3607 C.ar      1 RES1    0.0000
     26 C17       -1.5827    3.9983   16.1761 C.ar      1 RES1    0.0000
     27 H10       -0.6664    4.0263   16.4279 H         1 RES1    0.0000
     28 C18       -2.3510    2.9600   16.5938 C.ar      1 RES1    0.0000
     29 H11       -1.9652    2.2724   17.1225 H         1 RES1    0.0000
     30 C19       -3.7233    2.8948   16.2479 C.ar      1 RES1    0.0000
     31 H12       -4.2491    2.1555   16.5315 H         1 RES1    0.0000
     32 C20       -4.2891    3.8879   15.5110 C.ar      1 RES1    0.0000
     33 H13       -5.2141    3.8370   15.3005 H         1 RES1    0.0000
     34 C21       -3.5279    5.0108   15.0433 C.ar      1 RES1    0.0000
     35 N1         3.5666    6.6027   17.8864 N.pl3     1 RES1    0.0000
     36 O1         3.4855    7.0193   19.0358 O.2       1 RES1    0.0000
     37 O2         4.6199    6.2779   17.3594 O.2       1 RES1    0.0000
     38 C1B       -5.6496    6.1454   14.4106 C.ar      1 RES1    0.0000
     39 C2B       -6.4457    5.3900   13.5576 C.ar      1 RES1    0.0000
     40 H1B       -6.0444    4.8552   12.8832 H         1 RES1    0.0000
     41 C3B       -7.8289    5.4168   13.6923 C.ar      1 RES1    0.0000
     42 H2B       -8.3725    4.9004   13.1087 H         1 RES1    0.0000
     43 C4B       -8.4161    6.1991   14.6799 C.ar      1 RES1    0.0000
     44 H3B       -9.3608    6.2176   14.7725 H         1 RES1    0.0000
     45 C5B       -7.6200    6.9545   15.5330 C.ar      1 RES1    0.0000
     46 H4B       -8.0219    7.4890   16.2080 H         1 RES1    0.0000
     47 C6B       -6.2368    6.9277   15.3982 C.ar      1 RES1    0.0000
     48 H5B       -5.6920    7.4438   15.9811 H         1 RES1    0.0000
     49 C7B       -5.2434    8.0476   12.3593 C.ar      1 RES1    0.0000
     50 C8B       -5.2832    7.2718   11.2067 C.ar      1 RES1    0.0000
     51 H6B       -4.5065    6.8063   10.9211 H         1 RES1    0.0000
     52 C9B       -6.4598    7.1775   10.4727 C.ar      1 RES1    0.0000
     53 H7B       -6.4866    6.6471    9.6845 H         1 RES1    0.0000
     54 C10B      -7.5967    7.8590   10.8914 C.ar      1 RES1    0.0000
     55 C11B      -7.5568    8.6348   12.0440 C.ar      1 RES1    0.0000
     56 H8B       -8.3338    9.1009   12.3300 H         1 RES1    0.0000
     57 C12B      -6.3802    8.7291   12.7780 C.ar      1 RES1    0.0000
     58 H9B       -6.3534    9.2594   13.5653 H         1 RES1    0.0000
     59 C13B      -4.1306    6.0878   14.3729 C.ar      1 RES1    0.0000
     60 C14B      -3.3454    7.1512   13.8524 C.ar      1 RES1    0.0000
     61 C15B      -3.8966    8.1838   13.0328 C.ar      1 RES1    0.0000
     62 C16B      -3.1295    9.2823   12.6493 C.ar      1 RES1    0.0000
     63 C17B      -3.6674   10.3429   11.8340 C.ar      1 RES1    0.0000
     64 H10B      -4.5836   10.3149   11.5821 H         1 RES1    0.0000
     65 C18B      -2.8991   11.3812   11.4162 C.ar      1 RES1    0.0000
     66 H11B      -3.2848   12.0688   10.8875 H         1 RES1    0.0000
     67 C19B      -1.5267   11.4464   11.7621 C.ar      1 RES1    0.0000
     68 H12B      -1.0010   12.1857   11.4785 H         1 RES1    0.0000
     69 C20B      -0.9610   10.4533   12.4991 C.ar      1 RES1    0.0000
     70 H13B      -0.0359   10.5042   12.7096 H         1 RES1    0.0000
     71 C21B      -1.7221    9.3304   12.9667 C.ar      1 RES1    0.0000
     72 N1B       -8.8166    7.7385   10.1237 N.pl3     1 RES1    0.0000
     73 O1B       -8.7356    7.3219    8.9743 O.2       1 RES1    0.0000
     74 O2B       -9.8699    8.0633   10.6507 O.2       1 RES1    0.0000
@<TRIPOS>BOND
     1    1    2 ar
     2    2    3 1
     3    4    2 ar
     4    5    4 1
     5    6    4 ar
     6    7    6 1
     7    8    6 ar
     8    9    8 1
     9   10    1 ar
    10   11   10 1
    11   12   13 ar
    12   13   14 1
    13   15   13 ar
    14   16   15 1
    15   17   15 ar
    16   18   17 ar
    17   19   18 1
    18   20   12 ar
    19   21   20 1
    20   22    1 1
    21   23   22 ar
    22   24   12 1
    23   25   24 ar
    24   26   25 ar
    25   27   26 1
    26   28   26 ar
    27   29   28 1
    28   30   28 ar
    29   31   30 1
    30   32   30 ar
    31   33   32 1
    32   34   25 ar
    33   35   17 1
    34   36   35 2
    35   37   35 2
    36   38   39 ar
    37   39   40 1
    38   41   39 ar
    39   42   41 1
    40   43   41 ar
    41   44   43 1
    42   45   43 ar
    43   46   45 1
    44   47   38 ar
    45   48   47 1
    46   49   50 ar
    47   50   51 1
    48   52   50 ar
    49   53   52 1
    50   54   52 ar
    51   55   54 ar
    52   56   55 1
    53   57   49 ar
    54   58   57 1
    55   59   34 ar
    56   60   23 ar
    57   61   49 1
    58   62   61 ar
    59   63   62 ar
    60   64   63 1
    61   65   63 ar
    62   66   65 1
    63   67   65 ar
    64   68   67 1
    65   69   67 ar
    66   70   69 1
    67   71   22 ar
    68   72   54 1
    69   73   72 2
    70   74   72 2
    71    8   10 ar
    72   18   20 ar
    73   23   24 ar
    74   32   34 ar
    75   38   59 1
    76   45   47 ar
    77   55   57 ar
    78   59   60 ar
    79   60   61 ar
    80   62   71 ar
    81   69   71 ar
@<TRIPOS>SUBSTRUCTURE
     1 RES1 1

@<TRIPOS>CRYSIN
  15.0983    7.1706   14.2489  90.0000 100.6160  90.0000  14 1

