# MOL2 file generated by ConQuest
# Please check atom types

@<TRIPOS>MOLECULE
CIYVEM
    41    44     1
SMALL
NO_CHARGES
****
Generated from CSD

@<TRIPOS>ATOM
      1 N1         5.6138    2.9896    6.1107 N.3       1 RES1    0.0000
      2 O1         5.1692   -0.5732    6.5442 O.2       1 RES1    0.0000
      3 O2         3.7895    1.3629    8.8591 O.3       1 RES1    0.0000
      4 O3         2.2392   -0.0484    8.0041 O.3       1 RES1    0.0000
      5 O4         4.5042    3.4254    6.9823 O.3       1 RES1    0.0000
      6 O5         3.2423    2.4890    3.5192 O.3       1 RES1    0.0000
      7 C1         3.6296    0.1306    8.2141 C.3       1 RES1    0.0000
      8 H1         3.9608   -0.6171    8.7631 H         1 RES1    0.0000
      9 C2         4.3286    0.2210    6.8778 C.2       1 RES1    0.0000
     10 C3         3.8808    1.3804    6.0048 C.3       1 RES1    0.0000
     11 H2         3.1611    1.0515    5.3818 H         1 RES1    0.0000
     12 C4         3.3708    2.5720    6.8173 C.3       1 RES1    0.0000
     13 H3         2.6951    3.0853    6.3433 H         1 RES1    0.0000
     14 C5         2.8330    2.1849    8.1792 C.3       1 RES1    0.0000
     15 H4         2.6636    2.9594    8.6691 H         1 RES1    0.0000
     16 C6         1.6511    1.2606    8.0767 C.3       1 RES1    0.0000
     17 H5         1.1398    1.2971    8.9456 H         1 RES1    0.0000
     18 H6         1.1775    1.3726    7.3192 H         1 RES1    0.0000
     19 C7         5.0105    1.9882    5.1910 C.3       1 RES1    0.0000
     20 H7         5.6421    1.3122    5.0186 H         1 RES1    0.0000
     21 C8         4.5836    2.7390    3.8994 C.3       1 RES1    0.0000
     22 H8         5.1698    2.4758    3.1445 H         1 RES1    0.0000
     23 C9         4.8084    4.2136    4.2283 C.3       1 RES1    0.0000
     24 H9         5.1006    4.6342    3.4590 H         1 RES1    0.0000
     25 H10        3.9545    4.5587    4.7059 H         1 RES1    0.0000
     26 C10        5.9116    4.1507    5.2640 C.3       1 RES1    0.0000
     27 H11        6.0136    4.9239    5.8445 H         1 RES1    0.0000
     28 H12        6.8134    4.0424    4.8433 H         1 RES1    0.0000
     29 C11        3.0307    1.7644    2.2906 C.3       1 RES1    0.0000
     30 C12        3.5276    2.5715    1.1051 C.3       1 RES1    0.0000
     31 H13        4.4835    2.6508    1.1494 H         1 RES1    0.0000
     32 H14        3.1328    3.4467    1.1259 H         1 RES1    0.0000
     33 H15        3.2814    2.1282    0.2910 H         1 RES1    0.0000
     34 C13        3.6982    0.4093    2.3420 C.3       1 RES1    0.0000
     35 H16        4.6516    0.5226    2.3710 H         1 RES1    0.0000
     36 H17        3.4602   -0.0944    1.5596 H         1 RES1    0.0000
     37 H18        3.4086   -0.0617    3.1265 H         1 RES1    0.0000
     38 C14        1.5232    1.6396    2.2315 C.3       1 RES1    0.0000
     39 H19        1.2141    1.1346    2.9873 H         1 RES1    0.0000
     40 H20        1.2707    1.1900    1.4223 H         1 RES1    0.0000
     41 H21        1.1291    2.5148    2.2482 H         1 RES1    0.0000
@<TRIPOS>BOND
     1    1    5 1
     2    2    9 2
     3    3    7 1
     4    4    7 1
     5    5   12 1
     6    6   21 1
     7    7    8 1
     8    9    7 1
     9   10    9 1
    10   11   10 1
    11   12   10 1
    12   13   12 1
    13   14    3 1
    14   15   14 1
    15   16    4 1
    16   17   16 1
    17   18   16 1
    18   19    1 1
    19   20   19 1
    20   21   19 1
    21   22   21 1
    22   23   21 1
    23   24   23 1
    24   25   23 1
    25   26    1 1
    26   27   26 1
    27   28   26 1
    28   29    6 1
    29   30   29 1
    30   31   30 1
    31   32   30 1
    32   33   30 1
    33   34   29 1
    34   35   34 1
    35   36   34 1
    36   37   34 1
    37   38   29 1
    38   39   38 1
    39   40   38 1
    40   41   38 1
    41   10   19 1
    42   12   14 1
    43   14   16 1
    44   23   26 1
@<TRIPOS>SUBSTRUCTURE
     1 RES1 1

@<TRIPOS>CRYSIN
   6.2970   12.5930   18.0720  90.0000  90.0000  90.0000  19 1

