# MOL2 file generated by ConQuest
# Please check atom types

@<TRIPOS>MOLECULE
CIZQAE
    47    49     1
SMALL
NO_CHARGES
****
Generated from CSD

@<TRIPOS>ATOM
      1 N1        -0.7966    2.8009   19.4820 N.pl3     1 RES1    0.0000
      2 C1        -0.8450    2.2041   18.2312 C.2       1 RES1    0.0000
      3 C2        -1.8746    2.4932   17.3840 C.2       1 RES1    0.0000
      4 C3        -3.0687    3.3375   17.8083 C.3       1 RES1    0.0000
      5 C4        -2.6815    4.1883   18.9883 C.2       1 RES1    0.0000
      6 C5        -1.6630    3.8724   19.7630 C.2       1 RES1    0.0000
      7 C6         0.3078    2.5977   20.3871 C.ar      1 RES1    0.0000
      8 C7         1.5154    3.2131   20.1489 C.ar      1 RES1    0.0000
      9 C8         2.5782    3.0200   21.0135 C.ar      1 RES1    0.0000
     10 C9         2.4213    2.2123   22.1172 C.ar      1 RES1    0.0000
     11 C10        1.2082    1.6215   22.3685 C.ar      1 RES1    0.0000
     12 C11        0.1380    1.8117   21.5033 C.ar      1 RES1    0.0000
     13 C12       -4.2919    2.4932   18.1672 C.ar      1 RES1    0.0000
     14 C13       -5.6028    2.7765   17.7912 C.ar      1 RES1    0.0000
     15 C14       -6.6852    1.9708   18.0923 C.ar      1 RES1    0.0000
     16 C15       -6.4761    0.8333   18.8397 C.ar      1 RES1    0.0000
     17 C16       -5.1926    0.5110   19.2471 C.ar      1 RES1    0.0000
     18 C17       -4.1301    1.3232   18.9105 C.ar      1 RES1    0.0000
     19 C18        0.2659    1.2464   17.9176 C.3       1 RES1    0.0000
     20 C19       -1.8742    1.9825   16.0070 C.2       1 RES1    0.0000
     21 O1        -0.9567    1.4641   15.4048 O.2       1 RES1    0.0000
     22 O2        -3.0832    2.1796   15.4178 O.3       1 RES1    0.0000
     23 C20       -3.1644    1.7523   14.0327 C.3       1 RES1    0.0000
     24 C21       -4.5939    1.8998   13.6108 C.3       1 RES1    0.0000
     25 N2        -5.9017    3.9925   17.0227 N.pl3     1 RES1    0.0000
     26 O3        -5.3359    5.0418   17.3404 O.2       1 RES1    0.0000
     27 O4        -6.7276    3.9170   16.1121 O.2       1 RES1    0.0000
     28 H1        -3.2915    3.9222   17.0604 H         1 RES1    0.0000
     29 H2        -3.2033    4.9681   19.1831 H         1 RES1    0.0000
     30 H3        -1.4331    4.4001   20.5737 H         1 RES1    0.0000
     31 H4         1.5957    3.7579   19.3974 H         1 RES1    0.0000
     32 H5         3.4112    3.4507   20.8617 H         1 RES1    0.0000
     33 H6         3.1573    2.0492   22.7444 H         1 RES1    0.0000
     34 H7         1.1163    1.0645   23.1319 H         1 RES1    0.0000
     35 H8        -0.7127    1.4098   21.6762 H         1 RES1    0.0000
     36 H9        -0.0425    0.5504   17.3022 H         1 RES1    0.0000
     37 H10        0.6010    0.8260   18.7390 H         1 RES1    0.0000
     38 H11        0.9961    1.7355   17.4754 H         1 RES1    0.0000
     39 H12       -3.2228    1.0738   19.1711 H         1 RES1    0.0000
     40 H13       -5.0366   -0.2896   19.7644 H         1 RES1    0.0000
     41 H14       -7.1986    0.2654   19.0785 H         1 RES1    0.0000
     42 H15       -7.5834    2.2349   17.8080 H         1 RES1    0.0000
     43 H16       -2.5359    2.3499   13.4906 H         1 RES1    0.0000
     44 H17       -2.8277    0.7954   14.0050 H         1 RES1    0.0000
     45 H18       -5.2115    1.3179   14.1593 H         1 RES1    0.0000
     46 H19       -4.8923    2.8585   13.7032 H         1 RES1    0.0000
     47 H20       -4.6947    1.6325   12.6727 H         1 RES1    0.0000
@<TRIPOS>BOND
     1    1    2 1
     2    2    3 2
     3    3    4 1
     4    4    5 1
     5    5    6 2
     6    6    1 1
     7    7    1 1
     8    8    7 ar
     9    9    8 ar
    10   10    9 ar
    11   11   10 ar
    12   12    7 ar
    13   13    4 1
    14   14   13 ar
    15   15   14 ar
    16   16   15 ar
    17   17   16 ar
    18   18   13 ar
    19   19    2 1
    20   20    3 1
    21   21   20 2
    22   22   20 1
    23   23   22 1
    24   24   23 1
    25   25   14 1
    26   26   25 2
    27   27   25 2
    28   28    4 1
    29   29    5 1
    30   30    6 1
    31   31    8 1
    32   32    9 1
    33   33   10 1
    34   34   11 1
    35   35   12 1
    36   36   19 1
    37   37   19 1
    38   38   19 1
    39   39   18 1
    40   40   17 1
    41   41   16 1
    42   42   15 1
    43   43   23 1
    44   44   23 1
    45   45   24 1
    46   46   24 1
    47   47   24 1
    48   11   12 ar
    49   17   18 ar
@<TRIPOS>SUBSTRUCTURE
     1 RES1 1

@<TRIPOS>CRYSIN
  11.4950    9.2810   17.2360  90.0000  95.8530  90.0000  14 1

