# MOL2 file generated by ConQuest
# Please check atom types

@<TRIPOS>MOLECULE
CIZSUB
    50    54     1
SMALL
NO_CHARGES
****
Generated from CSD

@<TRIPOS>ATOM
      1 C1        -0.2055    2.2049    8.9981 C.3       1 RES1    0.0000
      2 C2        -0.5541    1.4257   10.2346 C.ar      1 RES1    0.0000
      3 C3        -1.0024    0.1149   10.3154 C.ar      1 RES1    0.0000
      4 H1        -1.1244   -0.4049    9.5295 H         1 RES1    0.0000
      5 C4        -1.2678   -0.4211   11.5625 C.ar      1 RES1    0.0000
      6 H2        -1.5823   -1.3152   11.6323 H         1 RES1    0.0000
      7 C5        -1.0793    0.3340   12.7148 C.ar      1 RES1    0.0000
      8 H3        -1.2727   -0.0449   13.5643 H         1 RES1    0.0000
      9 C6        -0.6092    1.6393   12.6309 C.ar      1 RES1    0.0000
     10 H4        -0.4679    2.1529   13.4178 H         1 RES1    0.0000
     11 C7        -0.3475    2.1843   11.3783 C.ar      1 RES1    0.0000
     12 C8         0.1586    3.5767   11.0605 C.3       1 RES1    0.0000
     13 H5         1.1093    3.6503   11.3605 H         1 RES1    0.0000
     14 C9         0.1157    3.6360    9.4976 C.3       1 RES1    0.0000
     15 H6        -0.5635    4.2949    9.1766 H         1 RES1    0.0000
     16 C10        1.4534    3.8676    8.8514 C.2       1 RES1    0.0000
     17 C11        2.1696    5.1577    8.8349 C.ar      1 RES1    0.0000
     18 C12        1.4979    6.3347    9.1706 C.ar      1 RES1    0.0000
     19 H7         0.5794    6.3023    9.4085 H         1 RES1    0.0000
     20 C13        2.1665    7.5538    9.1585 C.ar      1 RES1    0.0000
     21 H8         1.6950    8.3466    9.3872 H         1 RES1    0.0000
     22 C14        3.5140    7.6364    8.8172 C.ar      1 RES1    0.0000
     23 C15        4.1730    6.4595    8.4591 C.ar      1 RES1    0.0000
     24 H9         5.0877    6.4963    8.2063 H         1 RES1    0.0000
     25 C16        3.5177    5.2376    8.4657 C.ar      1 RES1    0.0000
     26 H10        3.9870    4.4493    8.2177 H         1 RES1    0.0000
     27 C17       -0.8154    2.7804    6.7060 C.3       1 RES1    0.0000
     28 H11        0.1125    2.5613    6.4379 H         1 RES1    0.0000
     29 H12       -0.8682    3.7536    6.8789 H         1 RES1    0.0000
     30 C18       -1.7753    2.4015    5.5982 C.3       1 RES1    0.0000
     31 H13       -1.5313    2.8899    4.7718 H         1 RES1    0.0000
     32 H14       -1.6970    1.4319    5.4135 H         1 RES1    0.0000
     33 C19       -3.4857    2.0326    7.1622 C.3       1 RES1    0.0000
     34 H15       -3.4606    1.0549    7.0098 H         1 RES1    0.0000
     35 H16       -4.4116    2.2785    7.4110 H         1 RES1    0.0000
     36 C20       -2.5530    2.3845    8.3011 C.3       1 RES1    0.0000
     37 H17       -2.6140    3.3532    8.4980 H         1 RES1    0.0000
     38 H18       -2.8127    1.8862    9.1154 H         1 RES1    0.0000
     39 C21       -0.6549    4.6693   11.7361 C.3       1 RES1    0.0000
     40 H19       -0.2821    5.5446   11.5042 H         1 RES1    0.0000
     41 H20       -0.6215    4.5472   12.7078 H         1 RES1    0.0000
     42 H21       -1.5851    4.6190   11.4316 H         1 RES1    0.0000
     43 C22        4.2329    8.9633    8.8639 C.3       1 RES1    0.0000
     44 H22        3.6497    9.6636    8.5037 H         1 RES1    0.0000
     45 H23        5.0502    8.9113    8.3258 H         1 RES1    0.0000
     46 H24        4.4649    9.1770    9.7912 H         1 RES1    0.0000
     47 N1         1.9718    2.8192    8.3166 N.2       1 RES1    0.0000
     48 N2        -1.1728    2.0363    7.9205 N.3       1 RES1    0.0000
     49 O1         1.0735    1.7256    8.4660 O.3       1 RES1    0.0000
     50 O2        -3.1265    2.7084    5.9493 O.3       1 RES1    0.0000
@<TRIPOS>BOND
     1    1    2 1
     2    2    3 ar
     3    3    4 1
     4    5    3 ar
     5    6    5 1
     6    7    5 ar
     7    8    7 1
     8    9    7 ar
     9   10    9 1
    10   11    2 ar
    11   12   11 1
    12   13   12 1
    13   14    1 1
    14   15   14 1
    15   16   14 1
    16   17   16 1
    17   18   17 ar
    18   19   18 1
    19   20   18 ar
    20   21   20 1
    21   22   20 ar
    22   23   22 ar
    23   24   23 1
    24   25   17 ar
    25   26   25 1
    26   27   28 1
    27   29   27 1
    28   30   27 1
    29   31   30 1
    30   32   30 1
    31   33   34 1
    32   35   33 1
    33   36   33 1
    34   37   36 1
    35   38   36 1
    36   39   12 1
    37   40   39 1
    38   41   39 1
    39   42   39 1
    40   43   22 1
    41   44   43 1
    42   45   43 1
    43   46   43 1
    44   47   16 2
    45   48    1 1
    46   49    1 1
    47   50   30 1
    48    9   11 ar
    49   12   14 1
    50   23   25 ar
    51   27   48 1
    52   33   50 1
    53   36   48 1
    54   47   49 1
@<TRIPOS>SUBSTRUCTURE
     1 RES1 1

@<TRIPOS>CRYSIN
  14.2986    8.9777   15.0720  90.0000 109.2730  90.0000  13 1

