# MOL2 file generated by ConQuest
# Please check atom types

@<TRIPOS>MOLECULE
CMZOXB
    28    29     1
SMALL
NO_CHARGES
****
Generated from CSD

@<TRIPOS>ATOM
      1 N1         0.0296   -3.4487    6.3607 N.pl3     1 RES1    0.0000
      2 N2        -0.6016   -3.9566    7.3316 N.2       1 RES1    0.0000
      3 O1        -0.4671   -2.4905    5.7035 O.2       1 RES1    0.0000
      4 C1         1.3911   -3.8229    5.9509 C.ar      1 RES1    0.0000
      5 C2         1.6181   -4.1102    4.6223 C.ar      1 RES1    0.0000
      6 C3         2.9168   -4.3678    4.2270 C.ar      1 RES1    0.0000
      7 C4         3.9517   -4.3096    5.1352 C.ar      1 RES1    0.0000
      8 C5         3.6972   -4.0089    6.4572 C.ar      1 RES1    0.0000
      9 C6         2.4046   -3.7686    6.8768 C.ar      1 RES1    0.0000
     10 C7        -0.1223   -5.1663    7.9178 C.ar      1 RES1    0.0000
     11 C8         0.1100   -6.3269    7.1940 C.ar      1 RES1    0.0000
     12 C9         0.4001   -7.4928    7.8610 C.ar      1 RES1    0.0000
     13 C10        0.4628   -7.5644    9.2445 C.ar      1 RES1    0.0000
     14 C11        0.2124   -6.3926    9.9511 C.ar      1 RES1    0.0000
     15 C12       -0.0869   -5.2105    9.3092 C.ar      1 RES1    0.0000
     16 C13        0.7636   -8.8466    9.9659 C.3       1 RES1    0.0000
     17 H1         0.9112   -4.1577    4.0276 H         1 RES1    0.0000
     18 H2         4.8633   -4.5190    4.8427 H         1 RES1    0.0000
     19 H3         3.1302   -4.4622    3.2508 H         1 RES1    0.0000
     20 H4         4.3814   -3.9337    7.0411 H         1 RES1    0.0000
     21 H5         2.2217   -3.5946    7.7357 H         1 RES1    0.0000
     22 H6         0.0300   -6.2918    6.2107 H         1 RES1    0.0000
     23 H7         0.5734   -8.3100    7.3740 H         1 RES1    0.0000
     24 H8         0.2271   -6.4498   10.9042 H         1 RES1    0.0000
     25 H9        -0.2656   -4.4047    9.7389 H         1 RES1    0.0000
     26 H10        0.6582   -9.6187    9.5246 H         1 RES1    0.0000
     27 H11        1.7187   -8.9459   10.2575 H         1 RES1    0.0000
     28 H12        0.0940   -8.9597   10.7492 H         1 RES1    0.0000
@<TRIPOS>BOND
     1    1    2 2
     2    2   10 1
     3    3    1 1
     4    4    1 1
     5    5    4 ar
     6    6    5 ar
     7    7    6 ar
     8    8    7 ar
     9    9    4 ar
    10   10   11 ar
    11   11   12 ar
    12   12   13 ar
    13   13   14 ar
    14   14   15 ar
    15   15   10 ar
    16   16   13 1
    17   17    5 1
    18   18    7 1
    19   19    6 1
    20   20    8 1
    21   21    9 1
    22   22   11 1
    23   23   12 1
    24   24   14 1
    25   25   15 1
    26   26   16 1
    27   27   16 1
    28   28   16 1
    29    8    9 ar
@<TRIPOS>SUBSTRUCTURE
     1 RES1 1

@<TRIPOS>CRYSIN
   7.6350    7.6710   19.3360  90.0000  98.3000  90.0000  14 1

