# MOL2 file generated by ConQuest
# Please check atom types

@<TRIPOS>MOLECULE
CNOXPB
    27    27     1
SMALL
NO_CHARGES
****
Generated from CSD

@<TRIPOS>ATOM
      1 N1         0.7043    1.5575   10.3113 N.3       1 RES1    0.0000
      2 N2         0.3997    2.5078    9.3407 N.2       1 RES1    0.0000
      3 C1         1.3015    2.4707    8.4610 C.2       1 RES1    0.0000
      4 C2         2.3863    1.4242    8.6056 C.3       1 RES1    0.0000
      5 C3         2.0299    0.9708   10.0691 C.3       1 RES1    0.0000
      6 C4         1.2425    3.3659    7.3340 C.1       1 RES1    0.0000
      7 N3         1.2160    4.1024    6.4441 N.1       1 RES1    0.0000
      8 C5         2.1455    0.3176    7.5779 C.3       1 RES1    0.0000
      9 C6         3.7661    2.0429    8.4240 C.3       1 RES1    0.0000
     10 C7         1.7350   -0.4547   10.2490 C.1       1 RES1    0.0000
     11 N4         1.3750   -1.5139   10.4172 N.1       1 RES1    0.0000
     12 C8         2.9354    1.5242   11.1624 C.2       1 RES1    0.0000
     13 O1         4.1321    0.8799   11.4820 O.3       1 RES1    0.0000
     14 C9         4.7353   -0.1998   10.8361 C.2       1 RES1    0.0000
     15 O2         4.2862   -0.6814    9.8470 O.2       1 RES1    0.0000
     16 C10        5.9718   -0.6686   11.5325 C.3       1 RES1    0.0000
     17 C11        2.5693    2.6589   11.7713 C.2       1 RES1    0.0000
     18 N5         3.3339    3.3480   12.7537 N.pl3     1 RES1    0.0000
     19 O3         2.9450    4.4508   13.0935 O.2       1 RES1    0.0000
     20 O4         4.3332    2.8318   13.2432 O.2       1 RES1    0.0000
     21 H1         1.1631   -0.1422    7.5947 H         1 RES1    0.0000
     22 H2         2.1455    0.7505    6.4828 H         1 RES1    0.0000
     23 H3         2.6813   -0.3330    7.5779 H         1 RES1    0.0000
     24 H4         3.9094    2.7998    9.1271 H         1 RES1    0.0000
     25 H5         3.7180    2.4719    7.5795 H         1 RES1    0.0000
     26 H6         4.4572    1.3730    8.4778 H         1 RES1    0.0000
     27 H7         1.9324    3.0112   11.7259 H         1 RES1    0.0000
@<TRIPOS>BOND
     1    1    2 1
     2    2    3 2
     3    3    4 1
     4    4    5 1
     5    5    1 1
     6    6    3 1
     7    7    6 3
     8    8    4 1
     9    9    4 1
    10   10    5 1
    11   11   10 3
    12   12    5 1
    13   13   12 1
    14   14   13 1
    15   15   14 2
    16   16   14 1
    17   17   12 2
    18   18   17 1
    19   19   18 2
    20   20   18 2
    21   21    8 1
    22   22    8 1
    23   23    8 1
    24   24    9 1
    25   25    9 1
    26   26    9 1
    27   27   17 1
@<TRIPOS>SUBSTRUCTURE
     1 RES1 1

@<TRIPOS>CRYSIN
  12.0400   12.8080   16.8210  90.0000  90.0000  90.0000  61 1

