# MOL2 file generated by ConQuest
# Please check atom types

@<TRIPOS>MOLECULE
COBCEC
    74    76     1
SMALL
NO_CHARGES
****
Generated from CSD

@<TRIPOS>ATOM
      1 O1         3.1961    8.0709    3.4783 O.3       1 RES1    0.0000
      2 O2         2.5560    6.3027    4.7138 O.3       1 RES1    0.0000
      3 O3         2.9773    4.7268    7.1409 O.3       1 RES1    0.0000
      4 O4         5.3026    4.1687    8.8630 O.3       1 RES1    0.0000
      5 O5        -1.1055    4.8858   -0.8623 O.2       1 RES1    0.0000
      6 O6        -2.7378    5.4942    0.3396 O.2       1 RES1    0.0000
      7 N1        -1.5582    5.4045    0.1277 N.pl3     1 RES1    0.0000
      8 C1        -0.6263    5.9476    1.1282 C.ar      1 RES1    0.0000
      9 C2         3.3672    3.4587    7.6433 C.3       1 RES1    0.0000
     10 C3         3.4596    6.6038    5.7792 C.3       1 RES1    0.0000
     11 C4        -1.1076    6.6772    2.1682 C.ar      1 RES1    0.0000
     12 C5         2.0772    7.4149    4.0560 C.3       1 RES1    0.0000
     13 C6        -0.2211    7.1585    3.1015 C.ar      1 RES1    0.0000
     14 C7         4.0435    3.5308    8.9847 C.3       1 RES1    0.0000
     15 C8         6.0447    4.1325   10.0695 C.3       1 RES1    0.0000
     16 C9         1.1116    6.9008    2.9975 C.ar      1 RES1    0.0000
     17 C10        3.9723    5.3454    6.3611 C.3       1 RES1    0.0000
     18 C11        2.9595    9.4565    3.3056 C.3       1 RES1    0.0000
     19 C12        0.7122    5.6765    0.9729 C.ar      1 RES1    0.0000
     20 C13        1.5793    6.1587    1.9339 C.ar      1 RES1    0.0000
     21 H1        -0.5416    7.6353    3.8309 H         1 RES1    0.0000
     22 H2        -2.1010    6.8133    2.2380 H         1 RES1    0.0000
     23 H3         1.0019    5.1852    0.2106 H         1 RES1    0.0000
     24 H4         2.5258    6.1093    1.8035 H         1 RES1    0.0000
     25 H5         2.5834    9.8048    4.2521 H         1 RES1    0.0000
     26 H6         2.3828    9.6050    2.5539 H         1 RES1    0.0000
     27 H7         1.6222    8.0636    4.8182 H         1 RES1    0.0000
     28 H8         4.2390    7.1461    5.3843 H         1 RES1    0.0000
     29 H9         3.0005    7.1224    6.3716 H         1 RES1    0.0000
     30 H10        4.6140    5.5004    6.8324 H         1 RES1    0.0000
     31 H11        4.2519    4.7950    5.5422 H         1 RES1    0.0000
     32 H12        3.9442    3.0250    7.0035 H         1 RES1    0.0000
     33 H13        2.5897    2.8809    7.8460 H         1 RES1    0.0000
     34 H14        4.1253    2.6348    9.2941 H         1 RES1    0.0000
     35 H15        3.5423    3.9790    9.7812 H         1 RES1    0.0000
     36 H16        5.5198    4.5446   10.8212 H         1 RES1    0.0000
     37 H17        6.2007    3.2368   10.3341 H         1 RES1    0.0000
     38 O1A        7.1199    6.1930    9.6861 O.3       1 RES1    0.0000
     39 O2A        7.7600    7.9612    8.4507 O.3       1 RES1    0.0000
     40 O3A        7.3387    9.5371    6.0235 O.3       1 RES1    0.0000
     41 O4A        5.0133   10.0952    4.3015 O.3       1 RES1    0.0000
     42 O5A       11.4214    9.3781   14.0267 O.2       1 RES1    0.0000
     43 O6A       13.0538    8.7698   12.8248 O.2       1 RES1    0.0000
     44 N1A       11.8741    8.8595   13.0368 N.pl3     1 RES1    0.0000
     45 C1A       10.9422    8.3163   12.0363 C.ar      1 RES1    0.0000
     46 C2A        6.9487   10.8052    5.5212 C.3       1 RES1    0.0000
     47 C3A        6.8563    7.6602    7.3853 C.3       1 RES1    0.0000
     48 C4A       11.4235    7.5867   10.9963 C.ar      1 RES1    0.0000
     49 C5A        8.2387    6.8491    9.1085 C.3       1 RES1    0.0000
     50 C6A       10.5370    7.1054   10.0629 C.ar      1 RES1    0.0000
     51 C7A        6.2724   10.7331    4.1797 C.3       1 RES1    0.0000
     52 C8A        4.2712   10.1315    3.0950 C.3       1 RES1    0.0000
     53 C9A        9.2043    7.3631   10.1669 C.ar      1 RES1    0.0000
     54 C10A       6.3437    8.9185    6.8034 C.3       1 RES1    0.0000
     55 C11A       7.3564    4.8075    9.8589 C.3       1 RES1    0.0000
     56 C12A       9.6038    8.5874   12.1916 C.ar      1 RES1    0.0000
     57 C13A       8.7367    8.1053   11.2306 C.ar      1 RES1    0.0000
     58 H1A       10.8575    6.6286    9.3336 H         1 RES1    0.0000
     59 H2A       12.4170    7.4506   10.9265 H         1 RES1    0.0000
     60 H3A        9.3141    9.0787   12.9538 H         1 RES1    0.0000
     61 H4A        7.7901    8.1546   11.3609 H         1 RES1    0.0000
     62 H5A        7.7325    4.4591    8.9123 H         1 RES1    0.0000
     63 H6A        7.9331    4.6589   10.6106 H         1 RES1    0.0000
     64 H7A        8.6938    6.2003    8.3463 H         1 RES1    0.0000
     65 H8A        6.0769    7.1178    7.7802 H         1 RES1    0.0000
     66 H9A        7.3154    7.1415    6.7929 H         1 RES1    0.0000
     67 H10A       5.7019    8.7636    6.3321 H         1 RES1    0.0000
     68 H11A       6.0640    9.4689    7.6222 H         1 RES1    0.0000
     69 H12A       6.3717   11.2389    6.1610 H         1 RES1    0.0000
     70 H13A       7.7262   11.3830    5.3184 H         1 RES1    0.0000
     71 H14A       6.1907   11.6291    3.8704 H         1 RES1    0.0000
     72 H15A       6.7736   10.2849    3.3833 H         1 RES1    0.0000
     73 H16A       4.7961    9.7194    2.3433 H         1 RES1    0.0000
     74 H17A       4.1153   11.0271    2.8304 H         1 RES1    0.0000
@<TRIPOS>BOND
     1    1   12 1
     2    2   10 1
     3    3    9 1
     4    4   14 1
     5    5    7 2
     6    6    7 2
     7    7    8 1
     8    8   11 ar
     9    9   14 1
    10   10   17 1
    11   11   13 ar
    12   12    2 1
    13   13   16 ar
    14   14   34 1
    15   15    4 1
    16   16   12 1
    17   17    3 1
    18   18    1 1
    19   19    8 ar
    20   20   16 ar
    21   21   13 1
    22   22   11 1
    23   23   19 1
    24   24   20 1
    25   25   18 1
    26   26   18 1
    27   27   12 1
    28   28   10 1
    29   29   10 1
    30   30   17 1
    31   31   17 1
    32   32    9 1
    33   33    9 1
    34   35   14 1
    35   36   15 1
    36   37   15 1
    37   38   49 1
    38   39   47 1
    39   40   46 1
    40   41   51 1
    41   42   44 2
    42   43   44 2
    43   44   45 1
    44   45   48 ar
    45   46   51 1
    46   47   54 1
    47   48   50 ar
    48   49   39 1
    49   50   53 ar
    50   51   71 1
    51   52   18 1
    52   53   49 1
    53   54   40 1
    54   55   15 1
    55   56   45 ar
    56   57   53 ar
    57   58   50 1
    58   59   48 1
    59   60   56 1
    60   61   57 1
    61   62   55 1
    62   63   55 1
    63   64   49 1
    64   65   47 1
    65   66   47 1
    66   67   54 1
    67   68   54 1
    68   69   46 1
    69   70   46 1
    70   72   51 1
    71   73   52 1
    72   74   52 1
    73   19   20 ar
    74   38   55 1
    75   41   52 1
    76   56   57 ar
@<TRIPOS>SUBSTRUCTURE
     1 RES1 1

@<TRIPOS>CRYSIN
   7.1660    7.3060   13.5150  90.4750 103.0070  93.8230   2 1

