# MOL2 file generated by ConQuest
# Please check atom types

@<TRIPOS>MOLECULE
COBKIN01
    25    25     1
SMALL
NO_CHARGES
****
Generated from CSD

@<TRIPOS>ATOM
      1 O1         2.5438    4.4338   -0.1495 O.3       1 RES1    0.0000
      2 O2         5.1946    0.8638    1.3295 O.2       1 RES1    0.0000
      3 O3         5.2308    3.9922    1.6123 O.3       1 RES1    0.0000
      4 O4         3.3150    3.7792    2.7524 O.2       1 RES1    0.0000
      5 N1         2.8837    3.0523   -0.4149 N.3       1 RES1    0.0000
      6 N2         5.0218    1.3712   -0.8535 N.am      1 RES1    0.0000
      7 C1         3.6536    2.5332    0.7401 C.3       1 RES1    0.0000
      8 C2         2.2394    2.1833    0.5644 C.3       1 RES1    0.0000
      9 C3         4.7193    1.5158    0.4012 C.2       1 RES1    0.0000
     10 C4         4.0180    3.5055    1.8266 C.2       1 RES1    0.0000
     11 C5         5.7334    4.9942    2.5543 C.3       1 RES1    0.0000
     12 C6         5.1488    6.3357    2.2590 C.3       1 RES1    0.0000
     13 C7         1.5690    4.7992   -1.1102 C.3       1 RES1    0.0000
     14 H1         4.7227    1.8463   -1.5326 H         1 RES1    0.0000
     15 H2         5.5518    0.8263   -1.0466 H         1 RES1    0.0000
     16 H3         1.6609    2.6210    1.1712 H         1 RES1    0.0000
     17 H4         1.9945    1.3299    0.2243 H         1 RES1    0.0000
     18 H5         1.8303    4.6352   -2.0559 H         1 RES1    0.0000
     19 H6         0.7550    4.2350   -1.0716 H         1 RES1    0.0000
     20 H7         1.4673    5.7456   -1.0093 H         1 RES1    0.0000
     21 H8         5.5679    4.6998    3.5262 H         1 RES1    0.0000
     22 H9         6.7231    5.1259    2.3549 H         1 RES1    0.0000
     23 H10        5.2320    6.5719    1.2211 H         1 RES1    0.0000
     24 H11        5.5743    6.8947    2.9032 H         1 RES1    0.0000
     25 H12        4.2136    6.2621    2.5917 H         1 RES1    0.0000
@<TRIPOS>BOND
     1    1    5 1
     2    2    9 2
     3    3   10 1
     4    4   10 2
     5    5    7 1
     6    6    9 1
     7    7    8 1
     8    8    5 1
     9    9    7 1
    10   10    7 1
    11   11    3 1
    12   12   11 1
    13   13    1 1
    14   14    6 1
    15   15    6 1
    16   16    8 1
    17   17    8 1
    18   18   13 1
    19   19   13 1
    20   20   13 1
    21   21   11 1
    22   22   11 1
    23   23   12 1
    24   24   12 1
    25   25   12 1
@<TRIPOS>SUBSTRUCTURE
     1 RES1 1

@<TRIPOS>CRYSIN
   6.0170   13.4660   12.4600  90.0000  90.0000  73.5000  14 3

