# MOL2 file generated by ConQuest
# Please check atom types

@<TRIPOS>MOLECULE
COCNBZ01
    39    40     1
SMALL
NO_CHARGES
****
Generated from CSD

@<TRIPOS>ATOM
      1 C1        -2.4686    6.1157    4.4857 C.2       1 RES1    0.0000
      2 C2        -2.3952    4.7926    4.2819 C.2       1 RES1    0.0000
      3 C3        -1.9485    4.2950    2.9637 C.3       1 RES1    0.0000
      4 C4        -3.1972    4.1891    2.0742 C.3       1 RES1    0.0000
      5 C5        -4.0353    5.4798    2.0261 C.3       1 RES1    0.0000
      6 C6        -5.0017    5.7718    3.2133 C.3       1 RES1    0.0000
      7 C7        -4.6915    6.9675    4.1398 C.3       1 RES1    0.0000
      8 C8        -3.6110    6.7185    5.2134 C.3       1 RES1    0.0000
      9 C9         0.0671    1.2023    2.5313 C.ar      1 RES1    0.0000
     10 C10        0.8344    0.5648    1.5554 C.ar      1 RES1    0.0000
     11 C11        1.3237   -0.7004    1.8309 C.ar      1 RES1    0.0000
     12 C12        1.0885   -1.3619    3.0255 C.ar      1 RES1    0.0000
     13 C13        0.3414   -0.6801    3.9718 C.ar      1 RES1    0.0000
     14 C14       -0.1705    0.5872    3.7556 C.ar      1 RES1    0.0000
     15 C15       -0.4837    2.5614    2.2151 C.2       1 RES1    0.0000
     16 N1         2.1308   -1.3936    0.8141 N.pl3     1 RES1    0.0000
     17 N2         0.0641   -1.3496    5.2480 N.pl3     1 RES1    0.0000
     18 O1        -1.3463    2.9690    3.1342 O.3       1 RES1    0.0000
     19 O2        -0.1600    3.1968    1.2539 O.2       1 RES1    0.0000
     20 O3         2.2982   -0.8481   -0.2483 O.2       1 RES1    0.0000
     21 O4         2.5771   -2.4778    1.0983 O.2       1 RES1    0.0000
     22 O5         0.2319   -2.5499    5.3011 O.2       1 RES1    0.0000
     23 O6        -0.3239   -0.6719    6.1683 O.2       1 RES1    0.0000
     24 H1        -1.8946    6.7699    3.8594 H         1 RES1    0.0000
     25 H2        -2.9965    4.1236    4.8699 H         1 RES1    0.0000
     26 H3        -1.2184    4.9539    2.4980 H         1 RES1    0.0000
     27 H4        -2.8810    3.9306    1.0563 H         1 RES1    0.0000
     28 H5        -3.8120    3.3652    2.4411 H         1 RES1    0.0000
     29 H6        -4.6342    5.4171    1.1168 H         1 RES1    0.0000
     30 H7        -3.3792    6.3429    1.8580 H         1 RES1    0.0000
     31 H8        -5.9770    5.9863    2.7759 H         1 RES1    0.0000
     32 H9        -5.1221    4.8748    3.8124 H         1 RES1    0.0000
     33 H10       -5.5952    7.2522    4.6612 H         1 RES1    0.0000
     34 H11       -4.4098    7.8113    3.5369 H         1 RES1    0.0000
     35 H12       -3.3650    7.6556    5.7038 H         1 RES1    0.0000
     36 H13       -3.9905    6.0331    5.9571 H         1 RES1    0.0000
     37 H14        1.0452    1.0583    0.6091 H         1 RES1    0.0000
     38 H15        1.4746   -2.3520    3.2182 H         1 RES1    0.0000
     39 H16       -0.7485    1.0819    4.5314 H         1 RES1    0.0000
@<TRIPOS>BOND
     1    1    2 2
     2    2    3 1
     3    3    4 1
     4    4    5 1
     5    5    6 1
     6    6    7 1
     7    7    8 1
     8    8    1 1
     9    9   10 ar
    10   10   11 ar
    11   11   12 ar
    12   12   13 ar
    13   13   14 ar
    14   14    9 ar
    15   15    9 1
    16   16   11 1
    17   17   13 1
    18   18    3 1
    19   19   15 2
    20   20   16 2
    21   21   16 2
    22   22   17 2
    23   23   17 2
    24   24    1 1
    25   25    2 1
    26   26    3 1
    27   27    4 1
    28   28    4 1
    29   29    5 1
    30   30    5 1
    31   31    6 1
    32   32    6 1
    33   33    7 1
    34   34    7 1
    35   35    8 1
    36   36    8 1
    37   37   10 1
    38   38   12 1
    39   39   14 1
    40   15   18 1
@<TRIPOS>SUBSTRUCTURE
     1 RES1 1

@<TRIPOS>CRYSIN
  10.9630    5.6560   14.8730 104.9100 122.7500  76.1800   2 1

