# MOL2 file generated by ConQuest
# Please check atom types

@<TRIPOS>MOLECULE
COCNBZ10
    39    40     1
SMALL
NO_CHARGES
****
Generated from CSD

@<TRIPOS>ATOM
      1 C1        -2.4693    6.1111    4.4833 C.2       1 RES1    0.0000
      2 C2        -2.3919    4.7988    4.2844 C.2       1 RES1    0.0000
      3 C3        -1.9540    4.3038    2.9637 C.3       1 RES1    0.0000
      4 C4        -3.1949    4.1932    2.0829 C.3       1 RES1    0.0000
      5 C5        -4.0360    5.4920    2.0285 C.3       1 RES1    0.0000
      6 C6        -4.9957    5.7815    3.2182 C.3       1 RES1    0.0000
      7 C7        -4.6873    6.9652    4.1374 C.3       1 RES1    0.0000
      8 C8        -3.6090    6.7162    5.2109 C.3       1 RES1    0.0000
      9 C9         0.0751    1.2053    2.5301 C.ar      1 RES1    0.0000
     10 C10        0.8381    0.5620    1.5591 C.ar      1 RES1    0.0000
     11 C11        1.3219   -0.6939    1.8346 C.ar      1 RES1    0.0000
     12 C12        1.0856   -1.3453    3.0280 C.ar      1 RES1    0.0000
     13 C13        0.3474   -0.6740    3.9644 C.ar      1 RES1    0.0000
     14 C14       -0.1670    0.5847    3.7507 C.ar      1 RES1    0.0000
     15 C15       -0.4745    2.5662    2.2126 C.2       1 RES1    0.0000
     16 N1         2.1332   -1.3961    0.8129 N.pl3     1 RES1    0.0000
     17 N2         0.0643   -1.3398    5.2517 N.pl3     1 RES1    0.0000
     18 O1        -1.3456    2.9661    3.1354 O.3       1 RES1    0.0000
     19 O2        -0.1561    3.1977    1.2515 O.2       1 RES1    0.0000
     20 O3         2.2993   -0.8429   -0.2533 O.2       1 RES1    0.0000
     21 O4         2.5770   -2.4823    1.1020 O.2       1 RES1    0.0000
     22 O5         0.2316   -2.5429    5.3060 O.2       1 RES1    0.0000
     23 O6        -0.3238   -0.6670    6.1721 O.2       1 RES1    0.0000
     24 H1        -1.9176    6.6845    3.8680 H         1 RES1    0.0000
     25 H2        -2.9580    4.1526    4.7810 H         1 RES1    0.0000
     26 H3        -1.2607    4.8889    2.5338 H         1 RES1    0.0000
     27 H4        -2.9354    3.9730    1.1872 H         1 RES1    0.0000
     28 H5        -3.7802    3.4242    2.4362 H         1 RES1    0.0000
     29 H6        -4.5714    5.4286    1.2552 H         1 RES1    0.0000
     30 H7        -3.3929    6.3148    1.9210 H         1 RES1    0.0000
     31 H8        -5.8732    5.9812    2.8389 H         1 RES1    0.0000
     32 H9        -5.1442    4.9207    3.7309 H         1 RES1    0.0000
     33 H10       -5.5032    7.2295    4.5895 H         1 RES1    0.0000
     34 H11       -4.3874    7.7488    3.5468 H         1 RES1    0.0000
     35 H12       -3.3416    7.5957    5.6075 H         1 RES1    0.0000
     36 H13       -4.0289    6.0482    5.8237 H         1 RES1    0.0000
     37 H14        1.0094    0.9905    0.7388 H         1 RES1    0.0000
     38 H15        1.4248   -2.2409    3.1651 H         1 RES1    0.0000
     39 H16       -0.6287    1.0037    4.4153 H         1 RES1    0.0000
@<TRIPOS>BOND
     1    1    2 2
     2    2    3 1
     3    3    4 1
     4    4    5 1
     5    5    6 1
     6    6    7 1
     7    7    8 1
     8    8    1 1
     9    9   10 ar
    10   10   11 ar
    11   11   12 ar
    12   12   13 ar
    13   13   14 ar
    14   14    9 ar
    15   15    9 1
    16   16   11 1
    17   17   13 1
    18   18    3 1
    19   19   15 2
    20   20   16 2
    21   21   16 2
    22   22   17 2
    23   23   17 2
    24   24    1 1
    25   25    2 1
    26   26    3 1
    27   27    4 1
    28   28    4 1
    29   29    5 1
    30   30    5 1
    31   31    6 1
    32   32    6 1
    33   33    7 1
    34   34    7 1
    35   35    8 1
    36   36    8 1
    37   37   10 1
    38   38   12 1
    39   39   14 1
    40   15   18 1
@<TRIPOS>SUBSTRUCTURE
     1 RES1 1

@<TRIPOS>CRYSIN
  10.9630    5.6560   14.8730 104.9100 122.7500  76.1800   2 1

