# MOL2 file generated by ConQuest
# Please check atom types

@<TRIPOS>MOLECULE
CODCAA
    41    44     1
SMALL
NO_CHARGES
****
Generated from CSD

@<TRIPOS>ATOM
      1 N1         4.8711    0.3993   13.6077 N.3       1 RES1    0.0000
      2 O1         2.7231    3.5409   15.8828 O.2       1 RES1    0.0000
      3 O2         1.0234    1.3743   13.8117 O.3       1 RES1    0.0000
      4 O3         0.3844    1.4543   15.9822 O.3       1 RES1    0.0000
      5 O4         3.4971   -0.0755   13.3593 O.3       1 RES1    0.0000
      6 O5         5.5827    3.6776   13.3955 O.3       1 RES1    0.0000
      7 C1         1.0036    2.1999   14.9570 C.3       1 RES1    0.0000
      8 H1         0.4915    3.1929   14.7974 H         1 RES1    0.0000
      9 C2         2.4267    2.4769   15.3886 C.2       1 RES1    0.0000
     10 C3         3.4274    1.3554   15.2311 C.3       1 RES1    0.0000
     11 H2         3.7707    1.1332   16.1035 H         1 RES1    0.0000
     12 C4         2.8603    0.0540   14.6211 C.3       1 RES1    0.0000
     13 H3         3.0298   -0.6835   15.2254 H         1 RES1    0.0000
     14 C5         1.3718    0.0890   14.3676 C.3       1 RES1    0.0000
     15 H4         1.0270   -0.5306   13.7418 H         1 RES1    0.0000
     16 C6         0.5385    0.0639   15.6425 C.3       1 RES1    0.0000
     17 H5        -0.3235   -0.3535   15.4848 H         1 RES1    0.0000
     18 H6         0.9977   -0.4182   16.3474 H         1 RES1    0.0000
     19 C7         4.6239    1.6945   14.3000 C.3       1 RES1    0.0000
     20 H7         5.4947    1.8977   14.8639 H         1 RES1    0.0000
     21 C8         4.4625    2.7980   13.2083 C.3       1 RES1    0.0000
     22 H8         3.5946    3.2828   13.2363 H         1 RES1    0.0000
     23 C9         4.5711    2.0245   11.8887 C.3       1 RES1    0.0000
     24 H9         3.6929    1.7943   11.5465 H         1 RES1    0.0000
     25 H10        5.0450    2.5426   11.2183 H         1 RES1    0.0000
     26 C10        5.3509    0.7834   12.2701 C.3       1 RES1    0.0000
     27 H11        5.1888    0.0702   11.6330 H         1 RES1    0.0000
     28 H12        6.3024    0.9723   12.2916 H         1 RES1    0.0000
     29 C11        5.4125    5.0870   13.1174 C.3       1 RES1    0.0000
     30 C12        4.9511    5.3298   11.7148 C.3       1 RES1    0.0000
     31 H13        5.5563    4.9062   11.1008 H         1 RES1    0.0000
     32 H14        4.9305    6.2742   11.5443 H         1 RES1    0.0000
     33 H15        4.0707    4.9647   11.5997 H         1 RES1    0.0000
     34 C13        4.5865    5.7103   14.1565 C.3       1 RES1    0.0000
     35 H16        4.9525    5.5079   15.0213 H         1 RES1    0.0000
     36 H17        3.6907    5.3694   14.1011 H         1 RES1    0.0000
     37 H18        4.5755    6.6619   14.0279 H         1 RES1    0.0000
     38 C14        6.8261    5.6257   13.2651 C.3       1 RES1    0.0000
     39 H19        7.1321    5.4782   14.1632 H         1 RES1    0.0000
     40 H20        6.8313    6.5674   13.0766 H         1 RES1    0.0000
     41 H21        7.4072    5.1724   12.6508 H         1 RES1    0.0000
@<TRIPOS>BOND
     1    1    5 1
     2    2    9 2
     3    3    7 1
     4    4    7 1
     5    5   12 1
     6    6   21 1
     7    7    8 1
     8    9    7 1
     9   10    9 1
    10   11   10 1
    11   12   10 1
    12   13   12 1
    13   14    3 1
    14   15   14 1
    15   16    4 1
    16   17   16 1
    17   18   16 1
    18   19    1 1
    19   20   19 1
    20   21   19 1
    21   22   21 1
    22   23   21 1
    23   24   23 1
    24   25   23 1
    25   26    1 1
    26   27   26 1
    27   28   26 1
    28   29    6 1
    29   30   29 1
    30   31   30 1
    31   32   30 1
    32   33   30 1
    33   34   29 1
    34   35   34 1
    35   36   34 1
    36   37   34 1
    37   38   29 1
    38   39   38 1
    39   40   38 1
    40   41   38 1
    41   10   19 1
    42   12   14 1
    43   14   16 1
    44   23   26 1
@<TRIPOS>SUBSTRUCTURE
     1 RES1 1

@<TRIPOS>CRYSIN
   7.3360    8.9940   22.1750  90.0000  90.0000  90.0000  19 1

