# MOL2 file generated by ConQuest
# Please check atom types

@<TRIPOS>MOLECULE
CODYAX
    30    31     1
SMALL
NO_CHARGES
****
Generated from CSD

@<TRIPOS>ATOM
      1 O1         5.7734    1.9824   -0.2503 O.3       1 RES1    0.0000
      2 H1         6.2518    2.6036   -0.4867 H         1 RES1    0.0000
      3 O2         6.7890    4.3955   -0.1831 O.2       1 RES1    0.0000
      4 O3         6.0742    5.8470    1.3428 O.3       1 RES1    0.0000
      5 H2         6.6681    6.3060    1.0144 H         1 RES1    0.0000
      6 O4        -2.6406    3.0440    8.8106 O.2       1 RES1    0.0000
      7 O5        -2.2774    5.1403    8.5592 O.2       1 RES1    0.0000
      8 N1         2.4861    3.6080    3.9148 N.2       1 RES1    0.0000
      9 N2         1.8379    2.6819    4.4532 N.2       1 RES1    0.0000
     10 N3        -2.0432    3.9728    8.3060 N.pl3     1 RES1    0.0000
     11 C1         5.0790    3.7187    1.2920 C.ar      1 RES1    0.0000
     12 C2         4.9951    2.4298    0.7445 C.ar      1 RES1    0.0000
     13 C3         4.0446    1.5279    1.2435 C.ar      1 RES1    0.0000
     14 H3         3.9697    0.6801    0.8701 H         1 RES1    0.0000
     15 C4         3.2278    1.8913    2.2771 C.ar      1 RES1    0.0000
     16 H4         2.6030    1.2843    2.6038 H         1 RES1    0.0000
     17 C5         3.3182    3.1652    2.8513 C.ar      1 RES1    0.0000
     18 C6         4.2218    4.0747    2.3422 C.ar      1 RES1    0.0000
     19 H5         4.2632    4.9319    2.6986 H         1 RES1    0.0000
     20 C7         0.9251    3.1065    5.4627 C.ar      1 RES1    0.0000
     21 C8         0.6052    4.4259    5.7428 C.ar      1 RES1    0.0000
     22 H6         1.0352    5.1162    5.2916 H         1 RES1    0.0000
     23 C9        -0.3520    4.7129    6.6911 C.ar      1 RES1    0.0000
     24 H7        -0.5708    5.5945    6.8918 H         1 RES1    0.0000
     25 C10       -0.9797    3.6694    7.3390 C.ar      1 RES1    0.0000
     26 C11       -0.6651    2.3535    7.0962 C.ar      1 RES1    0.0000
     27 H8        -1.0902    1.6692    7.5595 H         1 RES1    0.0000
     28 C12        0.2961    2.0737    6.1484 C.ar      1 RES1    0.0000
     29 H9         0.5239    1.1910    5.9679 H         1 RES1    0.0000
     30 C13        6.0499    4.6773    0.7577 C.2       1 RES1    0.0000
@<TRIPOS>BOND
     1    1    2 1
     2    3   30 2
     3    4    5 1
     4    6   10 2
     5    7   10 2
     6    8    9 2
     7    9   20 1
     8   10   25 1
     9   11   12 ar
    10   12    1 1
    11   13   12 ar
    12   14   13 1
    13   15   13 ar
    14   16   15 1
    15   17    8 1
    16   18   11 ar
    17   19   18 1
    18   20   21 ar
    19   21   22 1
    20   23   21 ar
    21   24   23 1
    22   25   23 ar
    23   26   25 ar
    24   27   26 1
    25   28   20 ar
    26   29   28 1
    27   30    4 1
    28   11   30 1
    29   15   17 ar
    30   17   18 ar
    31   26   28 ar
@<TRIPOS>SUBSTRUCTURE
     1 RES1 1

@<TRIPOS>CRYSIN
   4.9319   11.6649   21.6190  90.0000  94.9910  90.0000  14 1

