# MOL2 file generated by ConQuest
# Please check atom types

@<TRIPOS>MOLECULE
COFTIA10
    28    29     1
SMALL
USER_CHARGES
****
Generated from CSD

@<TRIPOS>ATOM
      1 C1         7.7236   -2.4025    3.5299 C.ar      1 RES1    0.0000
      2 C2         8.9763   -2.3182    4.1359 C.ar      1 RES1    0.0000
      3 C3         9.2510   -1.2879    5.0077 C.ar      1 RES1    0.0000
      4 C4         8.2917   -0.3288    5.2830 C.ar      1 RES1    0.0000
      5 C5         7.0482   -0.4071    4.6908 C.ar      1 RES1    0.0000
      6 C6         6.7615   -1.4541    3.7997 C.ar      1 RES1    0.0000
      7 C7         4.2126    5.1314    7.9951 C.ar      1 RES1    0.0000
      8 C8         4.1568    4.0975    7.0777 C.ar      1 RES1    0.0000
      9 C9         5.2940    3.3628    6.8411 C.ar      1 RES1    0.0000
     10 C10        6.4908    3.6417    7.4790 C.ar      1 RES1    0.0000
     11 C11        6.5080    4.6863    8.3881 C.ar      1 RES1    0.0000
     12 C12        5.3872    5.4246    8.6469 C.ar      1 RES1    0.0000
     13 N1         5.2265    2.2921    5.8753 N.pl3     1 RES1    1.0000
     14 N2         6.2072    1.4719    5.8310 N.2       1 RES1    0.0000
     15 N3         6.0352    0.5353    4.9039 N.pl3     1 RES1    0.0000
     16 O1         4.2003    2.1876    5.0879 O.2       1 RES1   -1.0000
     17 O2         5.5264   -1.4481    3.2393 O.3       1 RES1    0.0000
     18 H1         7.4239   -3.2013    2.8491 H         1 RES1    0.0000
     19 H2         9.7017   -3.0055    3.9906 H         1 RES1    0.0000
     20 H3        10.1389   -1.1917    5.3813 H         1 RES1    0.0000
     21 H4         8.4616    0.4024    5.9154 H         1 RES1    0.0000
     22 H5         5.2001    0.5258    4.4971 H         1 RES1    0.0000
     23 H6         5.3694   -2.2316    2.8532 H         1 RES1    0.0000
     24 H7         3.4874    5.6169    8.1543 H         1 RES1    0.0000
     25 H8         3.3327    3.8934    6.5879 H         1 RES1    0.0000
     26 H9         7.2678    3.1930    7.2673 H         1 RES1    0.0000
     27 H10        7.2973    4.8572    8.8157 H         1 RES1    0.0000
     28 H11        5.3796    6.1320    9.2432 H         1 RES1    0.0000
@<TRIPOS>BOND
     1    1    2 ar
     2    2    3 ar
     3    3    4 ar
     4    4    5 ar
     5    5    6 ar
     6    6    1 ar
     7    7    8 ar
     8    8    9 ar
     9    9   10 ar
    10   10   11 ar
    11   11   12 ar
    12   12    7 ar
    13   13    9 1
    14   14   13 2
    15   15    5 1
    16   16   13 1
    17   17    6 1
    18   18    1 1
    19   19    2 1
    20   20    3 1
    21   21    4 1
    22   22   15 1
    23   23   17 1
    24   24    7 1
    25   25    8 1
    26   26   10 1
    27   27   11 1
    28   28   12 1
    29   14   15 1
@<TRIPOS>SUBSTRUCTURE
     1 RES1 1

@<TRIPOS>CRYSIN
   6.5690   11.8700   13.8890  90.0000  94.9500  90.0000 231 1

