# MOL2 file generated by ConQuest
# Please check atom types

@<TRIPOS>MOLECULE
COGGEM
    26    27     1
SMALL
NO_CHARGES
****
Generated from CSD

@<TRIPOS>ATOM
      1 O1        -2.0662    4.9422    2.6268 O.2       1 RES1    0.0000
      2 O2        -1.6846    6.2597    4.3048 O.2       1 RES1    0.0000
      3 O3         2.8255    8.4770    3.8584 O.2       1 RES1    0.0000
      4 O4         3.7724    7.9880    1.9626 O.2       1 RES1    0.0000
      5 N1        -0.3221    4.9496    0.5283 N.2       1 RES1    0.0000
      6 N2         0.3562    5.7725    1.4210 N.pl3     1 RES1    0.0000
      7 N3         0.7085    6.9105    3.3030 N.2       1 RES1    0.0000
      8 N4        -1.3868    5.7420    3.2408 N.pl3     1 RES1    0.0000
      9 N5         2.8626    7.8974    2.7803 N.pl3     1 RES1    0.0000
     10 C1        -0.1079    6.1373    2.6697 C.2       1 RES1    0.0000
     11 C2         1.5856    6.3710    1.2683 C.2       1 RES1    0.0000
     12 H1         2.1773    6.3231    0.5269 H         1 RES1    0.0000
     13 C3         1.7480    7.0476    2.4362 C.2       1 RES1    0.0000
     14 O1B        2.0662    4.8809   -2.6268 O.2       1 RES1    0.0000
     15 O2B        1.6846    3.5634   -4.3048 O.2       1 RES1    0.0000
     16 O3B       -2.8255    1.3461   -3.8584 O.2       1 RES1    0.0000
     17 O4B       -3.7724    1.8351   -1.9626 O.2       1 RES1    0.0000
     18 N1B        0.3221    4.8735   -0.5283 N.2       1 RES1    0.0000
     19 N2B       -0.3562    4.0506   -1.4210 N.pl3     1 RES1    0.0000
     20 N3B       -0.7085    2.9126   -3.3030 N.2       1 RES1    0.0000
     21 N4B        1.3868    4.0811   -3.2408 N.pl3     1 RES1    0.0000
     22 N5B       -2.8626    1.9257   -2.7803 N.pl3     1 RES1    0.0000
     23 C1B        0.1079    3.6858   -2.6697 C.2       1 RES1    0.0000
     24 C2B       -1.5856    3.4521   -1.2683 C.2       1 RES1    0.0000
     25 H1B       -2.1773    3.5000   -0.5269 H         1 RES1    0.0000
     26 C3B       -1.7480    2.7755   -2.4362 C.2       1 RES1    0.0000
@<TRIPOS>BOND
     1    1    8 2
     2    2    8 2
     3    3    9 2
     4    4    9 2
     5    5    6 1
     6    6   10 1
     7    7   10 2
     8    8   10 1
     9    9   13 1
    10   11    6 1
    11   12   11 1
    12   13    7 1
    13   14   21 2
    14   15   21 2
    15   16   22 2
    16   17   22 2
    17   18    5 2
    18   19   18 1
    19   20   23 2
    20   21   23 1
    21   22   26 1
    22   23   19 1
    23   24   19 1
    24   25   24 1
    25   26   20 1
    26   11   13 2
    27   24   26 2
@<TRIPOS>SUBSTRUCTURE
     1 RES1 1

@<TRIPOS>CRYSIN
   6.6320    9.8231    9.8467  90.0000 104.5960  90.0000  14 1

