# MOL2 file generated by ConQuest
# Please check atom types

@<TRIPOS>MOLECULE
COHTIE
    97    99     1
SMALL
NO_CHARGES
****
Generated from CSD

@<TRIPOS>ATOM
      1 C1         0.9087    4.0922    5.1610 C.ar      1 RES1    0.0000
      2 C2         2.2135    4.3846    4.7960 C.ar      1 RES1    0.0000
      3 H1         2.5849    4.0380    3.9943 H         1 RES1    0.0000
      4 C3         2.9619    5.1986    5.6322 C.ar      1 RES1    0.0000
      5 H2         3.8606    5.4082    5.4072 H         1 RES1    0.0000
      6 C4         2.3958    5.7134    6.8101 C.ar      1 RES1    0.0000
      7 C5         1.0807    5.3822    7.1644 C.ar      1 RES1    0.0000
      8 H3         0.7030    5.7241    7.9661 H         1 RES1    0.0000
      9 C6         0.3298    4.5511    6.3377 C.ar      1 RES1    0.0000
     10 H4        -0.5568    4.3026    6.5720 H         1 RES1    0.0000
     11 C7         3.2351    6.6311    7.6468 C.2       1 RES1    0.0000
     12 C8         3.2210    8.2369    9.4265 C.3       1 RES1    0.0000
     13 H5         3.9650    8.6352    8.8922 H         1 RES1    0.0000
     14 C9         3.8035    7.5288   10.6357 C.3       1 RES1    0.0000
     15 H6         3.0770    7.1625   11.1812 H         1 RES1    0.0000
     16 H7         4.3237    8.1656   11.1687 H         1 RES1    0.0000
     17 H8         4.3873    6.7997   10.3370 H         1 RES1    0.0000
     18 C10        2.2136    9.3365    9.7808 C.3       1 RES1    0.0000
     19 H9         2.6448    9.8645   10.5126 H         1 RES1    0.0000
     20 C11        0.9204    8.7756   10.3907 C.3       1 RES1    0.0000
     21 H10        0.4959    8.1656    9.7514 H         1 RES1    0.0000
     22 H11        0.3085    9.5145   10.5938 H         1 RES1    0.0000
     23 H12        1.1316    8.2894   11.2149 H         1 RES1    0.0000
     24 C12        1.9190   10.3643    8.6485 C.3       1 RES1    0.0000
     25 H13        1.3156   11.0597    9.0378 H         1 RES1    0.0000
     26 C13        1.1692    9.7386    7.4612 C.3       1 RES1    0.0000
     27 H14        1.7939    9.2072    6.9232 H         1 RES1    0.0000
     28 H15        0.7822   10.4493    6.9082 H         1 RES1    0.0000
     29 H16        0.4540    9.1602    7.7962 H         1 RES1    0.0000
     30 C14        3.2100   11.1019    8.1711 C.3       1 RES1    0.0000
     31 H17        3.7558   10.3981    7.7174 H         1 RES1    0.0000
     32 C15        4.0930   11.6069    9.3240 C.3       1 RES1    0.0000
     33 H18        3.5565   12.1610    9.9283 H         1 RES1    0.0000
     34 H19        4.8307   12.1396    8.9609 H         1 RES1    0.0000
     35 H20        4.4551   10.8420    9.8177 H         1 RES1    0.0000
     36 C16        3.0024   12.2194    7.0825 C.3       1 RES1    0.0000
     37 H21        2.2255   11.9390    6.5195 H         1 RES1    0.0000
     38 C17        4.2438   12.2105    6.1708 C.3       1 RES1    0.0000
     39 H22        4.0707   12.7585    5.3772 H         1 RES1    0.0000
     40 H23        4.4405   11.2902    5.8959 H         1 RES1    0.0000
     41 H24        5.0106   12.5750    6.6595 H         1 RES1    0.0000
     42 C18        2.6788   13.6408    7.6262 C.3       1 RES1    0.0000
     43 H25        3.4338   13.9068    8.2255 H         1 RES1    0.0000
     44 C19        1.3993   13.6195    8.4867 C.3       1 RES1    0.0000
     45 H26        0.6719   13.1982    7.9811 H         1 RES1    0.0000
     46 H27        1.1470   14.5385    8.7210 H         1 RES1    0.0000
     47 H28        1.5647   13.1086    9.3059 H         1 RES1    0.0000
     48 C20        2.5111   14.7805    6.5545 C.3       1 RES1    0.0000
     49 H29        1.9861   15.4989    7.0113 H         1 RES1    0.0000
     50 C21        1.6272   14.3131    5.3816 C.3       1 RES1    0.0000
     51 H30        1.3033   15.0934    4.8854 H         1 RES1    0.0000
     52 H31        0.8640   13.8086    5.7296 H         1 RES1    0.0000
     53 H32        2.1534   13.7403    4.7842 H         1 RES1    0.0000
     54 C22        3.8374   15.4712    6.0833 C.3       1 RES1    0.0000
     55 H33        4.3725   14.7562    5.6346 H         1 RES1    0.0000
     56 C23        4.6952   15.9535    7.2712 C.3       1 RES1    0.0000
     57 H34        4.1516   16.5191    7.8586 H         1 RES1    0.0000
     58 H35        5.4578   16.4679    6.9357 H         1 RES1    0.0000
     59 H36        5.0215   15.1788    7.7743 H         1 RES1    0.0000
     60 C24        3.6565   16.6002    5.0148 C.3       1 RES1    0.0000
     61 H37        2.9199   16.3142    4.4024 H         1 RES1    0.0000
     62 C25        4.9393   16.6881    4.1762 C.3       1 RES1    0.0000
     63 H38        4.8186   17.3472    3.4632 H         1 RES1    0.0000
     64 H39        5.1315   15.8105    3.7812 H         1 RES1    0.0000
     65 H40        5.6869   16.9588    4.7498 H         1 RES1    0.0000
     66 C26        3.2958   18.0233    5.5378 C.3       1 RES1    0.0000
     67 H41        4.0820   18.3588    6.0552 H         1 RES1    0.0000
     68 C27        2.0757   18.0673    6.4751 C.3       1 RES1    0.0000
     69 H42        1.8414   18.9991    6.6626 H         1 RES1    0.0000
     70 H43        2.2917   17.6118    7.3144 H         1 RES1    0.0000
     71 H44        1.3170   17.6204    6.0452 H         1 RES1    0.0000
     72 C28        3.0830   18.9726    4.3611 C.ar      1 RES1    0.0000
     73 C29        1.9320   18.8966    3.5738 C.ar      1 RES1    0.0000
     74 H45        1.2729   18.2478    3.7850 H         1 RES1    0.0000
     75 C30        1.7203   19.7448    2.4877 C.ar      1 RES1    0.0000
     76 H46        0.9186   19.6735    1.9822 H         1 RES1    0.0000
     77 C31        2.6870   20.7014    2.1390 C.ar      1 RES1    0.0000
     78 C32        3.8415   20.7910    2.9301 C.ar      1 RES1    0.0000
     79 H47        4.5062   21.4364    2.7177 H         1 RES1    0.0000
     80 C33        4.0272   19.9476    4.0231 C.ar      1 RES1    0.0000
     81 H48        4.8124   20.0363    4.5511 H         1 RES1    0.0000
     82 C34        2.4939   21.5640    0.9380 C.ar      1 RES1    0.0000
     83 C35        3.5365   21.7664    0.0212 C.ar      1 RES1    0.0000
     84 H49        4.3934   21.3980    0.1993 H         1 RES1    0.0000
     85 C36        3.3357   22.4980   -1.1429 C.ar      1 RES1    0.0000
     86 H50        4.0485   22.6102   -1.7616 H         1 RES1    0.0000
     87 C37        2.0916   23.0661   -1.4029 C.ar      1 RES1    0.0000
     88 H51        1.9535   23.5664   -2.1990 H         1 RES1    0.0000
     89 C38        1.0506   22.8988   -0.4949 C.ar      1 RES1    0.0000
     90 H52        0.2039   23.2932   -0.6636 H         1 RES1    0.0000
     91 C39        1.2533   22.1497    0.6630 C.ar      1 RES1    0.0000
     92 H53        0.5369   22.0340    1.2767 H         1 RES1    0.0000
     93 N1         0.0839    3.2953    4.2274 N.pl3     1 RES1    0.0000
     94 O1         2.5180    7.2441    8.6029 O.3       1 RES1    0.0000
     95 O2         4.4182    6.8232    7.4475 O.2       1 RES1    0.0000
     96 O3        -1.0734    3.0302    4.5648 O.2       1 RES1    0.0000
     97 O4         0.5881    2.9555    3.1626 O.2       1 RES1    0.0000
@<TRIPOS>BOND
     1    1    2 ar
     2    2    3 1
     3    4    2 ar
     4    5    4 1
     5    6    4 ar
     6    7    6 ar
     7    8    7 1
     8    9    1 ar
     9   10    9 1
    10   11    6 1
    11   12   13 1
    12   14   12 1
    13   15   14 1
    14   16   14 1
    15   17   14 1
    16   18   12 1
    17   19   18 1
    18   20   18 1
    19   21   20 1
    20   22   20 1
    21   23   20 1
    22   24   18 1
    23   25   24 1
    24   26   24 1
    25   27   26 1
    26   28   26 1
    27   29   26 1
    28   30   24 1
    29   31   30 1
    30   32   30 1
    31   33   32 1
    32   34   32 1
    33   35   32 1
    34   36   30 1
    35   37   36 1
    36   38   36 1
    37   39   38 1
    38   40   38 1
    39   41   38 1
    40   42   36 1
    41   43   42 1
    42   44   42 1
    43   45   44 1
    44   46   44 1
    45   47   44 1
    46   48   42 1
    47   49   48 1
    48   50   48 1
    49   51   50 1
    50   52   50 1
    51   53   50 1
    52   54   48 1
    53   55   54 1
    54   56   54 1
    55   57   56 1
    56   58   56 1
    57   59   56 1
    58   60   54 1
    59   61   60 1
    60   62   60 1
    61   63   62 1
    62   64   62 1
    63   65   62 1
    64   66   60 1
    65   67   66 1
    66   68   66 1
    67   69   68 1
    68   70   68 1
    69   71   68 1
    70   72   66 1
    71   73   72 ar
    72   74   73 1
    73   75   73 ar
    74   76   75 1
    75   77   75 ar
    76   78   77 ar
    77   79   78 1
    78   80   72 ar
    79   81   80 1
    80   82   77 1
    81   83   82 ar
    82   84   83 1
    83   85   83 ar
    84   86   85 1
    85   87   85 ar
    86   88   87 1
    87   89   87 ar
    88   90   89 1
    89   91   82 ar
    90   92   91 1
    91   93    1 1
    92   94   11 1
    93   95   11 2
    94   96   93 2
    95   97   93 2
    96    7    9 ar
    97   12   94 1
    98   78   80 ar
    99   89   91 ar
@<TRIPOS>SUBSTRUCTURE
     1 RES1 1

@<TRIPOS>CRYSIN
   6.2932   42.6850    6.7240  90.0000 111.6670  90.0000   4 1

