# MOL2 file generated by ConQuest
# Please check atom types

@<TRIPOS>MOLECULE
COHTOK
    97    99     1
SMALL
NO_CHARGES
****
Generated from CSD

@<TRIPOS>ATOM
      1 O1        -9.6559    4.7626   -5.7970 O.2       1 RES1    0.0000
      2 O2        -9.8754    6.9160   -5.6740 O.2       1 RES1    0.0000
      3 O3        -4.1987    5.0295   -1.7003 O.3       1 RES1    0.0000
      4 O4        -4.5211    7.2374   -1.3546 O.2       1 RES1    0.0000
      5 N1        -9.2875    5.8683   -5.4250 N.pl3     1 RES1    0.0000
      6 C1        10.0782    6.6920    7.9991 C.ar      1 RES1    0.0000
      7 H1         9.5468    7.4409    8.2417 H         1 RES1    0.0000
      8 C2        11.3753    6.5839    8.4856 C.ar      1 RES1    0.0000
      9 H2        11.7183    7.2542    9.0643 H         1 RES1    0.0000
     10 C3        12.1681    5.5118    8.1373 C.ar      1 RES1    0.0000
     11 H3        13.0588    5.4492    8.4610 H         1 RES1    0.0000
     12 C4        11.6543    4.5296    7.3128 C.ar      1 RES1    0.0000
     13 H4        12.1932    3.7842    7.0749 H         1 RES1    0.0000
     14 C5        10.3563    4.6230    6.8303 C.ar      1 RES1    0.0000
     15 H5        10.0116    3.9378    6.2700 H         1 RES1    0.0000
     16 C6         9.5506    5.7161    7.1611 C.ar      1 RES1    0.0000
     17 C7         8.1663    5.8523    6.6109 C.ar      1 RES1    0.0000
     18 C8         7.5910    7.0996    6.4000 C.ar      1 RES1    0.0000
     19 H6         8.0798    7.8813    6.6305 H         1 RES1    0.0000
     20 C9         6.3144    7.2299    5.8575 C.ar      1 RES1    0.0000
     21 H7         5.9444    8.0976    5.7432 H         1 RES1    0.0000
     22 C10        5.5700    6.1175    5.4805 C.ar      1 RES1    0.0000
     23 C11        6.1515    4.8591    5.7076 C.ar      1 RES1    0.0000
     24 H8         5.6660    4.0767    5.4739 H         1 RES1    0.0000
     25 C12        7.4154    4.7280    6.2638 C.ar      1 RES1    0.0000
     26 H9         7.7742    3.8616    6.4112 H         1 RES1    0.0000
     27 C13        4.2172    6.1926    4.7900 C.3       1 RES1    0.0000
     28 H10        3.6545    5.4572    5.1678 H         1 RES1    0.0000
     29 C14        4.4092    5.8851    3.2717 C.3       1 RES1    0.0000
     30 H11        4.8990    5.0156    3.2078 H         1 RES1    0.0000
     31 C15        3.0896    5.7269    2.4647 C.3       1 RES1    0.0000
     32 H12        2.7304    6.6465    2.3058 H         1 RES1    0.0000
     33 C16        1.9756    4.9190    3.1735 C.3       1 RES1    0.0000
     34 H13        1.8076    5.3559    4.0569 H         1 RES1    0.0000
     35 C17        0.6283    4.9280    2.3856 C.3       1 RES1    0.0000
     36 H14        0.8064    4.5023    1.4980 H         1 RES1    0.0000
     37 C18        0.0677    6.3500    2.1023 C.3       1 RES1    0.0000
     38 H15        0.8238    6.9014    1.7511 H         1 RES1    0.0000
     39 C19       -1.0628    6.3748    1.0255 C.3       1 RES1    0.0000
     40 H16       -1.8382    5.8703    1.4053 H         1 RES1    0.0000
     41 C20       -0.6779    5.6746   -0.3086 C.3       1 RES1    0.0000
     42 H17       -0.3960    4.7425   -0.0809 H         1 RES1    0.0000
     43 C21       -1.8412    5.5649   -1.3295 C.3       1 RES1    0.0000
     44 H18       -2.0441    6.4894   -1.6510 H         1 RES1    0.0000
     45 C22       -3.1207    5.0116   -0.6967 C.3       1 RES1    0.0000
     46 H19       -3.3829    5.5995    0.0692 H         1 RES1    0.0000
     47 C23       -4.8128    6.1999   -1.9013 C.2       1 RES1    0.0000
     48 C24       -5.9373    6.0800   -2.8842 C.ar      1 RES1    0.0000
     49 C25       -6.3968    4.8402   -3.3211 C.ar      1 RES1    0.0000
     50 H20       -5.9643    4.0448   -3.0312 H         1 RES1    0.0000
     51 C26       -7.4852    4.7642   -4.1787 C.ar      1 RES1    0.0000
     52 H21       -7.8125    3.9253   -4.4806 H         1 RES1    0.0000
     53 C27       -8.0776    5.9415   -4.5794 C.ar      1 RES1    0.0000
     54 C28       -7.6224    7.1884   -4.1912 C.ar      1 RES1    0.0000
     55 H22       -8.0394    7.9804   -4.5086 H         1 RES1    0.0000
     56 C29       -6.5428    7.2516   -3.3277 C.ar      1 RES1    0.0000
     57 H23       -6.2158    8.0953   -3.0371 H         1 RES1    0.0000
     58 C30        3.4810    7.5001    5.0575 C.3       1 RES1    0.0000
     59 H24        3.3726    7.6219    6.0242 H         1 RES1    0.0000
     60 H25        2.5990    7.4716    4.6307 H         1 RES1    0.0000
     61 H26        3.9985    8.2467    4.6896 H         1 RES1    0.0000
     62 C31        5.2929    6.9530    2.6103 C.3       1 RES1    0.0000
     63 H27        6.1118    7.0699    3.1357 H         1 RES1    0.0000
     64 H28        4.8058    7.8028    2.5721 H         1 RES1    0.0000
     65 H29        5.5252    6.6681    1.7010 H         1 RES1    0.0000
     66 C32        3.4367    5.1328    1.0867 C.3       1 RES1    0.0000
     67 H30        3.9195    4.2884    1.2081 H         1 RES1    0.0000
     68 H31        3.9999    5.7633    0.5915 H         1 RES1    0.0000
     69 H32        2.6119    4.9667    0.5842 H         1 RES1    0.0000
     70 C33        2.4260    3.4775    3.4533 C.3       1 RES1    0.0000
     71 H33        2.4274    2.9670    2.6163 H         1 RES1    0.0000
     72 H34        1.8087    3.0604    4.0892 H         1 RES1    0.0000
     73 H35        3.3296    3.4849    3.8332 H         1 RES1    0.0000
     74 C34       -0.4220    4.0676    3.0891 C.3       1 RES1    0.0000
     75 H36       -0.5623    4.4022    3.9995 H         1 RES1    0.0000
     76 H37       -0.1110    3.1389    3.1269 H         1 RES1    0.0000
     77 H38       -1.2655    4.1097    2.5913 H         1 RES1    0.0000
     78 C35       -0.4191    7.0176    3.3972 C.3       1 RES1    0.0000
     79 H39       -1.2941    6.6522    3.6434 H         1 RES1    0.0000
     80 H40       -0.4962    7.9849    3.2564 H         1 RES1    0.0000
     81 H41        0.2226    6.8423    4.1172 H         1 RES1    0.0000
     82 C36       -1.5429    7.8095    0.7781 C.3       1 RES1    0.0000
     83 H42       -1.8873    8.1875    1.6142 H         1 RES1    0.0000
     84 H43       -2.2541    7.8040    0.1045 H         1 RES1    0.0000
     85 H44       -0.7938    8.3537    0.4576 H         1 RES1    0.0000
     86 C37        0.5182    6.3563   -0.9835 C.3       1 RES1    0.0000
     87 H45        0.8786    5.7690   -1.6804 H         1 RES1    0.0000
     88 H46        1.2120    6.5350   -0.3149 H         1 RES1    0.0000
     89 H47        0.2280    7.2019   -1.3861 H         1 RES1    0.0000
     90 C38       -1.4389    4.7334   -2.5563 C.3       1 RES1    0.0000
     91 H48       -0.7592    5.2171   -3.0710 H         1 RES1    0.0000
     92 H49       -2.2267    4.5797   -3.1195 H         1 RES1    0.0000
     93 H50       -1.0743    3.8718   -2.2617 H         1 RES1    0.0000
     94 C39       -3.0541    3.5792   -0.2120 C.3       1 RES1    0.0000
     95 H51       -2.3759    3.5031    0.4915 H         1 RES1    0.0000
     96 H52       -2.8161    2.9921   -0.9594 H         1 RES1    0.0000
     97 H53       -3.9272    3.3153    0.1457 H         1 RES1    0.0000
@<TRIPOS>BOND
     1    1    5 2
     2    2    5 2
     3    3   45 1
     4    4   47 2
     5    5   53 1
     6    6    7 1
     7    8    6 ar
     8    9    8 1
     9   10    8 ar
    10   11   10 1
    11   12   10 ar
    12   13   12 1
    13   14   12 ar
    14   15   14 1
    15   16    6 ar
    16   17   16 1
    17   18   17 ar
    18   19   18 1
    19   20   18 ar
    20   21   20 1
    21   22   20 ar
    22   23   22 ar
    23   24   23 1
    24   25   17 ar
    25   26   25 1
    26   27   22 1
    27   28   27 1
    28   29   27 1
    29   30   29 1
    30   31   29 1
    31   32   31 1
    32   33   31 1
    33   34   33 1
    34   35   33 1
    35   36   35 1
    36   37   35 1
    37   38   37 1
    38   39   37 1
    39   40   39 1
    40   41   39 1
    41   42   41 1
    42   43   41 1
    43   44   43 1
    44   45   43 1
    45   46   45 1
    46   47    3 1
    47   48   47 1
    48   49   48 ar
    49   50   49 1
    50   51   49 ar
    51   52   51 1
    52   53   51 ar
    53   54   53 ar
    54   55   54 1
    55   56   48 ar
    56   57   56 1
    57   58   27 1
    58   59   58 1
    59   60   58 1
    60   61   58 1
    61   62   29 1
    62   63   62 1
    63   64   62 1
    64   65   62 1
    65   66   31 1
    66   67   66 1
    67   68   66 1
    68   69   66 1
    69   70   33 1
    70   71   70 1
    71   72   70 1
    72   73   70 1
    73   74   35 1
    74   75   74 1
    75   76   74 1
    76   77   74 1
    77   78   37 1
    78   79   78 1
    79   80   78 1
    80   81   78 1
    81   82   39 1
    82   83   82 1
    83   84   82 1
    84   85   82 1
    85   86   41 1
    86   87   86 1
    87   88   86 1
    88   89   86 1
    89   90   43 1
    90   91   90 1
    91   92   90 1
    92   93   90 1
    93   94   45 1
    94   95   94 1
    95   96   94 1
    96   97   94 1
    97   14   16 ar
    98   23   25 ar
    99   54   56 ar
@<TRIPOS>SUBSTRUCTURE
     1 RES1 1

@<TRIPOS>CRYSIN
  10.0610   11.3810   15.5460  90.0000 108.8210  90.0000   4 1

