# MOL2 file generated by ConQuest
# Please check atom types

@<TRIPOS>MOLECULE
COJHEP
    44    48     1
SMALL
NO_CHARGES
****
Generated from CSD

@<TRIPOS>ATOM
      1 O1         4.3218   10.4360    3.3237 O.3       1 RES1    0.0000
      2 N1         4.1964   11.7965    3.5615 N.am      1 RES1    0.0000
      3 C1         3.4369    9.6931    4.2659 C.3       1 RES1    0.0000
      4 H1         3.5765   10.0908    5.1506 H         1 RES1    0.0000
      5 C2         1.9957    9.9466    3.9039 C.ar      1 RES1    0.0000
      6 C3         1.2658   10.8110    4.7085 C.ar      1 RES1    0.0000
      7 H2         1.6474   11.1434    5.4885 H         1 RES1    0.0000
      8 C4        -0.0296   11.1852    4.3622 C.ar      1 RES1    0.0000
      9 H3        -0.5113   11.7634    4.9083 H         1 RES1    0.0000
     10 C5        -0.5903   10.6961    3.2112 C.ar      1 RES1    0.0000
     11 H4        -1.4511   10.9511    2.9678 H         1 RES1    0.0000
     12 C6         0.1210    9.8274    2.4167 C.ar      1 RES1    0.0000
     13 H5        -0.2779    9.4861    1.6490 H         1 RES1    0.0000
     14 C7         1.4215    9.4471    2.7334 C.ar      1 RES1    0.0000
     15 C8         2.2168    8.5481    1.8454 C.3       1 RES1    0.0000
     16 H6         3.0356    9.0028    1.5936 H         1 RES1    0.0000
     17 H7         1.7104    8.3829    1.0351 H         1 RES1    0.0000
     18 C9         2.5700    7.2207    2.4804 C.3       1 RES1    0.0000
     19 H8         1.7635    6.8571    2.8788 H         1 RES1    0.0000
     20 H9         2.8355    6.6142    1.7715 H         1 RES1    0.0000
     21 C10        3.6493    7.2050    3.5301 C.ar      1 RES1    0.0000
     22 C11        4.3199    5.9950    3.7344 C.ar      1 RES1    0.0000
     23 H10        4.0791    5.2605    3.2168 H         1 RES1    0.0000
     24 C12        5.3104    5.8427    4.6565 C.ar      1 RES1    0.0000
     25 H11        5.7204    5.0151    4.7712 H         1 RES1    0.0000
     26 C13        5.6994    6.9209    5.4175 C.ar      1 RES1    0.0000
     27 H12        6.3848    6.8369    6.0397 H         1 RES1    0.0000
     28 C14        5.0523    8.1336    5.2418 C.ar      1 RES1    0.0000
     29 H13        5.3153    8.8611    5.7582 H         1 RES1    0.0000
     30 C15        4.0285    8.2991    4.3224 C.ar      1 RES1    0.0000
     31 C16        3.5283   12.6705    2.7065 C.2       1 RES1    0.0000
     32 O2         2.9534   12.3795    1.6993 O.2       1 RES1    0.0000
     33 C17        3.7345   14.0014    3.3684 C.ar      1 RES1    0.0000
     34 C18        4.4965   13.8359    4.4914 C.ar      1 RES1    0.0000
     35 C19        4.8596   12.4068    4.6207 C.2       1 RES1    0.0000
     36 O3         5.5459   11.8317    5.4259 O.2       1 RES1    0.0000
     37 C20        3.2887   15.2438    2.9684 C.ar      1 RES1    0.0000
     38 H14        2.7688   15.3513    2.2046 H         1 RES1    0.0000
     39 C21        3.6518   16.3252    3.7584 C.ar      1 RES1    0.0000
     40 H15        3.3727   17.1782    3.5173 H         1 RES1    0.0000
     41 C22        4.4113   16.1618    4.8848 C.ar      1 RES1    0.0000
     42 H16        4.6311   16.9075    5.3951 H         1 RES1    0.0000
     43 C23        4.8596   14.9164    5.2832 C.ar      1 RES1    0.0000
     44 H17        5.3808   14.8073    6.0464 H         1 RES1    0.0000
@<TRIPOS>BOND
     1    1    2 1
     2    2   31 1
     3    3    1 1
     4    4    3 1
     5    5    3 1
     6    6    5 ar
     7    7    6 1
     8    8    6 ar
     9    9    8 1
    10   10    8 ar
    11   11   10 1
    12   12   10 ar
    13   13   12 1
    14   14    5 ar
    15   15   14 1
    16   16   15 1
    17   17   15 1
    18   18   15 1
    19   19   18 1
    20   20   18 1
    21   21   18 1
    22   22   21 ar
    23   23   22 1
    24   24   22 ar
    25   25   24 1
    26   26   24 ar
    27   27   26 1
    28   28   26 ar
    29   29   28 1
    30   30    3 1
    31   31   32 2
    32   33   31 1
    33   34   33 ar
    34   35    2 1
    35   36   35 2
    36   37   33 ar
    37   38   37 1
    38   39   37 ar
    39   40   39 1
    40   41   39 ar
    41   42   41 1
    42   43   34 ar
    43   44   43 1
    44   12   14 ar
    45   21   30 ar
    46   28   30 ar
    47   34   35 1
    48   41   43 ar
@<TRIPOS>SUBSTRUCTURE
     1 RES1 1

@<TRIPOS>CRYSIN
  12.3497   25.3030    5.5954  90.0000  90.0000  90.0000  33 1

