# MOL2 file generated by ConQuest
# Please check atom types

@<TRIPOS>MOLECULE
COJXUW
    31    32     1
SMALL
NO_CHARGES
****
Generated from CSD

@<TRIPOS>ATOM
      1 C1         2.3349    6.9367    5.6402 C.3       1 RES1    0.0000
      2 H1         1.5382    7.4828    5.8076 H         1 RES1    0.0000
      3 H2         2.2049    6.4117    4.8225 H         1 RES1    0.0000
      4 H3         3.1147    7.5202    5.5336 H         1 RES1    0.0000
      5 C2         1.8764    4.8729    7.0359 C.2       1 RES1    0.0000
      6 C3         3.3086    5.1435    8.5704 C.2       1 RES1    0.0000
      7 C4         3.4651    6.2184    7.7585 C.2       1 RES1    0.0000
      8 H4         4.0764    6.9394    7.8576 H         1 RES1    0.0000
      9 C5         0.7514    4.3787    6.1928 C.3       1 RES1    0.0000
     10 H5         0.3035    5.1547    5.7723 H         1 RES1    0.0000
     11 H6         0.0895    3.9291    6.7760 H         1 RES1    0.0000
     12 C6         1.1838    3.4012    5.0919 C.3       1 RES1    0.0000
     13 H7         1.5045    2.5526    5.5118 H         1 RES1    0.0000
     14 C7         0.0215    3.0949    4.1686 C.ar      1 RES1    0.0000
     15 C8        -0.5689    1.8423    4.1461 C.ar      1 RES1    0.0000
     16 H8        -0.2429    1.1544    4.7146 H         1 RES1    0.0000
     17 C9        -1.6402    1.5894    3.2913 C.ar      1 RES1    0.0000
     18 H9        -2.0396    0.7281    3.2759 H         1 RES1    0.0000
     19 C10       -2.1227    2.5840    2.4690 C.ar      1 RES1    0.0000
     20 H10       -2.8647    2.4113    1.9016 H         1 RES1    0.0000
     21 C11       -1.5312    3.8293    2.4672 C.ar      1 RES1    0.0000
     22 H11       -1.8540    4.5099    1.8881 H         1 RES1    0.0000
     23 C12       -0.4625    4.0836    3.3149 C.ar      1 RES1    0.0000
     24 H12       -0.0559    4.9422    3.3133 H         1 RES1    0.0000
     25 N1         2.5531    6.0323    6.7726 N.pl3     1 RES1    0.0000
     26 N2         3.9910    4.9262    9.8113 N.pl3     1 RES1    0.0000
     27 N3         2.3314    4.2957    8.1353 N.2       1 RES1    0.0000
     28 O1         2.2556    4.0029    4.3710 O.3       1 RES1    0.0000
     29 H13        2.6550    3.4160    3.9216 H         1 RES1    0.0000
     30 O2         3.7421    3.9124   10.4514 O.2       1 RES1    0.0000
     31 O3         4.7814    5.8016   10.1826 O.2       1 RES1    0.0000
@<TRIPOS>BOND
     1    1    2 1
     2    3    1 1
     3    4    1 1
     4    5    9 1
     5    6    7 2
     6    7    8 1
     7    9   10 1
     8   11    9 1
     9   12    9 1
    10   13   12 1
    11   14   12 1
    12   15   14 ar
    13   16   15 1
    14   17   15 ar
    15   18   17 1
    16   19   17 ar
    17   20   19 1
    18   21   19 ar
    19   22   21 1
    20   23   14 ar
    21   24   23 1
    22   25    1 1
    23   26    6 1
    24   27    5 2
    25   28   12 1
    26   29   28 1
    27   30   26 2
    28   31   26 2
    29    5   25 1
    30    6   27 1
    31    7   25 1
    32   21   23 ar
@<TRIPOS>SUBSTRUCTURE
     1 RES1 1

@<TRIPOS>CRYSIN
   9.5950   12.0748   10.5260  90.0000  99.5550  90.0000  14 1

