# MOL2 file generated by ConQuest
# Please check atom types

@<TRIPOS>MOLECULE
COJXOQ
    31    32     1
SMALL
NO_CHARGES
****
Generated from CSD

@<TRIPOS>ATOM
      1 C1         8.8615    8.0033    4.1194 C.ar      1 RES1    0.0000
      2 H1         8.7159    7.2624    3.5429 H         1 RES1    0.0000
      3 C2        10.1227    8.2166    4.6678 C.ar      1 RES1    0.0000
      4 H2        10.8343    7.6222    4.4579 H         1 RES1    0.0000
      5 C3        10.3486    9.2835    5.5130 C.ar      1 RES1    0.0000
      6 H3        11.2102    9.4213    5.8881 H         1 RES1    0.0000
      7 C4         9.3131   10.1511    5.8110 C.ar      1 RES1    0.0000
      8 H4         9.4643   10.8890    6.3912 H         1 RES1    0.0000
      9 C5         8.0519    9.9462    5.2642 C.ar      1 RES1    0.0000
     10 H5         7.3461   10.5465    5.4731 H         1 RES1    0.0000
     11 C6         7.8102    8.8707    4.4124 C.ar      1 RES1    0.0000
     12 C7         6.4337    8.6872    3.8045 C.3       1 RES1    0.0000
     13 H6         5.7441    8.9802    4.4670 H         1 RES1    0.0000
     14 O1         6.1560    7.3581    3.4088 O.3       1 RES1    0.0000
     15 H7         6.3384    6.8345    4.0399 H         1 RES1    0.0000
     16 C8         6.3039    9.5471    2.5341 C.3       1 RES1    0.0000
     17 H8         6.5357   10.4855    2.7495 H         1 RES1    0.0000
     18 H9         6.9464    9.2231    1.8543 H         1 RES1    0.0000
     19 C9         4.9245    9.5006    1.9678 C.2       1 RES1    0.0000
     20 N1         3.9738   10.3862    2.2993 N.2       1 RES1    0.0000
     21 C10        2.8546    9.9928    1.6456 C.2       1 RES1    0.0000
     22 H10        2.0103   10.4255    1.6916 H         1 RES1    0.0000
     23 C11        3.1311    8.8775    0.9095 C.2       1 RES1    0.0000
     24 N2         4.4626    8.5578    1.1153 N.pl3     1 RES1    0.0000
     25 C12        5.2542    7.4898    0.4824 C.3       1 RES1    0.0000
     26 H11        6.1992    7.6009    0.7159 H         1 RES1    0.0000
     27 H12        5.1503    7.5389   -0.4909 H         1 RES1    0.0000
     28 H13        4.9394    6.6180    0.8010 H         1 RES1    0.0000
     29 N3         2.2464    8.1614    0.0661 N.pl3     1 RES1    0.0000
     30 O2         2.6449    7.1453   -0.5093 O.2       1 RES1    0.0000
     31 O3         1.0968    8.6068   -0.0448 O.2       1 RES1    0.0000
@<TRIPOS>BOND
     1    1    2 1
     2    3    1 ar
     3    4    3 1
     4    5    3 ar
     5    6    5 1
     6    7    5 ar
     7    8    7 1
     8    9    7 ar
     9   10    9 1
    10   11    1 ar
    11   12   11 1
    12   13   12 1
    13   14   12 1
    14   15   14 1
    15   16   12 1
    16   17   16 1
    17   18   16 1
    18   19   16 1
    19   20   19 2
    20   21   20 1
    21   22   21 1
    22   23   21 2
    23   24   19 1
    24   25   24 1
    25   26   25 1
    26   27   25 1
    27   28   25 1
    28   29   23 1
    29   30   29 2
    30   31   29 2
    31    9   11 ar
    32   23   24 1
@<TRIPOS>SUBSTRUCTURE
     1 RES1 1

@<TRIPOS>CRYSIN
   7.5076   10.1643   15.2589  90.0000  95.0800  90.0000 231 1

