# MOL2 file generated by ConQuest
# Please check atom types

@<TRIPOS>MOLECULE
COJXIK
    28    29     1
SMALL
NO_CHARGES
****
Generated from CSD

@<TRIPOS>ATOM
      1 C1         3.7933    5.1025    6.5677 C.ar      1 RES1    0.0000
      2 H1         4.6854    4.9898    6.2619 H         1 RES1    0.0000
      3 C2         3.5593    5.6539    7.8189 C.ar      1 RES1    0.0000
      4 H2         4.2911    5.9200    8.3634 H         1 RES1    0.0000
      5 C3         2.2534    5.8184    8.2816 C.ar      1 RES1    0.0000
      6 H3         2.0983    6.1828    9.1450 H         1 RES1    0.0000
      7 C4         1.1830    5.4497    7.4828 C.ar      1 RES1    0.0000
      8 H4         0.2932    5.5709    7.7926 H         1 RES1    0.0000
      9 C5         1.4156    4.9018    6.2250 C.ar      1 RES1    0.0000
     10 H5         0.6776    4.6534    5.6810 H         1 RES1    0.0000
     11 C6         2.7198    4.7090    5.7459 C.ar      1 RES1    0.0000
     12 C7         2.9074    4.0974    4.4304 C.2       1 RES1    0.0000
     13 H6         2.1179    3.8394    3.9697 H         1 RES1    0.0000
     14 C8         4.0589    3.8613    3.8062 C.2       1 RES1    0.0000
     15 H7         4.8670    4.1306    4.2265 H         1 RES1    0.0000
     16 C9         4.1346    3.2087    2.5080 C.2       1 RES1    0.0000
     17 N1         5.3306    2.9502    1.8804 N.3       1 RES1    0.0000
     18 C10        5.0567    2.2845    0.7271 C.2       1 RES1    0.0000
     19 H8         5.6721    1.9576    0.0807 H         1 RES1    0.0000
     20 C11        3.6862    2.1935    0.7105 C.2       1 RES1    0.0000
     21 N2         3.1065    2.7597    1.7989 N.2       1 RES1    0.0000
     22 C12        6.6658    3.2824    2.3778 C.3       1 RES1    0.0000
     23 H9         7.3413    2.9296    1.7617 H         1 RES1    0.0000
     24 H10        6.7926    2.8840    3.2644 H         1 RES1    0.0000
     25 H11        6.7582    4.2558    2.4413 H         1 RES1    0.0000
     26 N3         2.9058    1.5737   -0.3183 N.pl3     1 RES1    0.0000
     27 O1         1.6758    1.5754   -0.2252 O.2       1 RES1    0.0000
     28 O2         3.5207    1.0620   -1.2622 O.2       1 RES1    0.0000
@<TRIPOS>BOND
     1    1    2 1
     2    3    1 ar
     3    4    3 1
     4    5    3 ar
     5    6    5 1
     6    7    5 ar
     7    8    7 1
     8    9    7 ar
     9   10    9 1
    10   11    1 ar
    11   12   11 1
    12   13   12 1
    13   14   12 2
    14   15   14 1
    15   16   14 1
    16   17   16 1
    17   18   17 1
    18   19   18 1
    19   20   18 2
    20   21   16 2
    21   22   17 1
    22   23   22 1
    23   24   22 1
    24   25   22 1
    25   26   20 1
    26   27   26 2
    27   28   26 2
    28    9   11 ar
    29   20   21 1
@<TRIPOS>SUBSTRUCTURE
     1 RES1 1

@<TRIPOS>CRYSIN
   6.7430    7.2223   11.6924  94.5350 104.8660  98.8080   2 1

