# MOL2 file generated by ConQuest
# Please check atom types

@<TRIPOS>MOLECULE
COLBIO
    65    71     1
SMALL
NO_CHARGES
****
Generated from CSD

@<TRIPOS>ATOM
      1 C1        11.8738   -1.0184    1.7263 C.3       1 RES1    0.0000
      2 C2        11.8920   -2.2310    0.7410 C.3       1 RES1    0.0000
      3 H1        11.3771   -2.0990   -0.0534 H         1 RES1    0.0000
      4 H2        11.6534   -3.0681    1.1456 H         1 RES1    0.0000
      5 C3        13.3663   -2.0462    0.5421 C.3       1 RES1    0.0000
      6 H3        13.5985   -1.6711   -0.3103 H         1 RES1    0.0000
      7 H4        13.8815   -2.8422    0.6926 H         1 RES1    0.0000
      8 C4        13.4235   -1.0743    1.6601 C.3       1 RES1    0.0000
      9 H5        13.8340   -1.4212    2.4555 H         1 RES1    0.0000
     10 H6        13.8330   -0.2379    1.4272 H         1 RES1    0.0000
     11 C5        11.1815    0.2912    1.2497 C.3       1 RES1    0.0000
     12 C6        11.1953   -1.2147    3.1041 C.3       1 RES1    0.0000
     13 C7         9.7282   -0.6928    3.0094 C.3       1 RES1    0.0000
     14 C8         9.3158    0.4501    3.9821 C.3       1 RES1    0.0000
     15 H7        10.0986    0.8749    4.3402 H         1 RES1    0.0000
     16 H8         8.7871    0.0953    4.7005 H         1 RES1    0.0000
     17 C9         8.4970    1.4564    3.1788 C.3       1 RES1    0.0000
     18 H9         8.5756    2.3686    3.4677 H         1 RES1    0.0000
     19 C10        9.0100    1.3075    1.7697 C.2       1 RES1    0.0000
     20 C11        9.1656    2.1941    0.7933 C.2       1 RES1    0.0000
     21 H10        8.6891    3.0266    0.8297 H         1 RES1    0.0000
     22 C12       10.0798    1.9120   -0.3716 C.3       1 RES1    0.0000
     23 H11        9.5271    1.7103   -1.1303 H         1 RES1    0.0000
     24 H12       10.5817    2.7119   -0.5449 H         1 RES1    0.0000
     25 C13       11.1091    0.7344   -0.2099 C.3       1 RES1    0.0000
     26 H13       11.9769    1.0305   -0.4945 H         1 RES1    0.0000
     27 H14       10.8301   -0.0067   -0.7524 H         1 RES1    0.0000
     28 C14        9.6980    0.0044    1.6413 C.3       1 RES1    0.0000
     29 C15        8.8957   -0.9438    0.7195 C.3       1 RES1    0.0000
     30 H15        9.4654   -1.6157    0.3376 H         1 RES1    0.0000
     31 H16        8.4626   -0.4543    0.0162 H         1 RES1    0.0000
     32 C16        7.8763   -1.5642    1.6575 C.3       1 RES1    0.0000
     33 H17        7.1527   -0.9569    1.8282 H         1 RES1    0.0000
     34 H18        7.5288   -2.3820    1.2942 H         1 RES1    0.0000
     35 C17        8.6751   -1.8280    2.9244 C.3       1 RES1    0.0000
     36 H19        8.0994   -1.8071    3.6922 H         1 RES1    0.0000
     37 H20        9.1093   -2.6827    2.8731 H         1 RES1    0.0000
     38 C18       11.8372    1.4368    2.0468 C.3       1 RES1    0.0000
     39 H21       11.8867    1.1961    2.9749 H         1 RES1    0.0000
     40 H22       11.3448    2.2556    1.9542 H         1 RES1    0.0000
     41 H23       12.7243    1.5558    1.6994 H         1 RES1    0.0000
     42 C19       11.5433   -2.4050    3.9581 C.3       1 RES1    0.0000
     43 H24       12.1922   -3.0422    3.6507 H         1 RES1    0.0000
     44 H25       10.8552   -2.8601    4.4489 H         1 RES1    0.0000
     45 C20       11.9784   -1.0437    4.3763 C.3       1 RES1    0.0000
     46 H26       11.5707   -0.6231    5.1369 H         1 RES1    0.0000
     47 H27       12.9075   -0.8053    4.3387 H         1 RES1    0.0000
     48 O1         7.0705    1.0842    3.3106 O.3       1 RES1    0.0000
     49 O2         6.4715    3.0953    2.5098 O.2       1 RES1    0.0000
     50 C21        6.1926    2.0024    2.9364 C.2       1 RES1    0.0000
     51 C22        4.7781    1.5579    3.1486 C.ar      1 RES1    0.0000
     52 C23        3.7746    2.4758    2.8727 C.ar      1 RES1    0.0000
     53 H28        3.9934    3.3434    2.5247 H         1 RES1    0.0000
     54 C24        2.4744    2.1331    3.1009 C.ar      1 RES1    0.0000
     55 C25        2.1065    0.8851    3.5807 C.ar      1 RES1    0.0000
     56 H29        1.1878    0.6576    3.7414 H         1 RES1    0.0000
     57 C26        3.1179   -0.0054    3.8135 C.ar      1 RES1    0.0000
     58 C27        4.4528    0.2930    3.6188 C.ar      1 RES1    0.0000
     59 H30        5.1359   -0.3559    3.8033 H         1 RES1    0.0000
     60 N1         1.4222    3.1197    2.8365 N.pl3     1 RES1    0.0000
     61 O3         1.7268    4.1078    2.1920 O.2       1 RES1    0.0000
     62 O4         0.3020    2.9015    3.2620 O.2       1 RES1    0.0000
     63 N2         2.7517   -1.3561    4.2999 N.pl3     1 RES1    0.0000
     64 O5         3.6514   -2.1530    4.4832 O.2       1 RES1    0.0000
     65 O6         1.5669   -1.5903    4.4855 O.2       1 RES1    0.0000
@<TRIPOS>BOND
     1    1    2 1
     2    2    3 1
     3    4    2 1
     4    5    2 1
     5    6    5 1
     6    7    5 1
     7    8    1 1
     8    9    8 1
     9   10    8 1
    10   11    1 1
    11   12    1 1
    12   13   12 1
    13   14   13 1
    14   15   14 1
    15   16   14 1
    16   17   14 1
    17   18   17 1
    18   19   17 1
    19   20   19 2
    20   21   20 1
    21   22   20 1
    22   23   22 1
    23   24   22 1
    24   25   11 1
    25   26   25 1
    26   27   25 1
    27   28   11 1
    28   29   28 1
    29   30   29 1
    30   31   29 1
    31   32   29 1
    32   33   32 1
    33   34   32 1
    34   35   13 1
    35   36   35 1
    36   37   35 1
    37   38   11 1
    38   39   38 1
    39   40   38 1
    40   41   38 1
    41   42   12 1
    42   43   42 1
    43   44   42 1
    44   45   12 1
    45   46   45 1
    46   47   45 1
    47   48   17 1
    48   49   50 2
    49   50   48 1
    50   51   50 1
    51   52   51 ar
    52   53   52 1
    53   54   52 ar
    54   55   54 ar
    55   56   55 1
    56   57   55 ar
    57   58   51 ar
    58   59   58 1
    59   60   54 1
    60   61   60 2
    61   62   60 2
    62   63   57 1
    63   64   63 2
    64   65   63 2
    65    5    8 1
    66   13   28 1
    67   19   28 1
    68   22   25 1
    69   32   35 1
    70   42   45 1
    71   57   58 ar
@<TRIPOS>SUBSTRUCTURE
     1 RES1 1

@<TRIPOS>CRYSIN
  14.3050    7.6140   22.9380  90.0000 111.8800  90.0000 231 1

