# MOL2 file generated by ConQuest
# Please check atom types

@<TRIPOS>MOLECULE
COLZAE
    25    25     1
SMALL
NO_CHARGES
****
Generated from CSD

@<TRIPOS>ATOM
      1 C1         6.0333    5.3897    1.4433 C.2       1 RES1    0.0000
      2 N1         4.9460    4.1745   -0.3922 N.pl3     1 RES1    0.0000
      3 C2         6.3792    6.7132    2.1689 C.3       1 RES1    0.0000
      4 N2         3.0266   10.8443   -0.1588 N.pl3     1 RES1    0.0000
      5 C3         6.0024    7.9732    1.4381 C.2       1 RES1    0.0000
      6 O1         6.2112    4.3384    1.9627 O.2       1 RES1    0.0000
      7 C4         5.2101    7.9701    0.3624 C.2       1 RES1    0.0000
      8 O2         8.5417    7.1368    1.2986 O.2       1 RES1    0.0000
      9 C5         4.6178    6.7070   -0.2237 C.3       1 RES1    0.0000
     10 O3         8.4698    6.2014    3.2095 O.2       1 RES1    0.0000
     11 C6         5.5869    5.5242   -0.0228 C.3       1 RES1    0.0000
     12 O4         2.2608    6.6792    0.1904 O.2       1 RES1    0.0000
     13 C7         5.8598    6.6714    3.6061 C.3       1 RES1    0.0000
     14 O5         3.5504    6.0391    1.7820 O.2       1 RES1    0.0000
     15 C8         6.5184    9.2333    2.0645 C.3       1 RES1    0.0000
     16 O6         5.6675    3.3025   -0.7668 O.2       1 RES1    0.0000
     17 C9         4.8333    9.2874   -0.2746 C.3       1 RES1    0.0000
     18 O7         3.7592    4.0601   -0.2659 O.2       1 RES1    0.0000
     19 C10        4.1780    6.8291   -1.6671 C.3       1 RES1    0.0000
     20 O8         3.5316    9.6028    0.2659 O.3       1 RES1    0.0000
     21 C11        6.8156    5.6896   -0.8985 C.3       1 RES1    0.0000
     22 O9         1.9437   11.0639    0.2588 O.2       1 RES1    0.0000
     23 N3         7.9505    6.6714    2.2286 N.pl3     1 RES1    0.0000
     24 O10        3.7294   11.5076   -0.8695 O.2       1 RES1    0.0000
     25 N4         3.3470    6.4287    0.6475 N.pl3     1 RES1    0.0000
@<TRIPOS>BOND
     1    1    3 1
     2    2   11 1
     3    3    5 1
     4    4   20 1
     5    5    7 2
     6    6    1 2
     7    7    9 1
     8    8   23 2
     9    9   11 1
    10   10   23 2
    11   11    1 1
    12   12   25 2
    13   13    3 1
    14   14   25 2
    15   15    5 1
    16   16    2 2
    17   17    7 1
    18   18    2 2
    19   19    9 1
    20   20   17 1
    21   21   11 1
    22   22    4 2
    23   23    3 1
    24   24    4 2
    25   25    9 1
@<TRIPOS>SUBSTRUCTURE
     1 RES1 1

@<TRIPOS>CRYSIN
  11.0500   15.4610    8.7740  90.0000  90.0000  90.0000  19 1

