# MOL2 file generated by ConQuest
# Please check atom types

@<TRIPOS>MOLECULE
COMFER
    43    45     1
SMALL
NO_CHARGES
****
Generated from CSD

@<TRIPOS>ATOM
      1 O1        -5.6393   22.1468    6.7937 O.2       1 RES1    0.0000
      2 O2        -4.6537   23.0063    5.0634 O.2       1 RES1    0.0000
      3 N1        -4.8609   22.0651    5.8439 N.pl3     1 RES1    0.0000
      4 N2        -2.3295   14.7082    5.0653 N.2       1 RES1    0.0000
      5 N3        -0.2417   15.9434    3.9880 N.pl3     1 RES1    0.0000
      6 H1        -0.7227   15.1561    4.2699 H         1 RES1    0.0000
      7 C1        -4.1482   20.8086    5.6178 C.ar      1 RES1    0.0000
      8 C2        -4.3459   19.7464    6.4969 C.ar      1 RES1    0.0000
      9 H2        -4.9334   19.8309    7.2384 H         1 RES1    0.0000
     10 C3        -3.6655   18.5647    6.2644 C.ar      1 RES1    0.0000
     11 H3        -3.7797   17.8416    6.8681 H         1 RES1    0.0000
     12 C4        -2.8045   18.4017    5.1546 C.ar      1 RES1    0.0000
     13 C5        -2.6272   19.5193    4.3155 C.ar      1 RES1    0.0000
     14 H4        -2.0385   19.4494    3.5731 H         1 RES1    0.0000
     15 C6        -3.2820   20.7131    4.5369 C.ar      1 RES1    0.0000
     16 H5        -3.1424   21.4560    3.9610 H         1 RES1    0.0000
     17 C7        -2.1478   17.1064    4.8774 C.2       1 RES1    0.0000
     18 C8        -2.8113   15.9029    5.2578 C.2       1 RES1    0.0000
     19 H6        -3.6597   15.9772    5.6783 H         1 RES1    0.0000
     20 C9        -3.1306   13.5571    5.3471 C.ar      1 RES1    0.0000
     21 C10       -4.5321   13.5691    5.3025 C.ar      1 RES1    0.0000
     22 H7        -4.9939   14.3759    5.1053 H         1 RES1    0.0000
     23 C11       -5.2458   12.3984    5.5481 C.ar      1 RES1    0.0000
     24 H8        -6.1961   12.4145    5.5378 H         1 RES1    0.0000
     25 C12       -4.5780   11.2052    5.8076 C.ar      1 RES1    0.0000
     26 H9        -5.0684   10.4079    5.9639 H         1 RES1    0.0000
     27 C13       -3.1947   11.1879    5.8355 C.ar      1 RES1    0.0000
     28 H10       -2.7369   10.3735    6.0104 H         1 RES1    0.0000
     29 C14       -2.4728   12.3484    5.6104 C.ar      1 RES1    0.0000
     30 H11       -1.5235   12.3240    5.6355 H         1 RES1    0.0000
     31 C15       -0.9048   17.0723    4.2662 C.2       1 RES1    0.0000
     32 H12       -0.5001   17.8998    4.0308 H         1 RES1    0.0000
     33 C16        1.0393   15.8257    3.3964 C.ar      1 RES1    0.0000
     34 C17        1.4292   14.5591    2.9592 C.ar      1 RES1    0.0000
     35 H13        0.8602   13.8112    3.0959 H         1 RES1    0.0000
     36 C18        2.6561   14.4009    2.3229 C.ar      1 RES1    0.0000
     37 H14        2.9204   13.5396    2.0187 H         1 RES1    0.0000
     38 C19        3.4894   15.4779    2.1294 C.ar      1 RES1    0.0000
     39 H15        4.3177   15.3651    1.6782 H         1 RES1    0.0000
     40 C20        3.1142   16.7292    2.5954 C.ar      1 RES1    0.0000
     41 H16        3.7026   17.4666    2.4866 H         1 RES1    0.0000
     42 C21        1.8899   16.9161    3.2196 C.ar      1 RES1    0.0000
     43 H17        1.6326   17.7791    3.5238 H         1 RES1    0.0000
@<TRIPOS>BOND
     1    1    3 2
     2    2    3 2
     3    3    7 1
     4    4   18 2
     5    5    6 1
     6    7    8 ar
     7    8    9 1
     8   10    8 ar
     9   11   10 1
    10   12   10 ar
    11   13   12 ar
    12   14   13 1
    13   15    7 ar
    14   16   15 1
    15   17   12 1
    16   18   17 1
    17   19   18 1
    18   20    4 1
    19   21   20 ar
    20   22   21 1
    21   23   21 ar
    22   24   23 1
    23   25   23 ar
    24   26   25 1
    25   27   25 ar
    26   28   27 1
    27   29   20 ar
    28   30   29 1
    29   31    5 1
    30   32   31 1
    31   33    5 1
    32   34   33 ar
    33   35   34 1
    34   36   34 ar
    35   37   36 1
    36   38   36 ar
    37   39   38 1
    38   40   38 ar
    39   41   40 1
    40   42   33 ar
    41   43   42 1
    42   13   15 ar
    43   17   31 2
    44   27   29 ar
    45   40   42 ar
@<TRIPOS>SUBSTRUCTURE
     1 RES1 1

@<TRIPOS>CRYSIN
   8.6490   21.5530    9.8860  90.0000 109.7820  90.0000  14 1

