# MOL2 file generated by ConQuest
# Please check atom types

@<TRIPOS>MOLECULE
COMNBZ
    32    34     1
SMALL
NO_CHARGES
****
Generated from CSD

@<TRIPOS>ATOM
      1 C1         3.5014    3.7063    1.4627 C.2       1 RES1    0.0000
      2 C2         2.8617    4.8882    1.6850 C.2       1 RES1    0.0000
      3 C3         2.5325    5.2985    2.9699 C.2       1 RES1    0.0000
      4 C4         2.8793    4.4769    4.0118 C.2       1 RES1    0.0000
      5 C5         3.5296    3.2891    3.8206 C.2       1 RES1    0.0000
      6 C6         3.8357    2.8984    2.5283 C.2       1 RES1    0.0000
      7 C7         1.9354    4.2497    6.1977 C.2       1 RES1    0.0000
      8 C8         1.1233    3.1853    5.8628 C.2       1 RES1    0.0000
      9 C9         0.4090    2.4940    6.8157 C.2       1 RES1    0.0000
     10 C10        0.4802    2.8632    8.1554 C.2       1 RES1    0.0000
     11 C11        1.2701    3.9383    8.4993 C.2       1 RES1    0.0000
     12 C12        1.9861    4.6179    7.5463 C.2       1 RES1    0.0000
     13 C13       -0.2431    2.1562    9.2417 C.2       1 RES1    0.0000
     14 C14       -1.7001    0.3760    9.8034 C.3       1 RES1    0.0000
     15 N1         2.7901    5.7538    8.0072 N.2       1 RES1    0.0000
     16 O1         2.6362    4.9841    5.3026 O.3       1 RES1    0.0000
     17 O2        -0.1796    2.4754   10.3962 O.2       1 RES1    0.0000
     18 O3        -0.9618    1.1271    8.7986 O.3       1 RES1    0.0000
     19 O4         2.6839    6.1073    9.1202 O.2       1 RES1    0.0000
     20 H1         3.7733    3.4174    0.5335 H         1 RES1    0.0000
     21 H2         2.6895    5.5129    0.9485 H         1 RES1    0.0000
     22 H3         2.1184    6.1494    3.1715 H         1 RES1    0.0000
     23 H4         3.7063    2.7516    4.5497 H         1 RES1    0.0000
     24 H5         4.2861    2.0759    2.3712 H         1 RES1    0.0000
     25 H6         1.0684    2.9278    4.9795 H         1 RES1    0.0000
     26 H7        -0.0968    1.7136    6.5801 H         1 RES1    0.0000
     27 H8         1.2672    4.2497    9.4255 H         1 RES1    0.0000
     28 H9        -2.2669   -0.2840    9.3366 H         1 RES1    0.0000
     29 H10       -2.2148    0.9890   10.2999 H         1 RES1    0.0000
     30 H11       -1.0429   -0.0098   10.4777 H         1 RES1    0.0000
     31 O5         3.8937    6.0358    7.3952 O.3       1 RES1    0.0000
     32 O6         3.0015    6.6497    7.2322 O.3       1 RES1    0.0000
@<TRIPOS>BOND
     1    1    2 1
     2    2    3 1
     3    3    4 1
     4    4    5 1
     5    5    6 1
     6    6    1 1
     7    7    8 1
     8    8    9 1
     9    9   10 1
    10   10   11 1
    11   11   12 1
    12   12    7 1
    13   13   10 1
    14   14   18 1
    15   15   12 1
    16   16    4 1
    17   17   13 1
    18   18   13 1
    19   19   15 1
    20   20    1 1
    21   21    2 1
    22   22    3 1
    23   23    5 1
    24   24    6 1
    25   25    8 1
    26   26    9 1
    27   27   11 1
    28   28   14 1
    29   29   14 1
    30   30   14 1
    31   31   15 1
    32   32   15 1
    33    7   16 1
    34   31   32 1
@<TRIPOS>SUBSTRUCTURE
     1 RES1 1

@<TRIPOS>CRYSIN
   8.8800    9.7920   14.8200  90.0000  90.0700  90.0000  14 1

