# MOL2 file generated by ConQuest
# Please check atom types

@<TRIPOS>MOLECULE
COMPEA
    34    35     1
SMALL
USER_CHARGES
****
Generated from CSD

@<TRIPOS>ATOM
      1 O1        -0.0318    8.3152    4.4856 O.2       1 RES1    0.0000
      2 O2         1.3577    5.4087    1.1895 O.2       1 RES1   -1.0000
      3 O3        -1.8339    8.2799    1.7418 O.2       1 RES1    0.0000
      4 O4         0.2160   11.1435   -1.1263 O.2       1 RES1    0.0000
      5 N1         0.3150    7.2420    3.8988 N.3       1 RES1    0.0000
      6 N2         1.0285    5.8950    2.3426 N.pl3     1 RES1    1.0000
      7 N3        -0.7815    9.7561    0.3747 N.am      1 RES1    0.0000
      8 H1        -1.5546   10.1091    0.1879 H         1 RES1    0.0000
      9 N4         1.5049    9.7523    0.1238 N.am      1 RES1    0.0000
     10 H2         2.2333   10.0719   -0.2295 H         1 RES1    0.0000
     11 C1         0.6391    7.1428    2.5902 C.2       1 RES1    0.0000
     12 C2         0.2425    5.8926    4.5469 C.3       1 RES1    0.0000
     13 C3         1.1776    5.0916    3.6028 C.3       1 RES1    0.0000
     14 C4         0.5283    8.2278    1.6315 C.2       1 RES1    0.0000
     15 C5        -0.7815    8.7323    1.2861 C.2       1 RES1    0.0000
     16 C6         0.3016   10.2816   -0.2723 C.2       1 RES1    0.0000
     17 C7         1.6152    8.7606    1.0295 C.2       1 RES1    0.0000
     18 H3         2.4683    8.4316    1.2490 H         1 RES1    0.0000
     19 C8         0.6691    5.9708    5.9938 C.3       1 RES1    0.0000
     20 H4         0.6753    5.0794    6.3775 H         1 RES1    0.0000
     21 H5         0.0467    6.5302    6.4855 H         1 RES1    0.0000
     22 H6         1.5590    6.3520    6.0490 H         1 RES1    0.0000
     23 C9        -1.2179    5.4814    4.4287 C.3       1 RES1    0.0000
     24 H7        -1.3386    4.6014    4.8192 H         1 RES1    0.0000
     25 H8        -1.4720    5.4572    3.4926 H         1 RES1    0.0000
     26 H9        -1.7737    6.1231    4.8990 H         1 RES1    0.0000
     27 C10        2.6471    5.1892    3.9764 C.3       1 RES1    0.0000
     28 H10        2.8081    4.6840    4.7876 H         1 RES1    0.0000
     29 H11        2.8826    6.1186    4.1215 H         1 RES1    0.0000
     30 H12        3.1879    4.8268    3.2574 H         1 RES1    0.0000
     31 C11        0.7720    3.6625    3.3564 C.3       1 RES1    0.0000
     32 H13        0.7274    3.1890    4.2026 H         1 RES1    0.0000
     33 H14        1.4249    3.2354    2.7803 H         1 RES1    0.0000
     34 H15       -0.0983    3.6419    2.9288 H         1 RES1    0.0000
@<TRIPOS>BOND
     1    1    5 1
     2    2    6 1
     3    3   15 2
     4    4   16 2
     5    5   11 1
     6    6   11 2
     7    7    8 1
     8    9   10 1
     9   11   14 1
    10   12    5 1
    11   13    6 1
    12   14   15 1
    13   15    7 1
    14   16    7 1
    15   17    9 1
    16   18   17 1
    17   19   12 1
    18   20   19 1
    19   21   19 1
    20   22   19 1
    21   23   12 1
    22   24   23 1
    23   25   23 1
    24   26   23 1
    25   27   13 1
    26   28   27 1
    27   29   27 1
    28   30   27 1
    29   31   13 1
    30   32   31 1
    31   33   31 1
    32   34   31 1
    33    9   16 1
    34   12   13 1
    35   14   17 2
@<TRIPOS>SUBSTRUCTURE
     1 RES1 1

@<TRIPOS>CRYSIN
   7.0900    7.8320   11.3280  90.8500  96.4500  96.6600   2 1

