# MOL2 file generated by ConQuest
# Please check atom types

@<TRIPOS>MOLECULE
COMPEA01
    34    35     1
SMALL
USER_CHARGES
****
Generated from CSD

@<TRIPOS>ATOM
      1 O1         7.3816   -4.7750    4.4637 O.2       1 RES1    0.0000
      2 O2        10.5137   -1.7242    2.9680 O.2       1 RES1   -1.0000
      3 O3         8.0992   -4.9126    1.2630 O.2       1 RES1    0.0000
      4 O4        11.9499   -7.2617    0.6959 O.2       1 RES1    0.0000
      5 N1         7.9819   -3.6581    4.2452 N.3       1 RES1    0.0000
      6 N2         9.4910   -2.2219    3.5646 N.pl3     1 RES1    1.0000
      7 N3         9.9918   -6.1416    1.0551 N.am      1 RES1    0.0000
      8 H1         9.6225   -6.5704    0.3934 H         1 RES1    0.0000
      9 N4        11.7835   -5.8591    2.4611 N.am      1 RES1    0.0000
     10 H2        12.5856   -6.0720    2.7246 H         1 RES1    0.0000
     11 C1         9.1216   -3.5148    3.5469 C.2       1 RES1    0.0000
     12 C2         7.3727   -2.3091    4.5807 C.3       1 RES1    0.0000
     13 C3         8.6257   -1.4098    4.4909 C.3       1 RES1    0.0000
     14 C4         9.8263   -4.5790    2.8640 C.2       1 RES1    0.0000
     15 C5         9.2093   -5.1854    1.6955 C.2       1 RES1    0.0000
     16 C6        11.2831   -6.4744    1.3611 C.2       1 RES1    0.0000
     17 C7        11.0893   -4.9166    3.1830 C.2       1 RES1    0.0000
     18 H3        11.5063   -4.4990    3.9143 H         1 RES1    0.0000
     19 C8         6.3537   -2.0595    3.4973 C.3       1 RES1    0.0000
     20 H4         5.9309   -1.1993    3.6438 H         1 RES1    0.0000
     21 H5         5.6813   -2.7579    3.5197 H         1 RES1    0.0000
     22 H6         6.7932   -2.0611    2.6336 H         1 RES1    0.0000
     23 C9         6.7145   -2.3867    5.9430 C.3       1 RES1    0.0000
     24 H7         6.4141   -1.5026    6.2077 H         1 RES1    0.0000
     25 H8         7.3541   -2.7187    6.5916 H         1 RES1    0.0000
     26 H9         5.9538   -2.9868    5.9005 H         1 RES1    0.0000
     27 C10        8.3899   -0.0400    3.9084 C.3       1 RES1    0.0000
     28 H10        9.2237    0.4545    3.8943 H         1 RES1    0.0000
     29 H11        7.7416    0.4353    4.4519 H         1 RES1    0.0000
     30 H12        8.0508   -0.1272    3.0034 H         1 RES1    0.0000
     31 C11        9.4366   -1.3322    5.7811 C.3       1 RES1    0.0000
     32 H13        8.9417   -0.8233    6.4428 H         1 RES1    0.0000
     33 H14       10.2842   -0.8953    5.6051 H         1 RES1    0.0000
     34 H15        9.5976   -2.2283    6.1167 H         1 RES1    0.0000
@<TRIPOS>BOND
     1    1    5 1
     2    2    6 1
     3    3   15 2
     4    4   16 2
     5    5   11 1
     6    6   11 2
     7    7    8 1
     8    9   10 1
     9   11   14 1
    10   12    5 1
    11   13    6 1
    12   14   15 1
    13   15    7 1
    14   16    7 1
    15   17    9 1
    16   18   17 1
    17   19   12 1
    18   20   19 1
    19   21   19 1
    20   22   19 1
    21   23   12 1
    22   24   23 1
    23   25   23 1
    24   26   23 1
    25   27   13 1
    26   28   27 1
    27   29   27 1
    28   30   27 1
    29   31   13 1
    30   32   31 1
    31   33   31 1
    32   34   31 1
    33    9   16 1
    34   12   13 1
    35   14   17 2
@<TRIPOS>SUBSTRUCTURE
     1 RES1 1

@<TRIPOS>CRYSIN
  13.4410    8.0010   12.3960  90.0000 107.6100  90.0000  14 1

