# MOL2 file generated by ConQuest
# Please check atom types

@<TRIPOS>MOLECULE
CONNIC
    54    58     1
SMALL
NO_CHARGES
****
Generated from CSD

@<TRIPOS>ATOM
      1 C1        -9.9413   -5.2390   -1.6859 C.3       1 RES1    0.0000
      2 C2        -9.2618   -4.5139   -2.8256 C.3       1 RES1    0.0000
      3 C3       -10.2214   -4.2636   -3.9201 C.2       1 RES1    0.0000
      4 C4       -11.5263   -4.8194   -3.9524 C.2       1 RES1    0.0000
      5 C5       -12.1124   -5.7037   -2.8988 C.3       1 RES1    0.0000
      6 C6       -13.1157   -6.6970   -3.4686 C.3       1 RES1    0.0000
      7 C7       -12.4340   -7.7418   -4.3643 C.3       1 RES1    0.0000
      8 C8       -11.2625   -8.4412   -3.6452 C.3       1 RES1    0.0000
      9 C9       -10.2658   -7.4029   -3.0811 C.3       1 RES1    0.0000
     10 C10      -10.9305   -6.3698   -2.1258 C.3       1 RES1    0.0000
     11 C11       -9.0195   -8.0729   -2.4775 C.3       1 RES1    0.0000
     12 C12       -8.3318   -9.0381   -3.4543 C.3       1 RES1    0.0000
     13 C13       -9.3144  -10.0982   -3.9761 C.3       1 RES1    0.0000
     14 C14      -10.5044   -9.3538   -4.6155 C.3       1 RES1    0.0000
     15 C15      -11.2847  -10.4486   -5.3461 C.3       1 RES1    0.0000
     16 C16      -10.1843  -11.4432   -5.8048 C.3       1 RES1    0.0000
     17 C17       -8.8512  -10.9773   -5.1768 C.3       1 RES1    0.0000
     18 C18       -9.7530  -11.0069   -2.8084 C.3       1 RES1    0.0000
     19 C19      -11.4670   -7.0269   -0.8318 C.3       1 RES1    0.0000
     20 C20       -7.9939  -10.2522   -6.2081 C.3       1 RES1    0.0000
     21 O1        -8.0917  -12.1029   -4.6859 O.3       1 RES1    0.0000
     22 O2       -11.1550   -3.6553   -5.7316 O.3       1 RES1    0.0000
     23 N1       -12.0894   -4.4600   -5.0777 N.2       1 RES1    0.0000
     24 N2       -10.0087   -3.5590   -4.9873 N.2       1 RES1    0.0000
     25 H1        -9.1788   -5.6818   -1.0586 H         1 RES1    0.0000
     26 H2       -10.4970   -4.5126   -1.1067 H         1 RES1    0.0000
     27 H3        -8.4511   -5.1222   -3.3474 H         1 RES1    0.0000
     28 H4        -8.8713   -3.5731   -2.4646 H         1 RES1    0.0000
     29 H5       -12.7022   -5.1235   -2.1983 H         1 RES1    0.0000
     30 H6       -13.6137   -7.2002   -2.6454 H         1 RES1    0.0000
     31 H7       -13.8597   -6.1606   -4.0629 H         1 RES1    0.0000
     32 H8       -13.1624   -8.4875   -4.6493 H         1 RES1    0.0000
     33 H9       -12.0561   -7.2541   -5.2579 H         1 RES1    0.0000
     34 H10      -11.6804   -9.0239   -2.8306 H         1 RES1    0.0000
     35 H11       -9.9212   -6.8215   -3.9308 H         1 RES1    0.0000
     36 H12       -9.3129   -8.6196   -1.5861 H         1 RES1    0.0000
     37 H13       -8.3148   -7.3015   -2.2033 H         1 RES1    0.0000
     38 H14       -7.9413   -8.4798   -4.2997 H         1 RES1    0.0000
     39 H15       -7.5197   -9.5309   -2.9361 H         1 RES1    0.0000
     40 H16      -10.2125   -8.5965   -5.3339 H         1 RES1    0.0000
     41 H17      -11.9864  -10.9273   -4.6744 H         1 RES1    0.0000
     42 H18      -11.8138  -10.0456   -6.2045 H         1 RES1    0.0000
     43 H19      -10.1080  -11.4420   -6.8906 H         1 RES1    0.0000
     44 H20      -10.4229  -12.4392   -5.4581 H         1 RES1    0.0000
     45 H21      -10.3859  -11.8026   -3.1737 H         1 RES1    0.0000
     46 H22      -10.2888  -10.4280   -2.0634 H         1 RES1    0.0000
     47 H23       -8.8646  -11.4291   -2.3562 H         1 RES1    0.0000
     48 H24      -12.1976   -7.8072   -0.9868 H         1 RES1    0.0000
     49 H25      -11.8953   -6.2517   -0.2074 H         1 RES1    0.0000
     50 H26      -10.5970   -7.4376   -0.3395 H         1 RES1    0.0000
     51 H27       -8.4526   -9.3448   -6.5741 H         1 RES1    0.0000
     52 H28       -7.8865  -10.9517   -7.0306 H         1 RES1    0.0000
     53 H29       -7.0202  -10.0263   -5.7940 H         1 RES1    0.0000
     54 H30       -7.9517  -12.5868   -5.2830 H         1 RES1    0.0000
@<TRIPOS>BOND
     1    1    2 1
     2    2    3 1
     3    3    4 1
     4    4    5 1
     5    5    6 1
     6    6    7 1
     7    7    8 1
     8    8    9 1
     9    9   10 1
    10   10    1 1
    11   11    9 1
    12   12   11 1
    13   13   12 1
    14   14    8 1
    15   15   14 1
    16   16   15 1
    17   17   13 1
    18   18   13 1
    19   19   10 1
    20   20   17 1
    21   21   17 1
    22   22   23 1
    23   23    4 2
    24   24    3 2
    25   25    1 1
    26   26    1 1
    27   27    2 1
    28   28    2 1
    29   29    5 1
    30   30    6 1
    31   31    6 1
    32   32    7 1
    33   33    7 1
    34   34    8 1
    35   35    9 1
    36   36   11 1
    37   37   11 1
    38   38   12 1
    39   39   12 1
    40   40   14 1
    41   41   15 1
    42   42   15 1
    43   43   16 1
    44   44   16 1
    45   45   18 1
    46   46   18 1
    47   47   18 1
    48   48   19 1
    49   49   19 1
    50   50   19 1
    51   51   20 1
    52   52   20 1
    53   53   20 1
    54   54   21 1
    55    5   10 1
    56   13   14 1
    57   16   17 1
    58   22   24 1
@<TRIPOS>SUBSTRUCTURE
     1 RES1 1

@<TRIPOS>CRYSIN
  14.8200   14.8200    7.1770  90.0000  90.0000 120.0000 145 1

