# MOL2 file generated by ConQuest
# Please check atom types

@<TRIPOS>MOLECULE
CONNOI
    53    57     1
SMALL
NO_CHARGES
****
Generated from CSD

@<TRIPOS>ATOM
      1 C1         1.8577    2.4642    6.2931 C.3       1 RES1    0.0000
      2 C2         0.8509    2.1159    5.1797 C.3       1 RES1    0.0000
      3 C3         1.4146    2.4290    3.8383 C.2       1 RES1    0.0000
      4 C4         2.7884    2.7829    3.6183 C.2       1 RES1    0.0000
      5 C5         3.7648    2.9256    4.7557 C.3       1 RES1    0.0000
      6 C6         5.2127    2.7051    4.3327 C.3       1 RES1    0.0000
      7 C7         6.1311    3.0127    5.5073 C.3       1 RES1    0.0000
      8 C8         5.7603    2.2382    6.7844 C.3       1 RES1    0.0000
      9 C9         4.2610    2.4179    7.1512 C.3       1 RES1    0.0000
     10 C10        3.3189    2.0677    5.9615 C.3       1 RES1    0.0000
     11 C11        3.9207    1.7027    8.4775 C.3       1 RES1    0.0000
     12 C12        4.8419    2.1066    9.6320 C.3       1 RES1    0.0000
     13 C13        6.3155    1.9010    9.2602 C.3       1 RES1    0.0000
     14 C14        6.6007    2.6977    7.9661 C.3       1 RES1    0.0000
     15 C15        8.1332    2.6717    7.8435 C.3       1 RES1    0.0000
     16 C16        8.6219    2.6829    9.3255 C.3       1 RES1    0.0000
     17 C17        7.3784    2.5198   10.2399 C.3       1 RES1    0.0000
     18 C18        6.6216    0.3984    9.1095 C.3       1 RES1    0.0000
     19 C19        3.3816    0.5670    5.6299 C.3       1 RES1    0.0000
     20 C20        6.9591    3.8761   10.8237 C.3       1 RES1    0.0000
     21 O1         7.6313    1.6027   11.3040 O.3       1 RES1    0.0000
     22 O2         1.7455    2.7718    1.7594 O.3       1 RES1    0.0000
     23 N1         2.9728    2.9793    2.3733 N.2       1 RES1    0.0000
     24 N2         0.7900    2.4475    2.7049 N.2       1 RES1    0.0000
     25 H1         1.8244    3.5314    6.4609 H         1 RES1    0.0000
     26 H2         1.5620    1.9491    7.1954 H         1 RES1    0.0000
     27 H3        -0.0513    2.6921    5.3285 H         1 RES1    0.0000
     28 H4         0.6180    1.0635    5.2290 H         1 RES1    0.0000
     29 H5         3.7410    3.9539    5.0853 H         1 RES1    0.0000
     30 H6         5.4523    3.3591    3.5068 H         1 RES1    0.0000
     31 H7         5.3477    1.6786    4.0282 H         1 RES1    0.0000
     32 H8         7.1426    2.7533    5.2310 H         1 RES1    0.0000
     33 H9         6.0750    4.0706    5.7193 H         1 RES1    0.0000
     34 H10        5.9571    1.1969    6.5804 H         1 RES1    0.0000
     35 H11        4.0757    3.4684    7.3260 H         1 RES1    0.0000
     36 H12        4.0120    0.6374    8.3248 H         1 RES1    0.0000
     37 H13        2.9025    1.9417    8.7488 H         1 RES1    0.0000
     38 H14        4.6755    3.1479    9.8641 H         1 RES1    0.0000
     39 H15        4.6099    1.5045   10.4961 H         1 RES1    0.0000
     40 H16        6.2765    3.7278    7.9972 H         1 RES1    0.0000
     41 H17        8.4584    1.7676    7.3481 H         1 RES1    0.0000
     42 H18        8.4955    3.5314    7.2999 H         1 RES1    0.0000
     43 H19        9.1087    3.6241    9.5325 H         1 RES1    0.0000
     44 H20        9.3150    1.8547    9.5004 H         1 RES1    0.0000
     45 H21        7.5970    0.1964    8.6915 H         1 RES1    0.0000
     46 H22        5.8630   -0.0519    8.4865 H         1 RES1    0.0000
     47 H23        6.5636   -0.0185   10.1043 H         1 RES1    0.0000
     48 H24        4.4189    0.2668    5.6671 H         1 RES1    0.0000
     49 H25        2.9576    0.2798    4.6794 H         1 RES1    0.0000
     50 H26        2.8388    0.0815    6.4277 H         1 RES1    0.0000
     51 H27        6.9924    4.5857   10.0108 H         1 RES1    0.0000
     52 H28        7.7663    4.0799   11.5130 H         1 RES1    0.0000
     53 H29        6.0151    3.9631   11.3402 H         1 RES1    0.0000
@<TRIPOS>BOND
     1    1    2 1
     2    2    3 1
     3    3    4 1
     4    4    5 1
     5    5    6 1
     6    6    7 1
     7    7    8 1
     8    8    9 1
     9    9   10 1
    10   10    1 1
    11   11    9 1
    12   12   11 1
    13   13   12 1
    14   14    8 1
    15   15   14 1
    16   16   15 1
    17   17   13 1
    18   18   13 1
    19   19   10 1
    20   20   17 1
    21   21   17 1
    22   22   23 1
    23   23    4 2
    24   24    3 2
    25   25    1 1
    26   26    1 1
    27   27    2 1
    28   28    2 1
    29   29    5 1
    30   30    6 1
    31   31    6 1
    32   32    7 1
    33   33    7 1
    34   34    8 1
    35   35    9 1
    36   36   11 1
    37   37   11 1
    38   38   12 1
    39   39   12 1
    40   40   14 1
    41   41   15 1
    42   42   15 1
    43   43   16 1
    44   44   16 1
    45   45   18 1
    46   46   18 1
    47   47   18 1
    48   48   19 1
    49   49   19 1
    50   50   19 1
    51   51   20 1
    52   52   20 1
    53   53   20 1
    54    5   10 1
    55   13   14 1
    56   16   17 1
    57   22   24 1
@<TRIPOS>SUBSTRUCTURE
     1 RES1 1

@<TRIPOS>CRYSIN
   9.5070   18.5280   10.0480  90.0000  90.0000  90.0000  19 1

