# MOL2 file generated by ConQuest
# Please check atom types

@<TRIPOS>MOLECULE
COQBUF
    52    55     1
SMALL
NO_CHARGES
****
Generated from CSD

@<TRIPOS>ATOM
      1 O1        10.6529    3.9054    1.1236 O.3       1 RES1    0.0000
      2 O2        11.1533    2.5283    6.1285 O.2       1 RES1    0.0000
      3 O3         9.1406    1.6198    6.5273 O.3       1 RES1    0.0000
      4 O4         9.2368   -1.1582    4.2207 O.2       1 RES1    0.0000
      5 O5        10.7892   -0.6857    5.7537 O.3       1 RES1    0.0000
      6 N1        11.5535    2.9175    1.6392 N.2       1 RES1    0.0000
      7 C1         9.3292    3.6609    1.7189 C.3       1 RES1    0.0000
      8 C2         8.5242    2.7649    0.7972 C.3       1 RES1    0.0000
      9 C3         7.5442    1.8903    1.5581 C.3       1 RES1    0.0000
     10 C4         8.2838    0.9617    2.5312 C.3       1 RES1    0.0000
     11 C5         8.9498    1.7958    3.6342 C.3       1 RES1    0.0000
     12 C6         9.6903    3.0170    3.0589 C.3       1 RES1    0.0000
     13 C7        11.0196    2.4561    2.7031 C.2       1 RES1    0.0000
     14 C8        11.4505    1.3379    3.6045 C.3       1 RES1    0.0000
     15 C9        10.1131    1.1024    4.4408 C.3       1 RES1    0.0000
     16 C10       10.2396    1.8397    5.8004 C.2       1 RES1    0.0000
     17 C11        9.1449    2.1122    7.9118 C.3       1 RES1    0.0000
     18 C12        9.6947    1.0760    8.8092 C.3       1 RES1    0.0000
     19 C13        9.9424   -0.3702    4.7654 C.2       1 RES1    0.0000
     20 C14       10.9015   -2.0885    6.1032 C.3       1 RES1    0.0000
     21 C15       11.8807   -2.2063    7.1443 C.3       1 RES1    0.0000
     22 C16       12.0539    0.1188    2.9387 C.ar      1 RES1    0.0000
     23 C17       11.7276   -0.2784    1.6408 C.ar      1 RES1    0.0000
     24 C18       12.2895   -1.4117    1.0927 C.ar      1 RES1    0.0000
     25 C19       13.1520   -2.1931    1.8140 C.ar      1 RES1    0.0000
     26 C20       13.4853   -1.8153    3.0993 C.ar      1 RES1    0.0000
     27 C21       12.9561   -0.6555    3.6462 C.ar      1 RES1    0.0000
     28 H1         8.7972    4.6102    1.8784 H         1 RES1    0.0000
     29 H2         9.2137    2.1075    0.2425 H         1 RES1    0.0000
     30 H3         7.9897    3.3627    0.0507 H         1 RES1    0.0000
     31 H4         6.8685    2.5352    2.1366 H         1 RES1    0.0000
     32 H5         6.9228    1.3088    0.8705 H         1 RES1    0.0000
     33 H6         9.0549    0.4057    1.9736 H         1 RES1    0.0000
     34 H7         7.6037    0.2240    2.9591 H         1 RES1    0.0000
     35 H8         8.1790    2.1418    4.3305 H         1 RES1    0.0000
     36 H9         9.8088    3.7919    3.8186 H         1 RES1    0.0000
     37 H10       12.2067    1.7365    4.2965 H         1 RES1    0.0000
     38 H11        8.1059    2.3563    8.2596 H         1 RES1    0.0000
     39 H12        9.7145    3.0419    8.0312 H         1 RES1    0.0000
     40 H13        9.5874    1.4090    9.8365 H         1 RES1    0.0000
     41 H14       10.7620    0.8868    8.6117 H         1 RES1    0.0000
     42 H15        9.1814    0.1093    8.6969 H         1 RES1    0.0000
     43 H16        9.9450   -2.5518    6.3771 H         1 RES1    0.0000
     44 H17       11.2729   -2.7012    5.2261 H         1 RES1    0.0000
     45 H18       12.1760   -3.2271    7.3950 H         1 RES1    0.0000
     46 H19       11.4732   -1.7858    8.1353 H         1 RES1    0.0000
     47 H20       12.7997   -1.6266    6.9842 H         1 RES1    0.0000
     48 H21       11.0907    0.2894    1.1067 H         1 RES1    0.0000
     49 H22       12.0424   -1.6961    0.1581 H         1 RES1    0.0000
     50 H23       13.5771   -2.9954    1.4057 H         1 RES1    0.0000
     51 H24       14.0718   -2.4095    3.6212 H         1 RES1    0.0000
     52 H25       13.2267   -0.3706    4.5671 H         1 RES1    0.0000
@<TRIPOS>BOND
     1    1    6 1
     2    2   16 2
     3    3   16 1
     4    4   19 2
     5    5   19 1
     6    6   13 2
     7    7    1 1
     8    8    7 1
     9    9    8 1
    10   10    9 1
    11   11   10 1
    12   12    7 1
    13   13   12 1
    14   14   13 1
    15   15   11 1
    16   16   15 1
    17   17    3 1
    18   18   17 1
    19   19   15 1
    20   20    5 1
    21   21   20 1
    22   22   14 1
    23   23   22 ar
    24   24   23 ar
    25   25   24 ar
    26   26   25 ar
    27   27   22 ar
    28   28    7 1
    29   29    8 1
    30   30    8 1
    31   31    9 1
    32   32    9 1
    33   33   10 1
    34   34   10 1
    35   35   11 1
    36   36   12 1
    37   37   14 1
    38   38   17 1
    39   39   17 1
    40   40   18 1
    41   41   18 1
    42   42   18 1
    43   43   20 1
    44   44   20 1
    45   45   21 1
    46   46   21 1
    47   47   21 1
    48   48   23 1
    49   49   24 1
    50   50   25 1
    51   51   26 1
    52   52   27 1
    53   11   12 1
    54   14   15 1
    55   26   27 ar
@<TRIPOS>SUBSTRUCTURE
     1 RES1 1

@<TRIPOS>CRYSIN
  12.6130   15.0970   20.3780  90.0000  90.0000  90.0000  61 1

