# MOL2 file generated by ConQuest
# Please check atom types

@<TRIPOS>MOLECULE
COQPIJ
    42    46     1
SMALL
NO_CHARGES
****
Generated from CSD

@<TRIPOS>ATOM
      1 N1         5.1463    1.9929    7.6074 N.3       1 RES1    0.0000
      2 O1         8.3272    5.0260   10.2351 O.3       1 RES1    0.0000
      3 O2         6.0148    3.1496    7.4025 O.3       1 RES1    0.0000
      4 C1         5.9796    0.8301    7.5714 C.ar      1 RES1    0.0000
      5 C2         5.5353   -0.2270    6.7964 C.ar      1 RES1    0.0000
      6 H1         4.7115   -0.1676    6.3676 H         1 RES1    0.0000
      7 C3         6.3028   -1.3722    6.6514 C.ar      1 RES1    0.0000
      8 H2         5.9829   -2.0886    6.1516 H         1 RES1    0.0000
      9 C4         7.5321   -1.4429    7.2458 C.ar      1 RES1    0.0000
     10 H3         8.0719   -2.1889    7.1193 H         1 RES1    0.0000
     11 C5         7.9644   -0.3997    8.0345 C.ar      1 RES1    0.0000
     12 H4         8.7968   -0.4644    8.4448 H         1 RES1    0.0000
     13 C6         7.2016    0.7512    8.2436 C.ar      1 RES1    0.0000
     14 C7         7.6829    1.7542    9.1980 C.2       1 RES1    0.0000
     15 H5         8.4111    1.4785    9.7066 H         1 RES1    0.0000
     16 C8         7.2652    2.9848    9.4668 C.2       1 RES1    0.0000
     17 C9         7.8478    3.7549   10.6238 C.3       1 RES1    0.0000
     18 H6         7.1680    3.8667   11.3067 H         1 RES1    0.0000
     19 H7         8.5763    3.2443   11.0106 H         1 RES1    0.0000
     20 C10        7.2722    5.7972    9.6809 C.3       1 RES1    0.0000
     21 H8         7.5976    6.6877    9.4752 H         1 RES1    0.0000
     22 H9         6.5598    5.8825   10.3339 H         1 RES1    0.0000
     23 C11        6.7248    5.1570    8.4202 C.3       1 RES1    0.0000
     24 H10        7.4205    5.1309    7.7445 H         1 RES1    0.0000
     25 H11        5.9937    5.6943    8.0777 H         1 RES1    0.0000
     26 C12        6.2301    3.7447    8.6909 C.3       1 RES1    0.0000
     27 C13        4.8410    3.6323    9.2993 C.3       1 RES1    0.0000
     28 H12        4.2336    4.2858    8.9189 H         1 RES1    0.0000
     29 H13        4.8667    3.7417   10.2630 H         1 RES1    0.0000
     30 C14        4.4477    2.2149    8.9111 C.3       1 RES1    0.0000
     31 H14        4.8012    1.5885    9.5771 H         1 RES1    0.0000
     32 C15        2.9569    2.0122    8.7811 C.ar      1 RES1    0.0000
     33 C16        2.3192    2.1608    7.5697 C.ar      1 RES1    0.0000
     34 H15        2.8179    2.3483    6.8067 H         1 RES1    0.0000
     35 C17        0.9491    2.0342    7.4741 C.ar      1 RES1    0.0000
     36 H16        0.5256    2.1340    6.6524 H         1 RES1    0.0000
     37 C18        0.2182    1.7616    8.5981 C.ar      1 RES1    0.0000
     38 H17       -0.7064    1.6819    8.5364 H         1 RES1    0.0000
     39 C19        0.8279    1.6022    9.8084 C.ar      1 RES1    0.0000
     40 H18        0.3227    1.4085   10.5643 H         1 RES1    0.0000
     41 C20        2.2093    1.7321    9.9051 C.ar      1 RES1    0.0000
     42 H19        2.6283    1.6297   10.7288 H         1 RES1    0.0000
@<TRIPOS>BOND
     1    1    3 1
     2    2   17 1
     3    3   26 1
     4    4    1 1
     5    5    4 ar
     6    6    5 1
     7    7    5 ar
     8    8    7 1
     9    9    7 ar
    10   10    9 1
    11   11    9 ar
    12   12   11 1
    13   13    4 ar
    14   14   13 1
    15   15   14 1
    16   16   14 2
    17   17   16 1
    18   18   17 1
    19   19   17 1
    20   20    2 1
    21   21   20 1
    22   22   20 1
    23   23   20 1
    24   24   23 1
    25   25   23 1
    26   26   16 1
    27   27   26 1
    28   28   27 1
    29   29   27 1
    30   30    1 1
    31   31   30 1
    32   32   30 1
    33   33   32 ar
    34   34   33 1
    35   35   33 ar
    36   36   35 1
    37   37   35 ar
    38   38   37 1
    39   39   37 ar
    40   40   39 1
    41   41   32 ar
    42   42   41 1
    43   11   13 ar
    44   23   26 1
    45   27   30 1
    46   39   41 ar
@<TRIPOS>SUBSTRUCTURE
     1 RES1 1

@<TRIPOS>CRYSIN
  11.3030   13.7410   10.6140  90.0000 104.3350  90.0000  14 1

