# MOL2 file generated by ConQuest
# Please check atom types

@<TRIPOS>MOLECULE
COQVAF
    23    23     1
SMALL
NO_CHARGES
****
Generated from CSD

@<TRIPOS>ATOM
      1 O1         5.5308    9.8619    2.2920 O.3       1 RES1    0.0000
      2 O2         6.4794    5.7794    1.0486 O.2       1 RES1    0.0000
      3 O3         6.2871    4.9727   -0.9392 O.2       1 RES1    0.0000
      4 N1         6.2072    5.8844   -0.1262 N.pl3     1 RES1    0.0000
      5 N2         5.3398    7.1394   -3.1627 N.1       1 RES1    0.0000
      6 C1         5.1479    9.5418    0.0082 C.ar      1 RES1    0.0000
      7 C2         5.1116   10.4034    1.1306 C.ar      1 RES1    0.0000
      8 C3         4.6847   11.7160    0.9897 C.ar      1 RES1    0.0000
      9 H1         4.6682   12.2828    1.7262 H         1 RES1    0.0000
     10 C4         4.2862   12.1733   -0.2455 C.ar      1 RES1    0.0000
     11 H2         3.9958   13.0517   -0.3356 H         1 RES1    0.0000
     12 C5         4.3096   11.3500   -1.3533 C.ar      1 RES1    0.0000
     13 H3         4.0339   11.6719   -2.1807 H         1 RES1    0.0000
     14 C6         4.7409   10.0557   -1.2258 C.ar      1 RES1    0.0000
     15 H4         4.7632    9.5076   -1.9772 H         1 RES1    0.0000
     16 C7         5.5921    8.1919    0.2213 C.2       1 RES1    0.0000
     17 H5         5.8043    7.9872    1.1032 H         1 RES1    0.0000
     18 C8         5.7509    7.1850   -0.6375 C.2       1 RES1    0.0000
     19 C9         5.5275    7.1581   -2.0409 C.1       1 RES1    0.0000
     20 C10        5.5026   10.6670    3.4882 C.3       1 RES1    0.0000
     21 H6         5.8283   10.1515    4.2293 H         1 RES1    0.0000
     22 H7         4.6012   10.9464    3.6645 H         1 RES1    0.0000
     23 H8         6.0590   11.4393    3.3670 H         1 RES1    0.0000
@<TRIPOS>BOND
     1    1    7 1
     2    2    4 2
     3    3    4 2
     4    4   18 1
     5    5   19 3
     6    6    7 ar
     7    7    8 ar
     8    8    9 1
     9   10    8 ar
    10   11   10 1
    11   12   10 ar
    12   13   12 1
    13   14    6 ar
    14   15   14 1
    15   16    6 1
    16   17   16 1
    17   18   16 2
    18   19   18 1
    19   20    1 1
    20   21   20 1
    21   22   20 1
    22   23   20 1
    23   12   14 ar
@<TRIPOS>SUBSTRUCTURE
     1 RES1 1

@<TRIPOS>CRYSIN
   7.1952   17.3560    8.3298  90.0000 111.1480  90.0000  14 1

