# MOL2 file generated by ConQuest
# Please check atom types

@<TRIPOS>MOLECULE
CORYOZ
    16    16     1
SMALL
NO_CHARGES
****
Generated from CSD

@<TRIPOS>ATOM
      1 O1         6.7884    3.3092    1.5857 O.3       1 RES1    0.0000
      2 N1         5.0890    0.1186   -1.2521 N.ar      1 RES1    0.0000
      3 N2         5.8179   -0.6702    0.8831 N.ar      1 RES1    0.0000
      4 N3         6.3982    1.9424    1.4971 N.2       1 RES1    0.0000
      5 N4         6.0900    2.5749   -0.7581 N.3       1 RES1    0.0000
      6 C1         4.6752   -1.1271   -1.5381 C.ar      1 RES1    0.0000
      7 H1         4.2855   -1.2923   -2.3892 H         1 RES1    0.0000
      8 C2         4.7908   -2.1749   -0.6521 C.ar      1 RES1    0.0000
      9 H2         4.4791   -3.0463   -0.8671 H         1 RES1    0.0000
     10 C3         5.3815   -1.8983    0.5600 C.ar      1 RES1    0.0000
     11 H3         5.4842   -2.6006    1.1911 H         1 RES1    0.0000
     12 C4         5.6321    0.2902   -0.0430 C.ar      1 RES1    0.0000
     13 C5         6.0844    1.6795    0.2680 C.2       1 RES1    0.0000
     14 H4         6.5563    3.3108   -0.5700 H         1 RES1    0.0000
     15 H5         6.1478    2.2526   -1.6201 H         1 RES1    0.0000
     16 H6         7.1014    3.4391    2.4702 H         1 RES1    0.0000
@<TRIPOS>BOND
     1    1    4 1
     2    2    6 ar
     3    3   10 ar
     4    4   13 2
     5    5   13 1
     6    6    7 1
     7    8    6 ar
     8    9    8 1
     9   10    8 ar
    10   11   10 1
    11   12    2 ar
    12   13   12 1
    13   14    5 1
    14   15    5 1
    15   16    1 1
    16    3   12 ar
@<TRIPOS>SUBSTRUCTURE
     1 RES1 1

@<TRIPOS>CRYSIN
   7.4066    8.0165   10.2200  90.0000 101.8880  90.0000  14 1

