# MOL2 file generated by ConQuest
# Please check atom types

@<TRIPOS>MOLECULE
COSKOL
    37    38     1
SMALL
NO_CHARGES
****
Generated from CSD

@<TRIPOS>ATOM
      1 O1        -0.9974    6.3963    6.7284 O.3       1 RES1    0.0000
      2 O2        -0.6425    4.6282    8.1066 O.2       1 RES1    0.0000
      3 O3        -3.6255    6.1403    8.7087 O.2       1 RES1    0.0000
      4 N1        -3.4445    7.3767    8.6384 N.2       1 RES1    0.0000
      5 N2        -2.1924    7.7163    8.7724 N.3       1 RES1    0.0000
      6 N3        -1.8459    9.0462    8.6138 N.2       1 RES1    0.0000
      7 C1        -0.8595    5.6663    5.4413 C.3       1 RES1    0.0000
      8 C2         0.4823    4.9493    5.3636 C.3       1 RES1    0.0000
      9 H1         1.1631    5.5451    5.6900 H         1 RES1    0.0000
     10 H2         0.5389    4.5697    4.3801 H         1 RES1    0.0000
     11 H3         0.3961    4.1811    5.9663 H         1 RES1    0.0000
     12 C3        -2.0404    4.7327    5.2981 C.3       1 RES1    0.0000
     13 H4        -2.0735    3.9501    5.9970 H         1 RES1    0.0000
     14 H5        -2.0620    4.3461    4.4415 H         1 RES1    0.0000
     15 H6        -2.9220    5.2228    5.3114 H         1 RES1    0.0000
     16 C4        -0.9073    6.7835    4.4282 C.3       1 RES1    0.0000
     17 H7        -0.8560    6.5139    3.5818 H         1 RES1    0.0000
     18 H8        -0.1956    7.5147    4.7076 H         1 RES1    0.0000
     19 H9        -1.7759    7.1984    4.5336 H         1 RES1    0.0000
     20 C5        -0.8905    5.7972    7.8944 C.2       1 RES1    0.0000
     21 C6        -1.0615    6.8036    9.0283 C.3       1 RES1    0.0000
     22 H10       -1.1783    6.3790    9.8552 H         1 RES1    0.0000
     23 C7         0.1054    7.7997    9.0989 C.3       1 RES1    0.0000
     24 H11        0.5286    7.8087    9.9780 H         1 RES1    0.0000
     25 H12        0.8362    7.5784    8.3508 H         1 RES1    0.0000
     26 C8        -0.5698    9.1191    8.7735 C.2       1 RES1    0.0000
     27 C9         0.1456   10.3919    8.6599 C.ar      1 RES1    0.0000
     28 C10       -0.5354   11.5807    8.3529 C.ar      1 RES1    0.0000
     29 H13       -1.4753   11.5861    8.1666 H         1 RES1    0.0000
     30 C11        0.1490   12.7724    8.2700 C.ar      1 RES1    0.0000
     31 H14       -0.4018   13.5419    8.0950 H         1 RES1    0.0000
     32 C12        1.5199   12.8132    8.4767 C.ar      1 RES1    0.0000
     33 H15        2.0710   13.6262    8.3508 H         1 RES1    0.0000
     34 C13        2.2095   11.6358    8.7704 C.ar      1 RES1    0.0000
     35 H16        3.1707   11.6886    8.9137 H         1 RES1    0.0000
     36 C14        1.5198   10.4381    8.8656 C.ar      1 RES1    0.0000
     37 H17        2.0551    9.5902    9.0672 H         1 RES1    0.0000
@<TRIPOS>BOND
     1    1    7 1
     2    2   20 2
     3    3    4 2
     4    4    5 1
     5    5    6 1
     6    6   26 2
     7    7    8 1
     8    8    9 1
     9   10    8 1
    10   11    8 1
    11   12    7 1
    12   13   12 1
    13   14   12 1
    14   15   12 1
    15   16    7 1
    16   17   16 1
    17   18   16 1
    18   19   16 1
    19   20    1 1
    20   21    5 1
    21   22   21 1
    22   23   21 1
    23   24   23 1
    24   25   23 1
    25   26   23 1
    26   27   26 1
    27   28   27 ar
    28   29   28 1
    29   30   28 ar
    30   31   30 1
    31   32   30 ar
    32   33   32 1
    33   34   32 ar
    34   35   34 1
    35   36   27 ar
    36   37   36 1
    37   20   21 1
    38   34   36 ar
@<TRIPOS>SUBSTRUCTURE
     1 RES1 1

@<TRIPOS>CRYSIN
   6.8947   10.1241   11.1046 110.4680  95.5840 101.2140   2 1

