# MOL2 file generated by ConQuest
# Please check atom types

@<TRIPOS>MOLECULE
COSQEH
    45    49     1
SMALL
NO_CHARGES
****
Generated from CSD

@<TRIPOS>ATOM
      1 O1        -0.9094    6.5679    5.2550 O.3       1 RES1    0.0000
      2 O2         1.4800    5.9482    3.2948 O.3       1 RES1    0.0000
      3 O3         4.1333    3.7524    7.3224 O.2       1 RES1    0.0000
      4 O4         2.2899    5.0252    9.7714 O.3       1 RES1    0.0000
      5 O5         1.7855    7.5829    7.5779 O.2       1 RES1    0.0000
      6 O6        -1.1995    8.3918    3.1378 O.3       1 RES1    0.0000
      7 N1         0.9133    4.7973    3.9389 N.3       1 RES1    0.0000
      8 N2         1.3116    6.1788    5.8648 N.am      1 RES1    0.0000
      9 N3         2.7679    5.5310    7.5631 N.am      1 RES1    0.0000
     10 C1         0.4265    7.0697    5.1918 C.3       1 RES1    0.0000
     11 C2         1.8220    3.4532   11.4526 C.ar      1 RES1    0.0000
     12 C3         1.1558    3.9810   12.5253 C.ar      1 RES1    0.0000
     13 C4         0.2049    3.1520   13.2054 C.ar      1 RES1    0.0000
     14 C5         0.0259    1.9459   12.7549 C.ar      1 RES1    0.0000
     15 C6         0.7023    1.4667   11.7377 C.ar      1 RES1    0.0000
     16 C7         1.5278    2.2097   11.1317 C.ar      1 RES1    0.0000
     17 C8         1.3680    4.8113    5.3214 C.3       1 RES1    0.0000
     18 C9        -1.2298    6.0768    3.9377 C.3       1 RES1    0.0000
     19 C10       -0.5328    4.7454    3.7143 C.3       1 RES1    0.0000
     20 C11        3.1805    5.7090    8.9406 C.3       1 RES1    0.0000
     21 C12        2.7674    4.3069    5.4486 C.3       1 RES1    0.0000
     22 C13        0.7596    7.1264    3.6957 C.3       1 RES1    0.0000
     23 C14       -0.6063    7.1117    3.0353 C.3       1 RES1    0.0000
     24 C15        1.9260    6.5153    7.0187 C.2       1 RES1    0.0000
     25 C16        3.2896    4.4675    6.8372 C.2       1 RES1    0.0000
     26 C17        2.8011    4.3135   10.7404 C.3       1 RES1    0.0000
     27 H1        -0.6820    4.4728    2.8169 H         1 RES1    0.0000
     28 H2        -0.9070    4.1030    4.3068 H         1 RES1    0.0000
     29 H3         3.1692    6.6326    9.1603 H         1 RES1    0.0000
     30 H4         4.0586    5.3664    9.0579 H         1 RES1    0.0000
     31 H5         2.7939    3.3899    5.2017 H         1 RES1    0.0000
     32 H6         0.4714    7.9374    5.5757 H         1 RES1    0.0000
     33 H7         3.3178    4.8093    4.8585 H         1 RES1    0.0000
     34 H8         3.4490    3.7424   10.3466 H         1 RES1    0.0000
     35 H9         3.2262    4.8933   11.3625 H         1 RES1    0.0000
     36 H10        1.3484    4.8806   12.7610 H         1 RES1    0.0000
     37 H11       -0.2334    3.5379   13.9547 H         1 RES1    0.0000
     38 H12       -0.6469    1.4547   13.2141 H         1 RES1    0.0000
     39 H13        0.5342    0.5658   11.4884 H         1 RES1    0.0000
     40 H14        1.9827    1.8179   10.3947 H         1 RES1    0.0000
     41 H15       -2.1678    6.0055    3.8044 H         1 RES1    0.0000
     42 H16        1.2409    7.9167    3.4810 H         1 RES1    0.0000
     43 H17       -0.5670    6.8158    2.1342 H         1 RES1    0.0000
     44 H18        0.7990    4.2516    5.8374 H         1 RES1    0.0000
     45 H19       -1.1441    8.8190    2.1762 H         1 RES1    0.0000
@<TRIPOS>BOND
     1    1   10 1
     2    2    7 1
     3    3   25 2
     4    4   20 1
     5    5   24 2
     6    6   23 1
     7    7   17 1
     8    8   10 1
     9    9   20 1
    10   10   22 1
    11   11   12 ar
    12   12   13 ar
    13   13   14 ar
    14   14   15 ar
    15   15   16 ar
    16   16   11 ar
    17   17    8 1
    18   18    1 1
    19   19    7 1
    20   20   29 1
    21   21   17 1
    22   22    2 1
    23   23   18 1
    24   24    8 1
    25   25    9 1
    26   26    4 1
    27   27   19 1
    28   28   19 1
    29   30   20 1
    30   31   21 1
    31   32   10 1
    32   33   21 1
    33   34   26 1
    34   35   26 1
    35   36   12 1
    36   37   13 1
    37   38   14 1
    38   39   15 1
    39   40   16 1
    40   41   18 1
    41   42   22 1
    42   43   23 1
    43   44   17 1
    44   45    6 1
    45    9   24 1
    46   11   26 1
    47   18   19 1
    48   21   25 1
    49   22   23 1
@<TRIPOS>SUBSTRUCTURE
     1 RES1 1

@<TRIPOS>CRYSIN
  10.2110    6.6639   12.4800  90.0000  98.4720  90.0000   4 1

