# MOL2 file generated by ConQuest
# Please check atom types

@<TRIPOS>MOLECULE
COSQIM
    60    62     1
SMALL
USER_CHARGES
****
Generated from CSD

@<TRIPOS>ATOM
      1 C1         2.2237    9.2477    8.3361 C.ar      1 RES1    0.0000
      2 C2         1.1200    9.3928    9.1687 C.ar      1 RES1    0.0000
      3 H1         0.5853   10.1506    9.1064 H         1 RES1    0.0000
      4 C3         0.8158    8.4047   10.0976 C.ar      1 RES1    0.0000
      5 H2         0.0773    8.5021   10.6553 H         1 RES1    0.0000
      6 C4         1.6154    7.2716   10.1940 C.ar      1 RES1    0.0000
      7 H3         1.4116    6.6102   10.8173 H         1 RES1    0.0000
      8 C5         2.7187    7.1265    9.3597 C.ar      1 RES1    0.0000
      9 H4         3.2533    6.3687    9.4262 H         1 RES1    0.0000
     10 C6         3.0228    8.1146    8.4325 C.ar      1 RES1    0.0000
     11 H5         3.7613    8.0182    7.8773 H         1 RES1    0.0000
     12 O1         1.0865    7.6632    4.0188 O.3       1 RES1    0.0000
     13 C7         0.6747    8.7030    4.7658 C.2       1 RES1    0.0000
     14 C8         1.0426    5.7854    2.6223 C.3       1 RES1    0.0000
     15 H6         1.6797    6.2510    2.0762 H         1 RES1    0.0000
     16 H7         0.5216    5.1950    2.0721 H         1 RES1    0.0000
     17 H8         1.5067    5.2762    3.2888 H         1 RES1    0.0000
     18 C9        -0.7703    6.1060    4.2991 C.3       1 RES1    0.0000
     19 H9        -0.2347    5.7195    4.9955 H         1 RES1    0.0000
     20 H10       -1.2721    5.4151    3.8618 H         1 RES1    0.0000
     21 H11       -1.3745    6.7481    4.6799 H         1 RES1    0.0000
     22 C10        0.1254    6.7897    3.2979 C.3       1 RES1    0.0000
     23 C11       -0.6235    7.5891    2.2635 C.3       1 RES1    0.0000
     24 H12       -1.2381    8.1826    2.7033 H         1 RES1    0.0000
     25 H13       -1.1085    6.9936    1.6859 H         1 RES1    0.0000
     26 H14       -0.0005    8.1014    1.7441 H         1 RES1    0.0000
     27 O2        -0.4824    9.0895    4.8829 O.2       1 RES1    0.0000
     28 N1         1.7314    9.2619    5.3679 N.am      1 RES1    0.0000
     29 H15        2.4945    8.8754    5.2820 H         1 RES1    0.0000
     30 C12        0.2446   11.8315    2.1742 C.ar      1 RES1    0.0000
     31 C13        0.0110   11.5576    0.8085 C.ar      1 RES1    0.0000
     32 H16       -0.7139   11.9066    0.3405 H         1 RES1    0.0000
     33 C14        0.9459   10.7298    0.2226 C.ar      1 RES1    0.0000
     34 H17        0.8571   10.5178   -0.6769 H         1 RES1    0.0000
     35 C15        1.3170   11.3284    2.8773 C.ar      1 RES1    0.0000
     36 C16        2.2478   10.4813    2.2677 C.ar      1 RES1    0.0000
     37 H18        2.9721   10.1313    2.7365 H         1 RES1    0.0000
     38 C17        2.0351   10.1932    0.9464 C.ar      1 RES1    0.0000
     39 H19        2.6277    9.6251    0.5108 H         1 RES1    0.0000
     40 N2        -0.4542   12.6228    3.0729 N.pl3     1 RES1    1.0000
     41 N3         0.1139   12.6238    4.2630 N.2       1 RES1    0.0000
     42 N4         1.2093   11.8315    4.1438 N.pl3     1 RES1    0.0000
     43 O3        -1.5365   13.2842    2.8324 O.2       1 RES1   -1.0000
     44 C18        2.1255   11.6753    5.2836 C.3       1 RES1    0.0000
     45 H20        2.9915   11.4197    4.9041 H         1 RES1    0.0000
     46 C19        1.6755   10.4793    6.1594 C.3       1 RES1    0.0000
     47 H21        0.7547   10.6274    6.4613 H         1 RES1    0.0000
     48 C20        2.5979   10.3575    7.3848 C.3       1 RES1    0.0000
     49 H22        3.5057   10.2104    7.0759 H         1 RES1    0.0000
     50 H23        2.5849   11.1985    7.8690 H         1 RES1    0.0000
     51 O4         0.4306   12.8744    7.4463 O.2       1 RES1    0.0000
     52 O5         1.2532   14.8678    6.8383 O.3       1 RES1    0.0000
     53 C21        0.1934   15.4805    7.6676 C.3       1 RES1    0.0000
     54 H24       -0.6658   15.2157    7.3333 H         1 RES1    0.0000
     55 H25        0.2728   16.4361    7.6323 H         1 RES1    0.0000
     56 H26        0.2901   15.1863    8.5749 H         1 RES1    0.0000
     57 C22        1.2255   13.5287    6.8155 C.2       1 RES1    0.0000
     58 C23        2.3455   13.0124    5.9651 C.3       1 RES1    0.0000
     59 H27        3.1378   12.9413    6.5194 H         1 RES1    0.0000
     60 H28        2.5321   13.6728    5.2778 H         1 RES1    0.0000
@<TRIPOS>BOND
     1    1    2 ar
     2    2    3 1
     3    4    2 ar
     4    5    4 1
     5    6    4 ar
     6    7    6 1
     7    8    6 ar
     8    9    8 1
     9   10    1 ar
    10   11   10 1
    11   12   13 1
    12   13   27 2
    13   14   15 1
    14   16   14 1
    15   17   14 1
    16   18   19 1
    17   20   18 1
    18   21   18 1
    19   22   12 1
    20   23   22 1
    21   24   23 1
    22   25   23 1
    23   26   23 1
    24   28   13 1
    25   29   28 1
    26   30   31 ar
    27   31   32 1
    28   33   31 ar
    29   34   33 1
    30   35   30 ar
    31   36   35 ar
    32   37   36 1
    33   38   33 ar
    34   39   38 1
    35   40   30 1
    36   41   40 2
    37   42   35 1
    38   43   40 1
    39   44   42 1
    40   45   44 1
    41   46   28 1
    42   47   46 1
    43   48    1 1
    44   49   48 1
    45   50   48 1
    46   51   57 2
    47   52   53 1
    48   53   54 1
    49   55   53 1
    50   56   53 1
    51   57   52 1
    52   58   44 1
    53   59   58 1
    54   60   58 1
    55    8   10 ar
    56   14   22 1
    57   18   22 1
    58   36   38 ar
    59   41   42 1
    60   44   46 1
    61   46   48 1
    62   57   58 1
@<TRIPOS>SUBSTRUCTURE
     1 RES1 1

@<TRIPOS>CRYSIN
   5.2262   10.1445   41.5250  90.0000  90.0000  90.0000  19 1

