# MOL2 file generated by ConQuest
# Please check atom types

@<TRIPOS>MOLECULE
COSREJ
    89    91     1
SMALL
USER_CHARGES
****
Generated from CSD

@<TRIPOS>ATOM
      1 C1         6.4535   11.9405   17.2397 C.2       1 RES1    0.0000
      2 C2         7.7228   10.5095   18.8851 C.3       1 RES1    0.0000
      3 H1         7.9137    9.5898   19.1277 H         1 RES1    0.0000
      4 H2         8.5357   10.8877   18.5150 H         1 RES1    0.0000
      5 C3         5.1932   14.0300   17.4014 C.3       1 RES1    0.0000
      6 H3         5.2986   14.0913   16.4295 H         1 RES1    0.0000
      7 C4         3.7546   14.4145   17.7502 C.3       1 RES1    0.0000
      8 H4         3.6620   15.3772   17.6695 H         1 RES1    0.0000
      9 H5         3.5864   14.1811   18.6768 H         1 RES1    0.0000
     10 C5         6.2537   14.9507   18.0612 C.3       1 RES1    0.0000
     11 H6         7.1215   14.4984   18.0004 H         1 RES1    0.0000
     12 C6         5.9816   15.2314   19.5252 C.3       1 RES1    0.0000
     13 H7         5.1843   15.7784   19.6007 H         1 RES1    0.0000
     14 H8         5.8108   14.3922   19.9806 H         1 RES1    0.0000
     15 C7         7.7786   17.1555   22.2430 C.3       1 RES1    0.0000
     16 H9         8.6356   16.7035   22.0955 H         1 RES1    0.0000
     17 C8         6.3113    9.3009   15.6857 C.2       1 RES1    0.0000
     18 C9         7.1323   15.9410   20.2102 C.2       1 RES1    0.0000
     19 C10        7.0009   16.4219   16.1217 C.ar      1 RES1    0.0000
     20 C11        7.7597   15.5830   15.2867 C.ar      1 RES1    0.0000
     21 H10        7.9029   14.6856   15.4811 H         1 RES1    0.0000
     22 C12        6.7740   17.7523   15.7987 C.ar      1 RES1    0.0000
     23 C13        6.6399   10.5113   17.7891 C.3       1 RES1    0.0000
     24 H11        5.7937   10.1871   18.1621 H         1 RES1    0.0000
     25 C14        2.5485   14.4495   15.5274 C.3       1 RES1    0.0000
     26 H12        2.1902   15.3293   15.6649 H         1 RES1    0.0000
     27 H13        1.9570   13.9475   14.9615 H         1 RES1    0.0000
     28 H14        3.4100   14.5164   15.1086 H         1 RES1    0.0000
     29 C15        7.3582   16.9037   23.6769 C.2       1 RES1    0.0000
     30 C16        7.4780    7.1664   12.9603 C.3       1 RES1    0.0000
     31 H15        7.7741    6.4745   13.5573 H         1 RES1    0.0000
     32 H16        8.2107    7.7545   12.7632 H         1 RES1    0.0000
     33 H17        7.1575    6.7724   12.1457 H         1 RES1    0.0000
     34 C17        7.7660   13.0971   21.6786 C.ar      1 RES1    0.0000
     35 H18        8.2368   13.8682   21.9019 H         1 RES1    0.0000
     36 C18        8.2746   16.1799   14.1650 C.ar      1 RES1    0.0000
     37 H19        8.7824   15.6646   13.5818 H         1 RES1    0.0000
     38 C19        6.3527    7.9566   13.6185 C.3       1 RES1    0.0000
     39 C20        2.6889   13.7419   16.8733 C.3       1 RES1    0.0000
     40 H20        2.9716   12.8188   16.7040 H         1 RES1    0.0000
     41 C21        8.0685   17.5465   13.8553 C.ar      1 RES1    0.0000
     42 H21        8.4601   17.9041   13.0916 H         1 RES1    0.0000
     43 C22        5.8972    9.0781   12.6983 C.3       1 RES1    0.0000
     44 H22        6.6408    9.6512   12.4986 H         1 RES1    0.0000
     45 H23        5.2086    9.5883   13.1309 H         1 RES1    0.0000
     46 H24        5.5533    8.7036   11.8834 H         1 RES1    0.0000
     47 C23        7.9731   18.6424   21.9605 C.3       1 RES1    0.0000
     48 H25        7.1476   19.1077   22.1151 H         1 RES1    0.0000
     49 H26        8.2422   18.7619   21.0466 H         1 RES1    0.0000
     50 H27        8.6509   18.9924   22.5440 H         1 RES1    0.0000
     51 C24        7.3690   11.2729   20.1443 C.ar      1 RES1    0.0000
     52 C25        5.2266    7.0176   14.0418 C.3       1 RES1    0.0000
     53 H28        4.4668    7.5344   14.3194 H         1 RES1    0.0000
     54 H29        5.5254    6.4685   14.7704 H         1 RES1    0.0000
     55 H30        4.9799    6.4596   13.2999 H         1 RES1    0.0000
     56 C26        1.3539   13.7032   17.6127 C.3       1 RES1    0.0000
     57 H31        1.0901   14.5972   17.8435 H         1 RES1    0.0000
     58 H32        1.4457   13.1796   18.4121 H         1 RES1    0.0000
     59 H33        0.6860   13.3083   17.0471 H         1 RES1    0.0000
     60 C27        8.0532   12.4312   20.4962 C.ar      1 RES1    0.0000
     61 H34        8.7112   12.7649   19.9315 H         1 RES1    0.0000
     62 C28        6.3653   10.8200   20.9937 C.ar      1 RES1    0.0000
     63 H35        5.8801   10.0598   20.7648 H         1 RES1    0.0000
     64 C29        7.3033   18.3553   14.6601 C.ar      1 RES1    0.0000
     65 H36        7.1485   19.2499   14.4567 H         1 RES1    0.0000
     66 C30        7.8488   17.3127   25.9392 C.3       1 RES1    0.0000
     67 H37        7.7984   16.3802   26.1637 H         1 RES1    0.0000
     68 H38        6.9955   17.7260   26.0926 H         1 RES1    0.0000
     69 H39        8.5132   17.7380   26.4872 H         1 RES1    0.0000
     70 C31        6.0754   11.4874   22.1830 C.ar      1 RES1    0.0000
     71 H40        5.4048   11.1691   22.7449 H         1 RES1    0.0000
     72 C32        6.7857   12.6214   22.5266 C.ar      1 RES1    0.0000
     73 H41        6.6039   13.0628   23.3258 H         1 RES1    0.0000
     74 O1         8.2863   15.8935   19.7776 O.2       1 RES1    0.0000
     75 O2         5.1509    9.6648   15.5472 O.2       1 RES1    0.0000
     76 O3         8.2111   17.4541   24.5413 O.3       1 RES1    0.0000
     77 O4         7.0063    8.5205   14.8184 O.3       1 RES1    0.0000
     78 O5         7.2075   12.4052   16.3925 O.2       1 RES1    0.0000
     79 O6         5.5392   19.4559   16.9272 O.2       1 RES1   -1.0000
     80 O7         6.3850   16.2859   24.0107 O.2       1 RES1    0.0000
     81 N1         6.3470   16.2083   17.2992 N.pl3     1 RES1    0.0000
     82 N2         7.0908    9.6082   16.7351 N.am      1 RES1    0.0000
     83 H42        7.8768    9.2634   16.7873 H         1 RES1    0.0000
     84 N3         6.7960   16.5565   21.3591 N.am      1 RES1    0.0000
     85 H43        5.9656   16.5972   21.5784 H         1 RES1    0.0000
     86 N4         5.9895   18.2559   16.8226 N.pl3     1 RES1    1.0000
     87 N5         5.4447   12.6443   17.8014 N.am      1 RES1    0.0000
     88 H44        4.9475   12.2754   18.3974 H         1 RES1    0.0000
     89 N6         5.7228   17.3323   17.7362 N.2       1 RES1    0.0000
@<TRIPOS>BOND
     1    1   23 1
     2    2    3 1
     3    4    2 1
     4    5    6 1
     5    7    5 1
     6    8    7 1
     7    9    7 1
     8   10    5 1
     9   11   10 1
    10   12   10 1
    11   13   12 1
    12   14   12 1
    13   15   16 1
    14   17   75 2
    15   18   12 1
    16   19   20 ar
    17   20   21 1
    18   22   19 ar
    19   23    2 1
    20   24   23 1
    21   25   26 1
    22   27   25 1
    23   28   25 1
    24   29   15 1
    25   30   31 1
    26   32   30 1
    27   33   30 1
    28   34   35 1
    29   36   20 ar
    30   37   36 1
    31   38   30 1
    32   39    7 1
    33   40   39 1
    34   41   36 ar
    35   42   41 1
    36   43   38 1
    37   44   43 1
    38   45   43 1
    39   46   43 1
    40   47   15 1
    41   48   47 1
    42   49   47 1
    43   50   47 1
    44   51    2 1
    45   52   38 1
    46   53   52 1
    47   54   52 1
    48   55   52 1
    49   56   39 1
    50   57   56 1
    51   58   56 1
    52   59   56 1
    53   60   34 ar
    54   61   60 1
    55   62   51 ar
    56   63   62 1
    57   64   22 ar
    58   65   64 1
    59   66   67 1
    60   68   66 1
    61   69   66 1
    62   70   62 ar
    63   71   70 1
    64   72   34 ar
    65   73   72 1
    66   74   18 2
    67   76   29 1
    68   77   17 1
    69   78    1 2
    70   79   86 1
    71   80   29 2
    72   81   10 1
    73   82   17 1
    74   83   82 1
    75   84   15 1
    76   85   84 1
    77   86   22 1
    78   87    1 1
    79   88   87 1
    80   89   81 1
    81    5   87 1
    82   18   84 1
    83   19   81 1
    84   23   82 1
    85   25   39 1
    86   38   77 1
    87   41   64 ar
    88   51   60 ar
    89   66   76 1
    90   70   72 ar
    91   86   89 2
@<TRIPOS>SUBSTRUCTURE
     1 RES1 1

@<TRIPOS>CRYSIN
   9.0020   14.9700   24.5070  90.0000  90.0000  90.0000  19 1

