# MOL2 file generated by ConQuest
# Please check atom types

@<TRIPOS>MOLECULE
COTKUS
    21    21     1
SMALL
NO_CHARGES
****
Generated from CSD

@<TRIPOS>ATOM
      1 O1         0.4044    6.3697    8.9935 O.2       1 RES1    0.0000
      2 O2        -0.0806    4.3456    2.4611 O.2       1 RES1    0.0000
      3 O3         0.6028    2.4077    3.0415 O.2       1 RES1    0.0000
      4 O4         2.1202    5.1255    9.1258 O.2       1 RES1    0.0000
      5 N1         1.1641    5.5662    8.5144 N.pl3     1 RES1    0.0000
      6 N2         0.3510    3.5784    3.3061 N.pl3     1 RES1    0.0000
      7 N3         1.5487    1.9153    5.4740 N.pl3     1 RES1    0.0000
      8 H1         1.9044    1.5144    6.1617 H         1 RES1    0.0000
      9 H2         1.5032    1.5507    4.7077 H         1 RES1    0.0000
     10 C1         0.3677    5.9517    6.1760 C.ar      1 RES1    0.0000
     11 C2         0.9403    5.0938    7.1318 C.ar      1 RES1    0.0000
     12 C3         1.3278    3.8070    6.8947 C.ar      1 RES1    0.0000
     13 H3         1.7243    3.3826    7.5919 H         1 RES1    0.0000
     14 C4         1.1501    3.2148    5.6421 C.ar      1 RES1    0.0000
     15 C5         0.5710    4.0500    4.6564 C.ar      1 RES1    0.0000
     16 C6         0.1970    5.3640    4.9389 C.ar      1 RES1    0.0000
     17 H4        -0.0521    5.9036    4.2429 H         1 RES1    0.0000
     18 C7        -0.0084    7.3709    6.3977 C.3       1 RES1    0.0000
     19 H5        -0.7756    7.5631    6.9721 H         1 RES1    0.0000
     20 H6         0.7415    7.8080    6.8768 H         1 RES1    0.0000
     21 H7        -0.2263    7.7173    5.6015 H         1 RES1    0.0000
@<TRIPOS>BOND
     1    1    5 2
     2    2    6 2
     3    3    6 2
     4    4    5 2
     5    5   11 1
     6    6   15 1
     7    7    8 1
     8    9    7 1
     9   10   11 ar
    10   11   12 ar
    11   12   13 1
    12   14    7 1
    13   15   14 ar
    14   16   10 ar
    15   17   16 1
    16   18   10 1
    17   19   18 1
    18   20   18 1
    19   21   18 1
    20   12   14 ar
    21   15   16 ar
@<TRIPOS>SUBSTRUCTURE
     1 RES1 1

@<TRIPOS>CRYSIN
   7.6090    9.0685   12.1310  90.0000 100.7480  90.0000 231 1

