# MOL2 file generated by ConQuest
# Please check atom types

@<TRIPOS>MOLECULE
COTLUT
    24    24     1
SMALL
NO_CHARGES
****
Generated from CSD

@<TRIPOS>ATOM
      1 O1        -0.6145    3.4360    3.2714 O.2       1 RES1    0.0000
      2 O2         0.3623    4.5808    1.7048 O.2       1 RES1    0.0000
      3 O3         5.5888    4.1660    2.2675 O.2       1 RES1    0.0000
      4 O4         6.1036    2.1083    1.9280 O.2       1 RES1    0.0000
      5 N1         0.3684    3.7207    2.5894 N.pl3     1 RES1    0.0000
      6 N2         3.1092    4.8648    2.7526 N.3       1 RES1    0.0000
      7 H1         3.8901    5.0542    2.6707 H         1 RES1    0.0000
      8 N3         5.2766    2.9696    2.2251 N.pl3     1 RES1    0.0000
      9 C1         2.4504    0.6790    2.9019 C.ar      1 RES1    0.0000
     10 C2         1.3885    1.5864    2.9246 C.ar      1 RES1    0.0000
     11 H2         0.4767    1.2790    2.9999 H         1 RES1    0.0000
     12 C3         1.5912    2.9381    2.7768 C.ar      1 RES1    0.0000
     13 C4         2.8770    3.5489    2.6699 C.ar      1 RES1    0.0000
     14 C5         3.9192    2.5748    2.5141 C.ar      1 RES1    0.0000
     15 C6         3.7008    1.2017    2.6436 C.ar      1 RES1    0.0000
     16 H3         4.3856    0.6086    2.5463 H         1 RES1    0.0000
     17 C7         2.2373   -0.7973    3.1089 C.3       1 RES1    0.0000
     18 H4         1.9962   -0.9902    4.0316 H         1 RES1    0.0000
     19 H5         1.5713   -1.1243    2.5902 H         1 RES1    0.0000
     20 H6         3.0041   -1.2997    2.8755 H         1 RES1    0.0000
     21 C8         2.2106    5.8918    3.2589 C.3       1 RES1    0.0000
     22 H7         2.7865    6.5498    3.6950 H         1 RES1    0.0000
     23 H8         1.7290    6.3332    2.5243 H         1 RES1    0.0000
     24 H9         1.5349    5.4771    3.9145 H         1 RES1    0.0000
@<TRIPOS>BOND
     1    1    5 2
     2    2    5 2
     3    3    8 2
     4    4    8 2
     5    5   12 1
     6    6    7 1
     7    8   14 1
     8    9   10 ar
     9   10   11 1
    10   12   10 ar
    11   13    6 1
    12   14   13 ar
    13   15    9 ar
    14   16   15 1
    15   17    9 1
    16   18   17 1
    17   19   17 1
    18   20   17 1
    19   21    6 1
    20   22   21 1
    21   23   21 1
    22   24   21 1
    23   12   13 ar
    24   14   15 ar
@<TRIPOS>SUBSTRUCTURE
     1 RES1 1

@<TRIPOS>CRYSIN
  12.0944   10.3147    7.4503  90.0000 100.8590  90.0000  14 1

