# MOL2 file generated by ConQuest
# Please check atom types

@<TRIPOS>MOLECULE
COTLIH
    21    21     1
SMALL
NO_CHARGES
****
Generated from CSD

@<TRIPOS>ATOM
      1 O1        -1.1107    3.8466    1.0318 O.2       1 RES1    0.0000
      2 O2         0.7962    3.3257    1.9241 O.2       1 RES1    0.0000
      3 O3         0.0738    3.0680    4.5475 O.2       1 RES1    0.0000
      4 O4         1.9411    4.0292    5.0939 O.2       1 RES1    0.0000
      5 N1        -1.4647    6.5092    0.9716 N.pl3     1 RES1    0.0000
      6 H1        -1.5181    5.7274    0.4376 H         1 RES1    0.0000
      7 H2        -1.6368    7.3563    0.6032 H         1 RES1    0.0000
      8 N2        -0.1902    4.0614    1.8284 N.pl3     1 RES1    0.0000
      9 N3         0.8468    4.0176    4.5333 N.pl3     1 RES1    0.0000
     10 C1        -0.6321    7.6302    2.9207 C.ar      1 RES1    0.0000
     11 C2        -0.8110    6.4384    2.1484 C.ar      1 RES1    0.0000
     12 C3        -0.2495    5.2432    2.6523 C.ar      1 RES1    0.0000
     13 C4         0.4241    5.2552    3.8823 C.ar      1 RES1    0.0000
     14 C5         0.5848    6.4023    4.6174 C.ar      1 RES1    0.0000
     15 H3         1.0159    6.3995    5.4701 H         1 RES1    0.0000
     16 C6         0.0535    7.5856    4.1041 C.ar      1 RES1    0.0000
     17 H4         0.1602    8.4165    4.6363 H         1 RES1    0.0000
     18 C7        -1.1786    8.9263    2.3903 C.3       1 RES1    0.0000
     19 H5        -1.0212    9.5616    3.0633 H         1 RES1    0.0000
     20 H6        -0.7407    9.2041    1.5671 H         1 RES1    0.0000
     21 H7        -2.1440    8.8235    2.1703 H         1 RES1    0.0000
@<TRIPOS>BOND
     1    1    8 2
     2    2    8 2
     3    3    9 2
     4    4    9 2
     5    5    6 1
     6    7    5 1
     7    8   12 1
     8    9   13 1
     9   10   11 ar
    10   11    5 1
    11   12   11 ar
    12   13   12 ar
    13   14   13 ar
    14   15   14 1
    15   16   10 ar
    16   17   16 1
    17   18   10 1
    18   19   18 1
    19   20   18 1
    20   21   18 1
    21   14   16 ar
@<TRIPOS>SUBSTRUCTURE
     1 RES1 1

@<TRIPOS>CRYSIN
   8.2220    8.5235    8.6780 122.8950 118.4850  91.4240   2 1

