# MOL2 file generated by ConQuest
# Please check atom types

@<TRIPOS>MOLECULE
COVJOO
    33    35     1
SMALL
NO_CHARGES
****
Generated from CSD

@<TRIPOS>ATOM
      1 O1         3.9569    5.7944    9.1732 O.3       1 RES1    0.0000
      2 H1         4.6658    5.6283    8.5961 H         1 RES1    0.0000
      3 O2         4.2495    3.2839    8.0141 O.3       1 RES1    0.0000
      4 O3         0.2979   -2.4426    7.3706 O.2       1 RES1    0.0000
      5 O4        -1.4264   -1.2272    7.0435 O.2       1 RES1    0.0000
      6 N1        -0.2235   -1.3622    7.2499 N.pl3     1 RES1    0.0000
      7 C1         3.9986    4.6847   10.0509 C.3       1 RES1    0.0000
      8 H2         4.8970    4.6243   10.4384 H         1 RES1    0.0000
      9 C2         3.7017    3.4030    9.3193 C.3       1 RES1    0.0000
     10 H3         3.7341    2.5894    9.8650 H         1 RES1    0.0000
     11 C3         2.8167    3.3468    8.1699 C.3       1 RES1    0.0000
     12 H4         2.3949    4.1932    7.9115 H         1 RES1    0.0000
     13 C4         3.0016    4.8835   11.1652 C.ar      1 RES1    0.0000
     14 C5         1.8534    5.6074   10.9829 C.ar      1 RES1    0.0000
     15 H5         1.6907    6.0150   10.1632 H         1 RES1    0.0000
     16 C6         0.9330    5.7366   12.0116 C.ar      1 RES1    0.0000
     17 H6         0.1643    6.2432   11.8812 H         1 RES1    0.0000
     18 C7         1.1470    5.1276   13.2068 C.ar      1 RES1    0.0000
     19 H7         0.5227    5.2081   13.8913 H         1 RES1    0.0000
     20 C8         2.2810    4.3995   13.3951 C.ar      1 RES1    0.0000
     21 H8         2.4327    3.9843   14.2137 H         1 RES1    0.0000
     22 C9         3.1974    4.2745   12.3919 C.ar      1 RES1    0.0000
     23 H9         3.9667    3.7712   12.5343 H         1 RES1    0.0000
     24 C10        2.0561    2.1113    7.8379 C.ar      1 RES1    0.0000
     25 C11        2.6413    0.8581    7.9586 C.ar      1 RES1    0.0000
     26 H10        3.5388    0.7927    8.1940 H         1 RES1    0.0000
     27 C12        1.9148   -0.2869    7.7377 C.ar      1 RES1    0.0000
     28 H11        2.3064   -1.1257    7.8234 H         1 RES1    0.0000
     29 C13        0.5913   -0.1560    7.3839 C.ar      1 RES1    0.0000
     30 C14        0.0043    1.0720    7.2113 C.ar      1 RES1    0.0000
     31 H12       -0.8841    1.1357    6.9433 H         1 RES1    0.0000
     32 C15        0.7484    2.2094    7.4371 C.ar      1 RES1    0.0000
     33 H13        0.3619    3.0465    7.3187 H         1 RES1    0.0000
@<TRIPOS>BOND
     1    1    2 1
     2    3    9 1
     3    4    6 2
     4    5    6 2
     5    6   29 1
     6    7    1 1
     7    8    7 1
     8    9    7 1
     9   10    9 1
    10   11    3 1
    11   12   11 1
    12   13    7 1
    13   14   13 ar
    14   15   14 1
    15   16   14 ar
    16   17   16 1
    17   18   16 ar
    18   19   18 1
    19   20   18 ar
    20   21   20 1
    21   22   13 ar
    22   23   22 1
    23   24   11 1
    24   25   24 ar
    25   26   25 1
    26   27   25 ar
    27   28   27 1
    28   29   27 ar
    29   30   29 ar
    30   31   30 1
    31   32   24 ar
    32   33   32 1
    33    9   11 1
    34   20   22 ar
    35   30   32 ar
@<TRIPOS>SUBSTRUCTURE
     1 RES1 1

@<TRIPOS>CRYSIN
   6.7080    8.3880   12.4070  90.0000 103.3220  90.0000   4 1

