# MOL2 file generated by ConQuest
# Please check atom types

@<TRIPOS>MOLECULE
COVLOQ
    35    38     1
SMALL
NO_CHARGES
****
Generated from CSD

@<TRIPOS>ATOM
      1 O1        -3.4596    6.8316    5.7481 O.3       1 RES1    0.0000
      2 O2        -1.0437    6.4393    4.2627 O.3       1 RES1    0.0000
      3 O3        -2.1224    4.9722    2.9390 O.3       1 RES1    0.0000
      4 O4        -5.1766    6.1176    3.5789 O.3       1 RES1    0.0000
      5 N1        -6.3048    5.4766    3.0279 N.2       1 RES1    0.0000
      6 C1        -3.2291    5.6881    4.9526 C.3       1 RES1    0.0000
      7 C2        -2.5548    4.5541    5.7430 C.3       1 RES1    0.0000
      8 C3        -1.8868    3.5211    4.8325 C.3       1 RES1    0.0000
      9 C4        -1.1614    4.1965    3.7038 C.3       1 RES1    0.0000
     10 C5        -0.2035    5.2711    4.1425 C.3       1 RES1    0.0000
     11 C6        -2.3213    6.0628    3.7723 C.3       1 RES1    0.0000
     12 C7        -4.5465    5.2481    4.3976 C.2       1 RES1    0.0000
     13 C8        -5.2262    4.0877    4.4250 C.2       1 RES1    0.0000
     14 C9        -6.3077    4.2738    3.5368 C.2       1 RES1    0.0000
     15 C10       -7.3003    3.2578    3.1213 C.ar      1 RES1    0.0000
     16 C11       -7.6755    2.2647    4.0174 C.ar      1 RES1    0.0000
     17 C12       -8.5839    1.2997    3.6291 C.ar      1 RES1    0.0000
     18 C13       -9.1008    1.3031    2.3522 C.ar      1 RES1    0.0000
     19 C14       -8.7153    2.2681    1.4642 C.ar      1 RES1    0.0000
     20 C15       -7.8237    3.2552    1.8323 C.ar      1 RES1    0.0000
     21 H1        -2.7220    7.1442    5.9280 H         1 RES1    0.0000
     22 H2        -1.9275    4.9355    6.2244 H         1 RES1    0.0000
     23 H3        -3.2321    4.1710    6.3548 H         1 RES1    0.0000
     24 H4        -1.2605    2.9477    5.3589 H         1 RES1    0.0000
     25 H5        -2.5847    2.8628    4.5408 H         1 RES1    0.0000
     26 H6        -0.7602    3.5933    3.0826 H         1 RES1    0.0000
     27 H7         0.1766    5.1309    4.9321 H         1 RES1    0.0000
     28 H8         0.4757    5.4962    3.4857 H         1 RES1    0.0000
     29 H9        -2.7024    6.7704    3.2367 H         1 RES1    0.0000
     30 H10       -4.9732    3.2960    4.8965 H         1 RES1    0.0000
     31 H11       -7.3224    2.2681    4.9321 H         1 RES1    0.0000
     32 H12       -8.7398    0.6286    4.2682 H         1 RES1    0.0000
     33 H13       -9.6962    0.6371    2.0274 H         1 RES1    0.0000
     34 H14       -9.0782    2.2851    0.5691 H         1 RES1    0.0000
     35 H15       -7.5039    3.8906    1.2567 H         1 RES1    0.0000
@<TRIPOS>BOND
     1    1    6 1
     2    2   10 1
     3    3    9 1
     4    4    5 1
     5    5   14 2
     6    6    7 1
     7    7    8 1
     8    8    9 1
     9    9   10 1
    10   10   27 1
    11   11    2 1
    12   12    4 1
    13   13   12 2
    14   14   13 1
    15   15   14 1
    16   16   15 ar
    17   17   16 ar
    18   18   17 ar
    19   19   18 ar
    20   20   15 ar
    21   21    1 1
    22   22    7 1
    23   23    7 1
    24   24    8 1
    25   25    8 1
    26   26    9 1
    27   28   10 1
    28   29   11 1
    29   30   13 1
    30   31   16 1
    31   32   17 1
    32   33   18 1
    33   34   19 1
    34   35   20 1
    35    3   11 1
    36    6   11 1
    37    6   12 1
    38   19   20 ar
@<TRIPOS>SUBSTRUCTURE
     1 RES1 1

@<TRIPOS>CRYSIN
   9.8090    9.8090   11.8560  90.0000  90.0000 120.0000 144 1

