# MOL2 file generated by ConQuest
# Please check atom types

@<TRIPOS>MOLECULE
COWTAJ
    54    57     1
SMALL
NO_CHARGES
****
Generated from CSD

@<TRIPOS>ATOM
      1 C1        13.0392    3.4773    1.6852 C.2       1 RES1    0.0000
      2 C2        12.9766    2.2306    2.2360 C.2       1 RES1    0.0000
      3 C3        11.7752    1.6569    1.8194 C.2       1 RES1    0.0000
      4 C4        11.2311    0.3473    2.0858 C.2       1 RES1    0.0000
      5 C5         9.9953    0.0174    1.3963 C.2       1 RES1    0.0000
      6 C6         9.3349    0.9973    0.4812 C.ar      1 RES1    0.0000
      7 C7         7.5769    1.3901   -0.9137 C.ar      1 RES1    0.0000
      8 C8         7.9446    2.7110   -1.0589 C.ar      1 RES1    0.0000
      9 C9         9.0761    3.1921   -0.4616 C.ar      1 RES1    0.0000
     10 C10        9.8665    2.3093    0.3222 C.ar      1 RES1    0.0000
     11 C11       11.1132    2.5692    0.9848 C.2       1 RES1    0.0000
     12 C12       14.0183    4.5447    1.7360 C.2       1 RES1    0.0000
     13 C13       16.1718    5.2122    2.7048 C.3       1 RES1    0.0000
     14 C14       16.8899    5.1618    1.5531 C.3       1 RES1    0.0000
     15 C15        6.3780    0.8794   -1.6395 C.2       1 RES1    0.0000
     16 C16        5.0707   -0.9680   -2.2542 C.3       1 RES1    0.0000
     17 C17        9.4242    4.6408   -0.6902 C.2       1 RES1    0.0000
     18 C18        8.5082    6.7978   -0.9703 C.3       1 RES1    0.0000
     19 C19        9.1858   -3.2406    2.3906 C.ar      1 RES1    0.0000
     20 C20        9.6300   -4.3138    3.1940 C.ar      1 RES1    0.0000
     21 C21        8.9171   -5.4855    3.2622 C.ar      1 RES1    0.0000
     22 C22        7.7548   -5.6060    2.5844 C.ar      1 RES1    0.0000
     23 C23        7.2578   -4.5685    1.8325 C.ar      1 RES1    0.0000
     24 C24        7.9762   -3.4018    1.7294 C.ar      1 RES1    0.0000
     25 N1        11.9042    3.6587    0.9290 N.pl3     1 RES1    0.0000
     26 N2         9.3696   -1.1153    1.4979 N.2       1 RES1    0.0000
     27 N3         9.8842   -2.0630    2.2861 N.pl3     1 RES1    0.0000
     28 N4        10.8515   -4.2260    3.9713 N.pl3     1 RES1    0.0000
     29 N5         7.0024   -6.8511    2.6787 N.pl3     1 RES1    0.0000
     30 N6         8.2429    0.5476   -0.1343 N.ar      1 RES1    0.0000
     31 O1        11.8019   -0.4589    2.8406 O.2       1 RES1    0.0000
     32 O2        15.0936    4.1850    2.4254 O.3       1 RES1    0.0000
     33 O3        13.8613    5.6260    1.2403 O.2       1 RES1    0.0000
     34 O4        11.6278   -3.3097    3.7913 O.2       1 RES1    0.0000
     35 O5        11.0370   -5.0777    4.8378 O.2       1 RES1    0.0000
     36 O6         7.5023   -7.7761    3.2956 O.2       1 RES1    0.0000
     37 O7         5.9283   -6.9089    2.1076 O.2       1 RES1    0.0000
     38 O8         5.6780    1.6125   -2.2861 O.2       1 RES1    0.0000
     39 O9         6.1886   -0.4096   -1.5248 O.3       1 RES1    0.0000
     40 O10       10.5139    5.1099   -0.7853 O.2       1 RES1    0.0000
     41 O11        8.3171    5.3511   -0.7983 O.3       1 RES1    0.0000
     42 H1        11.7633    4.3470    0.5588 H         1 RES1    0.0000
     43 H2        10.7212   -1.8500    2.6925 H         1 RES1    0.0000
     44 H3        13.6541    1.8491    2.7941 H         1 RES1    0.0000
     45 H4         7.4031    3.2292   -1.5095 H         1 RES1    0.0000
     46 H5         4.2673   -0.3782   -2.0393 H         1 RES1    0.0000
     47 H6         5.0433   -0.6038   -3.1207 H         1 RES1    0.0000
     48 H7         5.0447   -1.7966   -2.0684 H         1 RES1    0.0000
     49 H8         9.0642    6.9377   -1.6837 H         1 RES1    0.0000
     50 H9         7.5821    7.1104   -0.8636 H         1 RES1    0.0000
     51 H10        9.1999    7.2837   -0.0581 H         1 RES1    0.0000
     52 H11        9.2113   -6.1904    3.7594 H         1 RES1    0.0000
     53 H12        6.4189   -4.6309    1.4442 H         1 RES1    0.0000
     54 H13        7.6254   -2.6219    1.3426 H         1 RES1    0.0000
@<TRIPOS>BOND
     1    1    2 2
     2    2    3 1
     3    3    4 1
     4    4    5 1
     5    5    6 1
     6    6   10 ar
     7    7    8 ar
     8    8    9 ar
     9    9   10 ar
    10   10   11 1
    11   11    3 2
    12   12    1 1
    13   13   14 1
    14   15    7 1
    15   16   39 1
    16   17    9 1
    17   18   41 1
    18   19   20 ar
    19   20   21 ar
    20   21   22 ar
    21   22   23 ar
    22   23   24 ar
    23   24   19 ar
    24   25    1 1
    25   26    5 2
    26   27   19 1
    27   28   20 1
    28   29   22 1
    29   30    6 ar
    30   31    4 2
    31   32   12 1
    32   33   12 2
    33   34   28 2
    34   35   28 2
    35   36   29 2
    36   37   29 2
    37   38   15 2
    38   39   15 1
    39   40   17 2
    40   41   17 1
    41   42   25 1
    42   43   27 1
    43   44    2 1
    44   45    8 1
    45   46   16 1
    46   47   16 1
    47   48   16 1
    48   49   18 1
    49   50   18 1
    50   51   18 1
    51   52   21 1
    52   53   23 1
    53   54   24 1
    54    7   30 ar
    55   11   25 1
    56   13   32 1
    57   26   27 1
@<TRIPOS>SUBSTRUCTURE
     1 RES1 1

@<TRIPOS>CRYSIN
  11.0180   15.4510    7.5070  92.6800 104.6900  86.8300   2 1

