# MOL2 file generated by ConQuest
# Please check atom types

@<TRIPOS>MOLECULE
COWZEV
    12    10     2
SMALL
NO_CHARGES
****
Generated from CSD

@<TRIPOS>ATOM
      1 O1         2.1047    1.4623    4.7860 O.2       1 RES1    0.0000
      2 O2        -0.0534    1.4623    4.5237 O.2       1 RES1    0.0000
      3 O3        -0.8489    1.4623    1.9970 O.2       1 RES1    0.0000
      4 N1         1.3173    1.4623    2.7431 N.am      1 RES1    0.0000
      5 H1         2.1956    1.4623    2.5266 H         1 RES1    0.0000
      6 N2         1.0874    1.4623    4.1073 N.pl3     1 RES1    0.0000
      7 C1         0.3359    1.4623    1.7604 C.2       1 RES1    0.0000
      8 C2         0.9343    1.4623    0.3868 C.3       1 RES1    0.0000
      9 H2         0.2320    1.4623   -0.2676 H         1 RES1    0.0000
     10 H3         1.4767    0.6785    0.2743 H         1 RES1    0.0000
     11 H4         1.4767    0.6785    0.2743 Du        2 SUP2    0.0000
     12 H3G        1.4767    2.2460    0.2743 H         1 RES1    0.0000
@<TRIPOS>BOND
     1    1    6 2
     2    2    6 2
     3    3    7 2
     4    4    5 1
     5    6    4 1
     6    7    4 1
     7    8    7 1
     8    9    8 1
     9   10    8 1
    10   12    8 1
@<TRIPOS>SUBSTRUCTURE
     1 RES1 1
     2 SUP2 11

@<TRIPOS>CRYSIN
   9.5090    5.8490    7.4530  90.0000  90.0000  90.0000  62 1

