# MOL2 file generated by ConQuest
# Please check atom types

@<TRIPOS>MOLECULE
COXMIL
    23    24     1
SMALL
NO_CHARGES
****
Generated from CSD

@<TRIPOS>ATOM
      1 C1         2.4312   10.3284    5.8959 C.3       1 RES1    0.0000
      2 C2         2.1852   11.2411    7.1233 C.3       1 RES1    0.0000
      3 C3         0.7633   11.7950    6.9555 C.3       1 RES1    0.0000
      4 C4         0.6325   11.8420    5.4526 C.ar      1 RES1    0.0000
      5 C5        -0.3038   12.5313    4.6937 C.ar      1 RES1    0.0000
      6 C6        -0.2801   12.3612    3.3083 C.ar      1 RES1    0.0000
      7 C7         0.6535   11.5151    2.7100 C.ar      1 RES1    0.0000
      8 C8         1.5930   10.8216    3.4742 C.ar      1 RES1    0.0000
      9 C9         1.5702   10.9978    4.8545 C.ar      1 RES1    0.0000
     10 N1         2.3259   10.5135    8.4242 N.pl3     1 RES1    0.0000
     11 O1         3.7934   10.2671    5.4977 O.3       1 RES1    0.0000
     12 O2         0.6506   13.0406    7.6425 O.3       1 RES1    0.0000
     13 O3         3.1516   10.9198    9.2304 O.2       1 RES1    0.0000
     14 O4         1.5890    9.5477    8.6128 O.2       1 RES1    0.0000
     15 H1         2.1289    9.4122    6.0763 H         1 RES1    0.0000
     16 H2         2.8014   11.9517    7.1467 H         1 RES1    0.0000
     17 H3         0.1111   11.2038    7.3091 H         1 RES1    0.0000
     18 H4        -0.9305   13.0985    5.1228 H         1 RES1    0.0000
     19 H5        -0.8611   12.8307    2.7530 H         1 RES1    0.0000
     20 H6         0.6408   11.4041    1.7323 H         1 RES1    0.0000
     21 H7         2.2261   10.2614    3.0508 H         1 RES1    0.0000
     22 H8         4.2299    9.7634    6.0099 H         1 RES1    0.0000
     23 H9        -0.1389   13.2989    7.6916 H         1 RES1    0.0000
@<TRIPOS>BOND
     1    1    2 1
     2    2    3 1
     3    3    4 1
     4    4    5 ar
     5    5    6 ar
     6    6    7 ar
     7    7    8 ar
     8    8    9 ar
     9    9    1 1
    10   10    2 1
    11   11    1 1
    12   12    3 1
    13   13   10 2
    14   14   10 2
    15   15    1 1
    16   16    2 1
    17   17    3 1
    18   18    5 1
    19   19    6 1
    20   20    7 1
    21   21    8 1
    22   22   11 1
    23   23   12 1
    24    4    9 ar
@<TRIPOS>SUBSTRUCTURE
     1 RES1 1

@<TRIPOS>CRYSIN
  19.8402   19.8402    8.7315  90.0000  90.0000  90.0000  88 1

