# MOL2 file generated by ConQuest
# Please check atom types

@<TRIPOS>MOLECULE
COXMIL01
    14    15     1
SMALL
NO_CHARGES
****
Generated from CSD

@<TRIPOS>ATOM
      1 C1         2.4346   10.3278    5.8967 C.3       1 RES1    0.0000
      2 C2         2.1856   11.2399    7.1259 C.3       1 RES1    0.0000
      3 C3         0.7642   11.7966    6.9580 C.3       1 RES1    0.0000
      4 C4         0.6333   11.8408    5.4532 C.ar      1 RES1    0.0000
      5 C5        -0.3063   12.5333    4.6942 C.ar      1 RES1    0.0000
      6 C6        -0.2827   12.3630    3.3080 C.ar      1 RES1    0.0000
      7 C7         0.6547   11.5149    2.7066 C.ar      1 RES1    0.0000
      8 C8         1.5942   10.8191    3.4740 C.ar      1 RES1    0.0000
      9 C9         1.5698   10.9974    4.8553 C.ar      1 RES1    0.0000
     10 N1         2.3271   10.5161    8.4255 N.pl3     1 RES1    0.0000
     11 O1         3.7925   10.2643    5.5004 O.3       1 RES1    0.0000
     12 O2         0.6500   13.0402    7.6406 O.3       1 RES1    0.0000
     13 O3         3.1554   10.9193    9.2320 O.2       1 RES1    0.0000
     14 O4         1.5900    9.5511    8.6162 O.2       1 RES1    0.0000
@<TRIPOS>BOND
     1    1    2 1
     2    2    3 1
     3    3    4 1
     4    4    5 ar
     5    5    6 ar
     6    6    7 ar
     7    7    8 ar
     8    8    9 ar
     9    9    1 1
    10   10    2 1
    11   11    1 1
    12   12    3 1
    13   13   10 2
    14   14   10 2
    15    4    9 ar
@<TRIPOS>SUBSTRUCTURE
     1 RES1 1

@<TRIPOS>CRYSIN
  19.8402   19.8402    8.7315  90.0000  90.0000  90.0000  88 1

