# MOL2 file generated by ConQuest
# Please check atom types

@<TRIPOS>MOLECULE
COXTOA
    39    40     1
SMALL
NO_CHARGES
****
Generated from CSD

@<TRIPOS>ATOM
      1 N1         4.5815   10.0253   20.7986 N.pl3     1 RES1    0.0000
      2 C1         4.0818    9.0537   20.0852 C.2       1 RES1    0.0000
      3 C2         3.5410    7.9800   21.0017 C.3       1 RES1    0.0000
      4 H1         3.6968    7.0647   20.6299 H         1 RES1    0.0000
      5 C3         4.3568    8.2206   22.2888 C.3       1 RES1    0.0000
      6 H2         5.2528    7.7920   22.1748 H         1 RES1    0.0000
      7 C4         4.5504    9.7452   22.2772 C.3       1 RES1    0.0000
      8 H3         3.7555   10.1905   22.6897 H         1 RES1    0.0000
      9 O1         5.0454   11.1737   20.3875 O.2       1 RES1    0.0000
     10 O2         2.1568    8.2230   21.2404 O.3       1 RES1    0.0000
     11 H4         1.6982    7.6371   20.8499 H         1 RES1    0.0000
     12 C5         4.0090    9.0424   18.6195 C.ar      1 RES1    0.0000
     13 C6         5.0264    9.6102   17.8433 C.ar      1 RES1    0.0000
     14 H5         5.7366   10.0836   18.2617 H         1 RES1    0.0000
     15 C7         4.9959    9.4802   16.4605 C.ar      1 RES1    0.0000
     16 H6         5.6909    9.8596   15.9364 H         1 RES1    0.0000
     17 C8         3.9582    8.8017   15.8404 C.ar      1 RES1    0.0000
     18 H7         3.9480    8.7129   14.8958 H         1 RES1    0.0000
     19 C9         2.9363    8.2541   16.5970 C.ar      1 RES1    0.0000
     20 H8         2.2199    7.7993   16.1698 H         1 RES1    0.0000
     21 C10        2.9595    8.3693   17.9820 C.ar      1 RES1    0.0000
     22 H9         2.2594    7.9892   18.5004 H         1 RES1    0.0000
     23 C11        3.7098    7.6412   23.5418 C.3       1 RES1    0.0000
     24 H10        3.5404    6.6849   23.4112 H         1 RES1    0.0000
     25 H11        2.8624    8.1017   23.7142 H         1 RES1    0.0000
     26 H12        4.3105    7.7643   24.3070 H         1 RES1    0.0000
     27 C12        5.8258   10.2942   22.8941 C.3       1 RES1    0.0000
     28 H13        6.5987    9.7785   22.5529 H         1 RES1    0.0000
     29 H14        5.9421   11.2358   22.6119 H         1 RES1    0.0000
     30 C13        5.8162   10.2273   24.4027 C.2       1 RES1    0.0000
     31 O3         4.8748   10.4576   25.1167 O.2       1 RES1    0.0000
     32 O4         7.0334    9.8969   24.8479 O.3       1 RES1    0.0000
     33 C14        7.1836    9.7268   26.2815 C.3       1 RES1    0.0000
     34 H15        6.6326   10.3979   26.7583 H         1 RES1    0.0000
     35 H16        8.1298    9.8660   26.5384 H         1 RES1    0.0000
     36 C15        6.7489    8.3414   26.6741 C.3       1 RES1    0.0000
     37 H17        7.2722    7.6804   26.1736 H         1 RES1    0.0000
     38 H18        5.7976    8.2271   26.4687 H         1 RES1    0.0000
     39 H19        6.8940    8.2132   27.6353 H         1 RES1    0.0000
@<TRIPOS>BOND
     1    1    2 2
     2    2    3 1
     3    3    4 1
     4    5    3 1
     5    6    5 1
     6    7    1 1
     7    8    7 1
     8    9    1 1
     9   10    3 1
    10   11   10 1
    11   12    2 1
    12   13   12 ar
    13   14   13 1
    14   15   13 ar
    15   16   15 1
    16   17   15 ar
    17   18   17 1
    18   19   17 ar
    19   20   19 1
    20   21   12 ar
    21   22   21 1
    22   23    5 1
    23   24   23 1
    24   25   23 1
    25   26   23 1
    26   27    7 1
    27   28   27 1
    28   29   27 1
    29   30   27 1
    30   31   30 2
    31   32   30 1
    32   33   32 1
    33   34   33 1
    34   35   33 1
    35   36   33 1
    36   37   36 1
    37   38   36 1
    38   39   36 1
    39    5    7 1
    40   19   21 ar
@<TRIPOS>SUBSTRUCTURE
     1 RES1 1

@<TRIPOS>CRYSIN
   5.6457    9.2180   26.8200  90.0000  90.0000  90.0000  19 1

