# MOL2 file generated by ConQuest
# Please check atom types

@<TRIPOS>MOLECULE
COXXOD
    13    13     1
SMALL
NO_CHARGES
****
Generated from CSD

@<TRIPOS>ATOM
      1 O1        -0.4078    0.2965    6.0436 O.2       1 RES1    0.0000
      2 O2         1.2600   -0.8266    6.8796 O.2       1 RES1    0.0000
      3 N1         0.7404    0.2115    3.5867 N.2       1 RES1    0.0000
      4 N2         1.6460   -0.1230    2.6803 N.3       1 RES1    0.0000
      5 N3         0.6619   -0.2865    5.9586 N.pl3     1 RES1    0.0000
      6 N4         2.4289   -1.0026    4.4344 N.2       1 RES1    0.0000
      7 N5         2.6623   -0.8464    3.1468 N.2       1 RES1    0.0000
      8 N6        -0.7164   -0.4580    0.2519 N.1       1 RES1    0.0000
      9 C1         1.5642    0.2889    1.2780 C.3       1 RES1    0.0000
     10 C2         0.2857   -0.1543    0.6988 C.1       1 RES1    0.0000
     11 C3         1.2763   -0.3602    4.6483 C.2       1 RES1    0.0000
     12 H1         2.3226   -0.1229    0.8147 H         1 RES1    0.0000
     13 H2         1.6138    1.2970    1.2343 H         1 RES1    0.0000
@<TRIPOS>BOND
     1    1    5 2
     2    2    5 2
     3    3    4 1
     4    4    7 1
     5    5   11 1
     6    6    7 2
     7    8   10 3
     8    9    4 1
     9   10    9 1
    10   11    3 2
    11   12    9 1
    12   13    9 1
    13    6   11 1
@<TRIPOS>SUBSTRUCTURE
     1 RES1 1

@<TRIPOS>CRYSIN
   5.4521    6.1470   17.4832  90.0000  90.0000  90.0000  19 1

