# MOL2 file generated by ConQuest
# Please check atom types

@<TRIPOS>MOLECULE
COXXUK
    37    37     1
SMALL
NO_CHARGES
****
Generated from CSD

@<TRIPOS>ATOM
      1 C1         1.7221    2.0233    4.7492 C.2       1 RES1    0.0000
      2 C2         1.8966    2.8353    6.0456 C.3       1 RES1    0.0000
      3 C3         1.2375    2.1324    7.2684 C.3       1 RES1    0.0000
      4 H1         0.2598    2.0793    7.0639 H         1 RES1    0.0000
      5 C4         1.7062    0.6870    7.4819 C.3       1 RES1    0.0000
      6 H2         1.6885    0.1969    6.6218 H         1 RES1    0.0000
      7 H3         2.6354    0.6812    7.8236 H         1 RES1    0.0000
      8 C5         1.2917    4.2103    5.7964 C.3       1 RES1    0.0000
      9 H4         1.4580    4.7861    6.5729 H         1 RES1    0.0000
     10 H5         0.3258    4.1218    5.6555 H         1 RES1    0.0000
     11 H6         1.7019    4.6081    5.0002 H         1 RES1    0.0000
     12 C6         1.3602    2.9744    8.5337 C.ar      1 RES1    0.0000
     13 C7         0.3063    3.8085    8.9027 C.ar      1 RES1    0.0000
     14 H7        -0.4836    3.8301    8.3745 H         1 RES1    0.0000
     15 C8         0.4004    4.6104   10.0367 C.ar      1 RES1    0.0000
     16 H8        -0.3240    5.1746   10.2781 H         1 RES1    0.0000
     17 C9         1.5497    4.5871   10.8130 C.ar      1 RES1    0.0000
     18 H9         1.6176    5.1419   11.5821 H         1 RES1    0.0000
     19 C10        2.5975    3.7516   10.4641 C.ar      1 RES1    0.0000
     20 H10        3.3807    3.7259   11.0001 H         1 RES1    0.0000
     21 C11        2.5089    2.9477    9.3294 C.ar      1 RES1    0.0000
     22 H11        3.2333    2.3783    9.0964 H         1 RES1    0.0000
     23 C12        2.7296    1.5142    2.6412 C.3       1 RES1    0.0000
     24 H12        2.2259    0.6664    2.7278 H         1 RES1    0.0000
     25 H13        3.6521    1.2950    2.3546 H         1 RES1    0.0000
     26 C13        2.0791    2.3770    1.6094 C.3       1 RES1    0.0000
     27 H14        2.1176    1.9298    0.7375 H         1 RES1    0.0000
     28 H15        2.5492    3.2353    1.5572 H         1 RES1    0.0000
     29 H16        1.1432    2.5320    1.8548 H         1 RES1    0.0000
     30 N1         3.3945    2.9727    6.3066 N.pl3     1 RES1    0.0000
     31 N2         0.7923    0.0157    8.4735 N.pl3     1 RES1    0.0000
     32 O1         2.7688    2.1975    3.9413 O.3       1 RES1    0.0000
     33 O2         0.7309    1.4022    4.5129 O.2       1 RES1    0.0000
     34 O3         4.0243    1.9450    6.4932 O.2       1 RES1    0.0000
     35 O4         3.8894    4.0930    6.3519 O.2       1 RES1    0.0000
     36 O5        -0.4114    0.1210    8.3074 O.2       1 RES1    0.0000
     37 O6         1.3082   -0.5992    9.3905 O.2       1 RES1    0.0000
@<TRIPOS>BOND
     1    1    2 1
     2    2    3 1
     3    3    4 1
     4    5    3 1
     5    6    5 1
     6    7    5 1
     7    8    2 1
     8    9    8 1
     9   10    8 1
    10   11    8 1
    11   12    3 1
    12   13   12 ar
    13   14   13 1
    14   15   13 ar
    15   16   15 1
    16   17   15 ar
    17   18   17 1
    18   19   17 ar
    19   20   19 1
    20   21   12 ar
    21   22   21 1
    22   23   24 1
    23   25   23 1
    24   26   23 1
    25   27   26 1
    26   28   26 1
    27   29   26 1
    28   30    2 1
    29   31    5 1
    30   32    1 1
    31   33    1 2
    32   34   30 2
    33   35   30 2
    34   36   31 2
    35   37   31 2
    36   19   21 ar
    37   23   32 1
@<TRIPOS>SUBSTRUCTURE
     1 RES1 1

@<TRIPOS>CRYSIN
   6.1133   10.5281   22.2134  90.0000  90.0000  90.0000  19 1

