# MOL2 file generated by ConQuest
# Please check atom types

@<TRIPOS>MOLECULE
COXXEU
    45    46     1
SMALL
NO_CHARGES
****
Generated from CSD

@<TRIPOS>ATOM
      1 O1         5.4787    8.9369    5.9044 O.3       1 RES1    0.0000
      2 O2         4.5647    8.4568   12.2176 O.2       1 RES1    0.0000
      3 O3         5.3738   11.3661    7.3291 O.2       1 RES1    0.0000
      4 O4         6.7235    8.2414    7.6489 O.2       1 RES1    0.0000
      5 N1         4.3916   10.7539    7.7198 N.pl3     1 RES1    0.0000
      6 O5         5.8612    6.7531   11.8763 O.2       1 RES1    0.0000
      7 O6         2.4645    7.5825   10.2416 O.3       1 RES1    0.0000
      8 H1         2.3883    7.3359   11.0400 H         1 RES1    0.0000
      9 O7         3.3064   11.2635    7.9378 O.2       1 RES1    0.0000
     10 N2         5.1274    7.6643   11.4807 N.pl3     1 RES1    0.0000
     11 C1         5.9313   10.0917   10.1108 C.ar      1 RES1    0.0000
     12 C2         4.8922    7.7385    9.9951 C.3       1 RES1    0.0000
     13 H2         5.6635    7.3146    9.5209 H         1 RES1    0.0000
     14 C3         7.9060   11.7828   11.1592 C.ar      1 RES1    0.0000
     15 H3         8.5789   12.3547   11.5089 H         1 RES1    0.0000
     16 C4         3.2857    8.5159    7.6826 C.3       1 RES1    0.0000
     17 H4         2.5095    8.9433    8.1241 H         1 RES1    0.0000
     18 H5         3.1423    8.5502    6.7048 H         1 RES1    0.0000
     19 C5         7.2470    9.6431   10.2565 C.ar      1 RES1    0.0000
     20 H6         7.4767    8.7597    9.9924 H         1 RES1    0.0000
     21 C6         4.5660    9.2722    8.0440 C.3       1 RES1    0.0000
     22 C7         5.7481    8.7745    7.1962 C.2       1 RES1    0.0000
     23 C8         5.6271   11.3979   10.5117 C.ar      1 RES1    0.0000
     24 H7         4.7336   11.7125   10.4364 H         1 RES1    0.0000
     25 C9         6.5053    8.4684    4.9660 C.3       1 RES1    0.0000
     26 H8         6.0869    8.2614    4.0932 H         1 RES1    0.0000
     27 H9         6.9197    7.6394    5.3130 H         1 RES1    0.0000
     28 C10        3.5901    6.9483    9.6566 C.3       1 RES1    0.0000
     29 C11        4.8030    9.2200    9.5845 C.3       1 RES1    0.0000
     30 H10        3.9657    9.5717   10.0048 H         1 RES1    0.0000
     31 C12        6.6027   12.2408   11.0165 C.ar      1 RES1    0.0000
     32 H11        6.3810   13.1307   11.2645 H         1 RES1    0.0000
     33 C13        3.6753    5.4861   10.0817 C.3       1 RES1    0.0000
     34 H12        3.7569    5.4341   11.0575 H         1 RES1    0.0000
     35 H13        4.4591    5.0705    9.6656 H         1 RES1    0.0000
     36 H14        2.8650    5.0151    9.7953 H         1 RES1    0.0000
     37 C14        3.4009    7.0629    8.1366 C.3       1 RES1    0.0000
     38 H15        4.1701    6.6392    7.6801 H         1 RES1    0.0000
     39 H16        2.5818    6.5727    7.8722 H         1 RES1    0.0000
     40 C15        8.2178   10.4796   10.7843 C.ar      1 RES1    0.0000
     41 H17        9.1059   10.1595   10.8903 H         1 RES1    0.0000
     42 C16        7.5624    9.5207    4.7812 C.3       1 RES1    0.0000
     43 H18        8.2263    9.2063    4.1331 H         1 RES1    0.0000
     44 H19        8.0022    9.6963    5.6397 H         1 RES1    0.0000
     45 H20        7.1482   10.3450    4.4524 H         1 RES1    0.0000
@<TRIPOS>BOND
     1    1   22 1
     2    2   10 2
     3    3    5 2
     4    4   22 2
     5    5    9 2
     6    6   10 2
     7    7    8 1
     8   10   12 1
     9   11   19 ar
    10   12   13 1
    11   14   15 1
    12   16   17 1
    13   18   16 1
    14   19   20 1
    15   21    5 1
    16   22   21 1
    17   23   11 ar
    18   24   23 1
    19   25    1 1
    20   26   25 1
    21   27   25 1
    22   28    7 1
    23   29   11 1
    24   30   29 1
    25   31   14 ar
    26   32   31 1
    27   33   28 1
    28   34   33 1
    29   35   33 1
    30   36   33 1
    31   37   16 1
    32   38   37 1
    33   39   37 1
    34   40   14 ar
    35   41   40 1
    36   42   25 1
    37   43   42 1
    38   44   42 1
    39   45   42 1
    40   12   28 1
    41   12   29 1
    42   16   21 1
    43   19   40 ar
    44   21   29 1
    45   23   31 ar
    46   28   37 1
@<TRIPOS>SUBSTRUCTURE
     1 RES1 1

@<TRIPOS>CRYSIN
   7.2993    9.2275   24.9435  90.0000  90.0000  90.0000  19 1

