# MOL2 file generated by ConQuest
# Please check atom types

@<TRIPOS>MOLECULE
COYLAF01
    35    35     1
SMALL
NO_CHARGES
****
Generated from CSD

@<TRIPOS>ATOM
      1 O1        -0.0000   -0.0000   -0.2608 O.3       1 RES1    0.0000
      2 N1        -0.7122    0.9145    0.5352 N.2       1 RES1    0.0000
      3 C1        -0.4402    0.5615    1.7536 C.2       1 RES1    0.0000
      4 N2        -0.8954    1.2565    2.8490 N.3       1 RES1    0.0000
      5 H1        -0.9334    0.7355    3.4892 H         1 RES1    0.0000
      6 C2        -1.8750    2.3047    2.6559 C.3       1 RES1    0.0000
      7 H2        -2.7773    1.9627    2.8749 H         1 RES1    0.0000
      8 H3        -1.8750    2.5903    1.7074 H         1 RES1    0.0000
      9 C3        -1.5534    3.4779    3.5355 C.3       1 RES1    0.0000
     10 N3        -2.3348    4.7209    3.1109 N.pl3     1 RES1    0.0000
     11 O2        -3.5252    4.5199    2.9698 O.2       1 RES1    0.0000
     12 O3        -1.7459    5.7642    2.9743 O.2       1 RES1    0.0000
     13 N4        -1.9222    3.2952    4.9956 N.pl3     1 RES1    0.0000
     14 O4        -2.0663    4.3066    5.6562 O.2       1 RES1    0.0000
     15 O5        -2.0455    2.1416    5.3671 O.2       1 RES1    0.0000
     16 N5        -0.0680    3.8125    3.4700 N.pl3     1 RES1    0.0000
     17 O6         0.3515    3.9670    2.3453 O.2       1 RES1    0.0000
     18 O7         0.5532    3.8567    4.5089 O.2       1 RES1    0.0000
     19 N1A        0.7122   -0.9145    0.5352 N.2       1 RES1    0.0000
     20 C1A        0.4402   -0.5615    1.7536 C.2       1 RES1    0.0000
     21 N2A        0.8954   -1.2565    2.8490 N.3       1 RES1    0.0000
     22 H1A        0.9334   -0.7355    3.4892 H         1 RES1    0.0000
     23 C2A        1.8750   -2.3047    2.6559 C.3       1 RES1    0.0000
     24 H2A        2.7773   -1.9627    2.8749 H         1 RES1    0.0000
     25 H3A        1.8750   -2.5903    1.7074 H         1 RES1    0.0000
     26 C3A        1.5534   -3.4779    3.5355 C.3       1 RES1    0.0000
     27 N3A        2.3348   -4.7209    3.1109 N.pl3     1 RES1    0.0000
     28 O2A        3.5252   -4.5199    2.9698 O.2       1 RES1    0.0000
     29 O3A        1.7459   -5.7642    2.9743 O.2       1 RES1    0.0000
     30 N4A        1.9222   -3.2952    4.9956 N.pl3     1 RES1    0.0000
     31 O4A        2.0663   -4.3066    5.6562 O.2       1 RES1    0.0000
     32 O5A        2.0455   -2.1416    5.3671 O.2       1 RES1    0.0000
     33 N5A        0.0680   -3.8125    3.4700 N.pl3     1 RES1    0.0000
     34 O6A       -0.3515   -3.9670    2.3453 O.2       1 RES1    0.0000
     35 O7A       -0.5532   -3.8567    4.5089 O.2       1 RES1    0.0000
@<TRIPOS>BOND
     1    1    2 1
     2    2    3 2
     3    3    4 1
     4    4    5 1
     5    6    4 1
     6    7    6 1
     7    8    6 1
     8    9    6 1
     9   10    9 1
    10   11   10 2
    11   12   10 2
    12   13    9 1
    13   14   13 2
    14   15   13 2
    15   16    9 1
    16   17   16 2
    17   18   16 2
    18   19    1 1
    19   20    3 1
    20   21   20 1
    21   22   21 1
    22   23   21 1
    23   24   23 1
    24   25   23 1
    25   26   23 1
    26   27   26 1
    27   28   27 2
    28   29   27 2
    29   30   26 1
    30   31   30 2
    31   32   30 2
    32   33   26 1
    33   34   33 2
    34   35   33 2
    35   19   20 2
@<TRIPOS>SUBSTRUCTURE
     1 RES1 1

@<TRIPOS>CRYSIN
  11.5240   12.2590   11.2920  90.0000  90.0000  90.0000  45 1

