# MOL2 file generated by ConQuest
# Please check atom types

@<TRIPOS>MOLECULE
COZQIT
    45    47     1
SMALL
NO_CHARGES
****
Generated from CSD

@<TRIPOS>ATOM
      1 O1         5.6264    7.2344    5.5241 O.2       1 RES1    0.0000
      2 N1         4.4929    4.9034    6.2884 N.3       1 RES1    0.0000
      3 H1         4.7959    5.6683    6.5398 H         1 RES1    0.0000
      4 C1         4.3211    4.7335    4.9743 C.2       1 RES1    0.0000
      5 C2         5.6969    7.8506    3.2352 C.ar      1 RES1    0.0000
      6 C3         3.6207    3.5148    4.4677 C.ar      1 RES1    0.0000
      7 C4         5.3518    6.9002    4.3520 C.2       1 RES1    0.0000
      8 C5         4.7235    5.6626    4.0355 C.2       1 RES1    0.0000
      9 H2         4.5745    5.4669    3.1389 H         1 RES1    0.0000
     10 C6         4.2230    3.9356    7.3401 C.3       1 RES1    0.0000
     11 H3         5.0357    3.7982    7.8512 H         1 RES1    0.0000
     12 H4         3.9887    3.0889    6.9292 H         1 RES1    0.0000
     13 C7         2.2857    3.2833    4.7861 C.ar      1 RES1    0.0000
     14 H5         1.8542    3.8375    5.3953 H         1 RES1    0.0000
     15 C8         4.2743    2.6540    3.5918 C.ar      1 RES1    0.0000
     16 H6         5.1678    2.8030    3.3807 H         1 RES1    0.0000
     17 C9         6.5040    8.9435    3.5236 C.ar      1 RES1    0.0000
     18 H7         6.7931    9.0818    4.3966 H         1 RES1    0.0000
     19 C10        2.2759    1.4084    3.3365 C.ar      1 RES1    0.0000
     20 C11        3.6112    1.5825    3.0334 C.ar      1 RES1    0.0000
     21 H8         4.0523    0.9917    2.4664 H         1 RES1    0.0000
     22 O2         2.1839   -0.4946    2.0203 O.2       1 RES1    0.0000
     23 N2         1.5582    0.2892    2.7082 N.pl3     1 RES1    0.0000
     24 C12        3.1171    4.3328    8.2889 C.ar      1 RES1    0.0000
     25 C13        6.8824    9.8277    2.5317 C.ar      1 RES1    0.0000
     26 H9         7.4263   10.5534    2.7408 H         1 RES1    0.0000
     27 C14        5.2457    7.6918    1.9388 C.ar      1 RES1    0.0000
     28 H10        4.6789    6.9860    1.7287 H         1 RES1    0.0000
     29 C15        2.9271    3.5739    9.4350 C.ar      1 RES1    0.0000
     30 H11        3.4713    2.8362    9.5943 H         1 RES1    0.0000
     31 C16        2.2860    5.4034    8.0833 C.ar      1 RES1    0.0000
     32 H12        2.3948    5.9249    7.3216 H         1 RES1    0.0000
     33 C17        1.5981    2.2361    4.2038 C.ar      1 RES1    0.0000
     34 H13        0.6990    2.0938    4.3928 H         1 RES1    0.0000
     35 O3         0.3937    0.1299    2.9950 O.2       1 RES1    0.0000
     36 C18        6.4629    9.6398    1.2462 C.ar      1 RES1    0.0000
     37 H14        6.7345   10.2240    0.5746 H         1 RES1    0.0000
     38 C19        5.6361    8.5839    0.9507 C.ar      1 RES1    0.0000
     39 H15        5.3342    8.4650    0.0787 H         1 RES1    0.0000
     40 C20        1.1159    4.9736   10.1142 C.ar      1 RES1    0.0000
     41 H16        0.4453    5.1882   10.7224 H         1 RES1    0.0000
     42 C21        1.2863    5.7249    8.9908 C.ar      1 RES1    0.0000
     43 H17        0.7312    6.4546    8.8306 H         1 RES1    0.0000
     44 C22        1.9348    3.9016   10.3445 C.ar      1 RES1    0.0000
     45 H18        1.8254    3.3916   11.1138 H         1 RES1    0.0000
@<TRIPOS>BOND
     1    1    7 2
     2    2    3 1
     3    4    2 1
     4    5    7 1
     5    6    4 1
     6    7    8 1
     7    8    4 2
     8    9    8 1
     9   10    2 1
    10   11   10 1
    11   12   10 1
    12   13    6 ar
    13   14   13 1
    14   15    6 ar
    15   16   15 1
    16   17    5 ar
    17   18   17 1
    18   19   20 ar
    19   20   15 ar
    20   21   20 1
    21   22   23 2
    22   23   19 1
    23   24   10 1
    24   25   17 ar
    25   26   25 1
    26   27    5 ar
    27   28   27 1
    28   29   24 ar
    29   30   29 1
    30   31   24 ar
    31   32   31 1
    32   33   13 ar
    33   34   33 1
    34   35   23 2
    35   36   25 ar
    36   37   36 1
    37   38   27 ar
    38   39   38 1
    39   40   41 1
    40   42   31 ar
    41   43   42 1
    42   44   29 ar
    43   45   44 1
    44   19   33 ar
    45   36   38 ar
    46   40   42 ar
    47   40   44 ar
@<TRIPOS>SUBSTRUCTURE
     1 RES1 1

@<TRIPOS>CRYSIN
   9.4640   10.0230   10.3260  86.4680  68.5710  89.4830   2 1

