# MOL2 file generated by ConQuest
# Please check atom types

@<TRIPOS>MOLECULE
CPGMAZ
    27    28     1
SMALL
NO_CHARGES
****
Generated from CSD

@<TRIPOS>ATOM
      1 C1        -6.5582   -1.9524    3.9217 C.ar      1 RES1    0.0000
      2 C2        -5.7493   -6.1616   -0.6289 C.3       1 RES1    0.0000
      3 C3        -6.7967   -6.8222   -1.3847 C.1       1 RES1    0.0000
      4 C4        -5.2284   -3.4989   -3.0177 C.3       1 RES1    0.0000
      5 C5        -6.5511   -1.8049    5.3191 C.ar      1 RES1    0.0000
      6 C6        -5.9624   -2.7103    6.0990 C.ar      1 RES1    0.0000
      7 C7        -5.4017   -3.8051    5.5246 C.ar      1 RES1    0.0000
      8 C8        -5.3681   -3.9976    4.1246 C.ar      1 RES1    0.0000
      9 C9        -5.9594   -3.0489    3.3333 C.ar      1 RES1    0.0000
     10 C10       -6.0486   -3.1663    1.8531 C.2       1 RES1    0.0000
     11 C11       -5.3557   -4.3461    1.0932 C.2       1 RES1    0.0000
     12 C12       -6.0085   -4.7503   -0.1825 C.3       1 RES1    0.0000
     13 H1        -6.9724   -1.3668    3.4924 H         1 RES1    0.0000
     14 H2        -5.1732   -6.7170   -0.1554 H         1 RES1    0.0000
     15 H3        -5.5657   -3.3282   -4.0026 H         1 RES1    0.0000
     16 H4        -4.2547   -3.4733   -3.2141 H         1 RES1    0.0000
     17 H5        -5.3443   -2.9309   -2.4558 H         1 RES1    0.0000
     18 H6        -6.8452   -0.9772    5.5053 H         1 RES1    0.0000
     19 H7        -6.0351   -2.7309    7.0382 H         1 RES1    0.0000
     20 H8        -4.8607   -4.4937    5.9598 H         1 RES1    0.0000
     21 H9        -5.1182   -4.7001    3.7730 H         1 RES1    0.0000
     22 H10       -6.6050   -4.1790   -0.5241 H         1 RES1    0.0000
     23 N1        -5.0171   -5.0492   -1.2812 N.3       1 RES1    0.0000
     24 N2        -7.6030   -7.4040   -1.9637 N.1       1 RES1    0.0000
     25 O1        -6.6174   -2.3560    1.1310 O.2       1 RES1    0.0000
     26 O2        -4.3089   -4.8118    1.4753 O.2       1 RES1    0.0000
     27 O3        -5.6595   -4.7782   -2.5544 O.3       1 RES1    0.0000
@<TRIPOS>BOND
     1    1    5 ar
     2    2    3 1
     3    3   24 3
     4    4   15 1
     5    5    6 ar
     6    6    7 ar
     7    7    8 ar
     8    8    9 ar
     9    9    1 ar
    10   10    9 1
    11   11   10 1
    12   12    2 1
    13   13    1 1
    14   14    2 1
    15   16    4 1
    16   17    4 1
    17   18    5 1
    18   19    6 1
    19   20    7 1
    20   21    8 1
    21   22   12 1
    22   23    2 1
    23   25   10 2
    24   26   11 2
    25   27    4 1
    26   11   12 1
    27   12   23 1
    28   23   27 1
@<TRIPOS>SUBSTRUCTURE
     1 RES1 1

@<TRIPOS>CRYSIN
  15.7000    6.4500   23.1900  90.0000  90.0000  90.0000  61 1

