# MOL2 file generated by ConQuest
# Please check atom types

@<TRIPOS>MOLECULE
CTMTNA
    21    21     1
SMALL
NO_CHARGES
****
Generated from CSD

@<TRIPOS>ATOM
      1 C1         2.4242    4.1412    4.7120 C.3       1 RES1    0.0000
      2 C2         0.6631    2.8241    3.6357 C.3       1 RES1    0.0000
      3 C3         1.9602    4.4132    2.3121 C.3       1 RES1    0.0000
      4 H1         3.1650    3.4074    4.5256 H         1 RES1    0.0000
      5 H2         2.6535    4.7083    5.6158 H         1 RES1    0.0000
      6 H3        -0.3441    2.4502    3.7910 H         1 RES1    0.0000
      7 H4         1.3380    2.0000    3.4183 H         1 RES1    0.0000
      8 H5         2.7049    3.6643    2.0529 H         1 RES1    0.0000
      9 H6         1.8982    5.1296    1.5132 H         1 RES1    0.0000
     10 N1         2.3214    5.0463    3.5661 N.3       1 RES1    0.0000
     11 N2         1.1561    3.4676    4.8587 N.3       1 RES1    0.0000
     12 N3         0.7066    3.7291    2.4941 N.3       1 RES1    0.0000
     13 N4         2.9791    6.2257    3.5832 N.pl3     1 RES1    0.0000
     14 N5         0.2043    4.0798    5.6693 N.pl3     1 RES1    0.0000
     15 N6        -0.4390    4.4849    2.2253 N.pl3     1 RES1    0.0000
     16 O1         2.9923    6.8657    2.5573 O.2       1 RES1    0.0000
     17 O2         3.4919    6.5821    4.6456 O.2       1 RES1    0.0000
     18 O3        -0.9135    3.6366    5.6351 O.2       1 RES1    0.0000
     19 O4         0.5985    4.9433    6.4147 O.2       1 RES1    0.0000
     20 O5        -1.4777    4.0903    2.6815 O.2       1 RES1    0.0000
     21 O6        -0.3111    5.4294    1.4886 O.2       1 RES1    0.0000
@<TRIPOS>BOND
     1    1    4 1
     2    2    6 1
     3    3    8 1
     4    5    1 1
     5    7    2 1
     6    9    3 1
     7   10    1 1
     8   11    1 1
     9   12    2 1
    10   13   10 1
    11   14   11 1
    12   15   12 1
    13   16   13 2
    14   17   13 2
    15   18   14 2
    16   19   14 2
    17   20   15 2
    18   21   15 2
    19    2   11 1
    20    3   10 1
    21    3   12 1
@<TRIPOS>SUBSTRUCTURE
     1 RES1 1

@<TRIPOS>CRYSIN
  13.1820   11.5740   10.7090  90.0000  90.0000  90.0000  61 1

