# MOL2 file generated by ConQuest
# Please check atom types

@<TRIPOS>MOLECULE
CTMTNA12
    21    21     1
SMALL
NO_CHARGES
****
Generated from CSD

@<TRIPOS>ATOM
      1 O1         6.6003    4.6410    3.4807 O.2       1 RES1    0.0000
      2 O2         6.8890    2.5491    2.9954 O.2       1 RES1    0.0000
      3 O3         5.4405    1.4875   -0.3176 O.2       1 RES1    0.0000
      4 O4         4.0998    2.7071   -1.4833 O.2       1 RES1    0.0000
      5 O5         3.6396    5.6296   -0.9222 O.2       1 RES1    0.0000
      6 O6         4.9581    6.4230    0.5902 O.2       1 RES1    0.0000
      7 N1         5.0623    3.5733    2.3249 N.3       1 RES1    0.0000
      8 N2         3.7354    2.4908    0.7082 N.3       1 RES1    0.0000
      9 N3         3.4758    4.8605    1.1562 N.3       1 RES1    0.0000
     10 N4         6.2425    3.5889    2.9805 N.pl3     1 RES1    0.0000
     11 N5         4.4998    2.2353   -0.4404 N.pl3     1 RES1    0.0000
     12 N6         4.0887    5.6752    0.2048 N.pl3     1 RES1    0.0000
     13 C1         4.1657    4.7152    2.4232 C.3       1 RES1    0.0000
     14 C2         4.4305    2.3135    1.9694 C.3       1 RES1    0.0000
     15 C3         2.8395    3.6398    0.6669 C.3       1 RES1    0.0000
     16 H1         4.6639    5.6092    2.7129 H         1 RES1    0.0000
     17 H2         3.3914    4.5030    3.1604 H         1 RES1    0.0000
     18 H3         5.1434    1.5257    1.9380 H         1 RES1    0.0000
     19 H4         3.6642    2.0718    2.7274 H         1 RES1    0.0000
     20 H5         2.4370    3.7831   -0.3327 H         1 RES1    0.0000
     21 H6         2.0155    3.4312    1.3426 H         1 RES1    0.0000
@<TRIPOS>BOND
     1    1   10 2
     2    2   10 2
     3    3   11 2
     4    4   11 2
     5    5   12 2
     6    6   12 2
     7    7   10 1
     8    8   11 1
     9    9   12 1
    10   13    7 1
    11   14    7 1
    12   15    8 1
    13   16   13 1
    14   17   13 1
    15   18   14 1
    16   19   14 1
    17   20   15 1
    18   21   15 1
    19    8   14 1
    20    9   13 1
    21    9   15 1
@<TRIPOS>SUBSTRUCTURE
     1 RES1 1

@<TRIPOS>CRYSIN
  11.6103   10.7291   13.2013  90.0000  90.0000  90.0000  61 1

