# MOL2 file generated by ConQuest
# Please check atom types

@<TRIPOS>MOLECULE
CTMTNA09
    21    21     1
SMALL
NO_CHARGES
****
Generated from CSD

@<TRIPOS>ATOM
      1 O1         5.3664    3.8828    6.9399 O.2       1 RES1    0.0000
      2 O2         4.0492    2.6244    8.1216 O.2       1 RES1    0.0000
      3 O3         3.6537   -0.3271    7.5394 O.2       1 RES1    0.0000
      4 O4         4.9658   -1.0933    5.9839 O.2       1 RES1    0.0000
      5 O5         6.5374    0.7027    3.0846 O.2       1 RES1    0.0000
      6 O6         6.8273    2.8059    3.5805 O.2       1 RES1    0.0000
      7 N1         3.6722    2.8308    5.9159 N.3       1 RES1    0.0000
      8 N2         3.4217    0.4517    5.4530 N.3       1 RES1    0.0000
      9 N3         5.0051    1.7610    4.2906 N.3       1 RES1    0.0000
     10 N4         4.4368    3.1075    7.0718 N.pl3     1 RES1    0.0000
     11 N5         4.0801   -0.3546    6.3964 N.pl3     1 RES1    0.0000
     12 N6         6.1823    1.7591    3.6022 N.pl3     1 RES1    0.0000
     13 C1         2.7825    1.6680    5.9618 C.3       1 RES1    0.0000
     14 H1         1.9728    1.8579    5.4239 H         1 RES1    0.0000
     15 H2         2.4965    1.5160    6.8967 H         1 RES1    0.0000
     16 C2         4.1057    0.6136    4.1730 C.3       1 RES1    0.0000
     17 H3         3.4461    0.7692    3.4510 H         1 RES1    0.0000
     18 H4         4.6213   -0.2035    3.9564 H         1 RES1    0.0000
     19 C3         4.3611    3.0255    4.6453 C.3       1 RES1    0.0000
     20 H5         5.0391    3.7414    4.7311 H         1 RES1    0.0000
     21 H6         3.7143    3.2876    3.9432 H         1 RES1    0.0000
@<TRIPOS>BOND
     1    1   10 2
     2    2   10 2
     3    3   11 2
     4    4   11 2
     5    5   12 2
     6    6   12 2
     7    7   10 1
     8    8   11 1
     9    9   12 1
    10   13    7 1
    11   14   13 1
    12   15   13 1
    13   16    8 1
    14   17   16 1
    15   18   16 1
    16   19    7 1
    17   20   19 1
    18   21   19 1
    19    8   13 1
    20    9   16 1
    21    9   19 1
@<TRIPOS>SUBSTRUCTURE
     1 RES1 1

@<TRIPOS>CRYSIN
  11.5100   10.6532   13.1969  90.0000  90.0000  90.0000  61 1

