# MOL2 file generated by ConQuest
# Please check atom types

@<TRIPOS>MOLECULE
CTMTNA03
    21    21     1
SMALL
NO_CHARGES
****
Generated from CSD

@<TRIPOS>ATOM
      1 O1        11.0179    3.8762   13.4941 O.2       1 RES1    0.0000
      2 O2         9.7177    2.6005   14.6747 O.2       1 RES1    0.0000
      3 O3         9.3464   -0.3448   14.0895 O.2       1 RES1    0.0000
      4 O4        10.6537   -1.1007   12.5283 O.2       1 RES1    0.0000
      5 O5        12.1936    0.6915    9.6293 O.2       1 RES1    0.0000
      6 O6        12.4839    2.7917   10.1273 O.2       1 RES1    0.0000
      7 N1         9.3418    2.8042   12.4714 N.3       1 RES1    0.0000
      8 N2         9.0964    0.4277   12.0051 N.3       1 RES1    0.0000
      9 N3        10.6735    1.7393   10.8483 N.3       1 RES1    0.0000
     10 N4        10.1003    3.0890   13.6246 N.pl3     1 RES1    0.0000
     11 N5         9.7668   -0.3719   12.9469 N.pl3     1 RES1    0.0000
     12 N6        11.8419    1.7440   10.1511 N.pl3     1 RES1    0.0000
     13 C1         8.4542    1.6408   12.5200 C.3       1 RES1    0.0000
     14 C2        10.0272    3.0025   11.2034 C.3       1 RES1    0.0000
     15 C3         9.7736    0.5963   10.7251 C.3       1 RES1    0.0000
     16 H1         7.7321    1.8092   11.9535 H         1 RES1    0.0000
     17 H2         8.1592    1.4916   13.3832 H         1 RES1    0.0000
     18 H3         9.3549    3.2076   10.5423 H         1 RES1    0.0000
     19 H4        10.6533    3.6924   11.2808 H         1 RES1    0.0000
     20 H5         9.1036    0.8045   10.0771 H         1 RES1    0.0000
     21 H6        10.2638   -0.1641   10.5187 H         1 RES1    0.0000
@<TRIPOS>BOND
     1    1   10 2
     2    2   10 2
     3    3   11 2
     4    4   11 2
     5    5   12 2
     6    6   12 2
     7    7   10 1
     8    8   11 1
     9    9   12 1
    10   13    7 1
    11   14    7 1
    12   15    8 1
    13   16   13 1
    14   17   13 1
    15   18   14 1
    16   19   14 1
    17   20   15 1
    18   21   15 1
    19    8   13 1
    20    9   14 1
    21    9   15 1
@<TRIPOS>SUBSTRUCTURE
     1 RES1 1

@<TRIPOS>CRYSIN
  11.4195   10.5861   13.1401  90.0000  90.0000  90.0000  61 1

