# MOL2 file generated by ConQuest
# Please check atom types

@<TRIPOS>MOLECULE
CTMTNA14
    21    21     1
SMALL
NO_CHARGES
****
Generated from CSD

@<TRIPOS>ATOM
      1 O1         6.4960    4.6068    3.5124 O.2       1 RES1    0.0000
      2 O2         6.7855    2.5104    3.0149 O.2       1 RES1    0.0000
      3 O3         5.3176    1.4245   -0.3535 O.2       1 RES1    0.0000
      4 O4         4.0181    2.6965   -1.5299 O.2       1 RES1    0.0000
      5 O5         3.6434    5.6482   -0.9452 O.2       1 RES1    0.0000
      6 O6         4.9478    6.4051    0.6111 O.2       1 RES1    0.0000
      7 N1         4.9754    3.5604    2.2975 N.3       1 RES1    0.0000
      8 N2         3.6436    2.4962    0.6698 N.3       1 RES1    0.0000
      9 N3         3.3976    4.8731    1.1364 N.3       1 RES1    0.0000
     10 N4         6.1432    3.5573    2.9909 N.pl3     1 RES1    0.0000
     11 N5         4.3990    2.2090   -0.4820 N.pl3     1 RES1    0.0000
     12 N6         4.0622    5.6752    0.1948 N.pl3     1 RES1    0.0000
     13 C1         4.0728    4.7056    2.4154 C.3       1 RES1    0.0000
     14 C2         4.3270    2.2978    1.9386 C.3       1 RES1    0.0000
     15 C3         2.7542    3.6590    0.6221 C.3       1 RES1    0.0000
     16 H1         4.6273    5.5918    2.6733 H         1 RES1    0.0000
     17 H2         3.2851    4.4947    3.1482 H         1 RES1    0.0000
     18 H3         5.0553    1.5025    1.8550 H         1 RES1    0.0000
     19 H4         3.5586    2.0553    2.6733 H         1 RES1    0.0000
     20 H5         2.3961    3.8156   -0.3947 H         1 RES1    0.0000
     21 H6         1.9315    3.4484    1.2866 H         1 RES1    0.0000
@<TRIPOS>BOND
     1    1   10 2
     2    2   10 2
     3    3   11 2
     4    4   11 2
     5    5   12 2
     6    6   12 2
     7    7   10 1
     8    8   11 1
     9    9   12 1
    10   13    7 1
    11   14    7 1
    12   15    8 1
    13   16   13 1
    14   17   13 1
    15   18   14 1
    16   19   14 1
    17   20   15 1
    18   21   15 1
    19    8   14 1
    20    9   13 1
    21    9   15 1
@<TRIPOS>SUBSTRUCTURE
     1 RES1 1

@<TRIPOS>CRYSIN
  11.4425   10.6106   13.1558  90.0000  90.0000  90.0000  61 1

