# MOL2 file generated by ConQuest
# Please check atom types

@<TRIPOS>MOLECULE
CUBNES
    24    26     1
SMALL
NO_CHARGES
****
Generated from CSD

@<TRIPOS>ATOM
      1 C1         4.7294    3.2353    1.5483 C.ar      1 RES1    0.0000
      2 C2         6.0746    3.2853    1.2193 C.ar      1 RES1    0.0000
      3 C3         6.6682    4.3902    0.6789 C.ar      1 RES1    0.0000
      4 C4         5.9207    5.5266    0.4116 C.ar      1 RES1    0.0000
      5 C5         3.5793    7.8109    0.0682 C.ar      1 RES1    0.0000
      6 C6         2.4058    8.5627    0.0625 C.ar      1 RES1    0.0000
      7 C7         1.2189    8.0048    0.5339 C.ar      1 RES1    0.0000
      8 C8         1.1557    6.7353    1.0269 C.ar      1 RES1    0.0000
      9 C9         2.5439    4.6272    1.5237 C.2       1 RES1    0.0000
     10 C10        4.0063    4.3502    1.2651 C.ar      1 RES1    0.0000
     11 C11        4.5680    5.5112    0.7191 C.ar      1 RES1    0.0000
     12 C12        3.5191    6.5176    0.5699 C.ar      1 RES1    0.0000
     13 C13        2.3087    6.0021    1.0364 C.ar      1 RES1    0.0000
     14 N1         6.8997    2.0989    1.4931 N.pl3     1 RES1    0.0000
     15 O1         6.3984    1.1718    2.0936 O.2       1 RES1    0.0000
     16 O2         8.0496    2.0912    1.0943 O.2       1 RES1    0.0000
     17 O3         1.7603    3.8470    2.0311 O.2       1 RES1    0.0000
     18 H1         4.3618    2.4621    1.7911 H         1 RES1    0.0000
     19 H2         7.6310    4.3548    0.5794 H         1 RES1    0.0000
     20 H3         6.3653    6.3014    0.0719 H         1 RES1    0.0000
     21 H4         4.4337    8.1326   -0.3105 H         1 RES1    0.0000
     22 H5         2.4361    9.4021   -0.3332 H         1 RES1    0.0000
     23 H6         0.5228    8.5711    0.4544 H         1 RES1    0.0000
     24 H7         0.2974    6.3245    1.3783 H         1 RES1    0.0000
@<TRIPOS>BOND
     1    1    2 ar
     2    2    3 ar
     3    3    4 ar
     4    4   11 ar
     5    5    6 ar
     6    6    7 ar
     7    7    8 ar
     8    8   13 ar
     9    9   10 1
    10   10    1 ar
    11   11   10 ar
    12   12    5 ar
    13   13    9 1
    14   14    2 1
    15   15   14 2
    16   16   14 2
    17   17    9 2
    18   18    1 1
    19   19    3 1
    20   20    4 1
    21   21    5 1
    22   22    6 1
    23   23    7 1
    24   24    8 1
    25   11   12 1
    26   12   13 ar
@<TRIPOS>SUBSTRUCTURE
     1 RES1 1

@<TRIPOS>CRYSIN
  16.9370    7.6940    3.7900  90.0000  92.4200  90.0000   4 1

