# MOL2 file generated by ConQuest
# Please check atom types

@<TRIPOS>MOLECULE
CUCCEJ
    45    49     1
SMALL
NO_CHARGES
****
Generated from CSD

@<TRIPOS>ATOM
      1 N1         3.8357    5.5538    2.7648 N.3       1 RES1    0.0000
      2 O1         2.6776    6.3780    3.2296 O.3       1 RES1    0.0000
      3 C1         2.6333    6.3152    4.6809 C.3       1 RES1    0.0000
      4 C2         3.1878    7.6355    5.2280 C.3       1 RES1    0.0000
      5 H1         2.7139    8.3917    4.8399 H         1 RES1    0.0000
      6 H2         3.0902    7.6673    6.2180 H         1 RES1    0.0000
      7 N2         4.6094    7.7358    4.8905 N.pl3     1 RES1    0.0000
      8 C3         5.4586    8.8126    5.0454 C.ar      1 RES1    0.0000
      9 C4         5.2521   10.1047    5.5282 C.ar      1 RES1    0.0000
     10 H3         4.3763   10.4031    5.8538 H         1 RES1    0.0000
     11 C5         6.3594   10.9490    5.5248 C.ar      1 RES1    0.0000
     12 H4         6.2585   11.8619    5.8667 H         1 RES1    0.0000
     13 C6         7.6115   10.5231    5.0470 C.ar      1 RES1    0.0000
     14 H5         8.3564   11.1393    5.0593 H         1 RES1    0.0000
     15 C7         7.8031    9.2371    4.5646 C.ar      1 RES1    0.0000
     16 H6         8.6525    8.9511    4.2147 H         1 RES1    0.0000
     17 C8         6.7091    8.3659    4.5703 C.ar      1 RES1    0.0000
     18 N3         6.6174    7.0479    4.1279 N.2       1 RES1    0.0000
     19 C9         5.3599    6.7254    4.3417 C.2       1 RES1    0.0000
     20 C10        4.6697    5.4413    3.9881 C.3       1 RES1    0.0000
     21 H7         5.3175    4.7220    3.8561 H         1 RES1    0.0000
     22 C11        4.4432    6.3136    1.6613 C.3       1 RES1    0.0000
     23 H8         4.6671    7.2374    1.9732 H         1 RES1    0.0000
     24 C12        5.7339    5.6126    1.2291 C.3       1 RES1    0.0000
     25 H9         5.5139    4.6985    0.9508 H         1 RES1    0.0000
     26 H10        6.3671    5.5457    2.0048 H         1 RES1    0.0000
     27 C13        6.3845    6.3868    0.0845 C.3       1 RES1    0.0000
     28 H11        6.6240    7.2829    0.4216 H         1 RES1    0.0000
     29 H12        7.2300    5.9301   -0.1993 H         1 RES1    0.0000
     30 C14        5.4415    6.5339   -1.1068 C.3       1 RES1    0.0000
     31 H13        5.8552    7.0768   -1.8313 H         1 RES1    0.0000
     32 H14        5.2617    5.6407   -1.4957 H         1 RES1    0.0000
     33 C15        4.1128    7.1591   -0.6833 C.3       1 RES1    0.0000
     34 H15        3.4766    7.1987   -1.4556 H         1 RES1    0.0000
     35 H16        4.2557    8.1258   -0.4015 H         1 RES1    0.0000
     36 C16        3.4729    6.3952    0.4804 C.3       1 RES1    0.0000
     37 H17        2.6268    6.8420    0.7715 H         1 RES1    0.0000
     38 H18        3.2349    5.4708    0.2008 H         1 RES1    0.0000
     39 C17        3.5789    5.1618    5.0190 C.3       1 RES1    0.0000
     40 H19        3.8890    5.1948    5.9699 H         1 RES1    0.0000
     41 H20        3.1529    4.3006    4.8442 H         1 RES1    0.0000
     42 C18        1.1924    6.1191    5.1076 C.3       1 RES1    0.0000
     43 H21        0.6246    6.8597    4.8141 H         1 RES1    0.0000
     44 H22        1.1544    6.0487    6.0933 H         1 RES1    0.0000
     45 H23        0.8328    5.2823    4.7065 H         1 RES1    0.0000
@<TRIPOS>BOND
     1    1    2 1
     2    2    3 1
     3    3    4 1
     4    4    5 1
     5    6    4 1
     6    7    4 1
     7    8    7 1
     8    9    8 ar
     9   10    9 1
    10   11    9 ar
    11   12   11 1
    12   13   11 ar
    13   14   13 1
    14   15   13 ar
    15   16   15 1
    16   17    8 ar
    17   18   17 1
    18   19    7 1
    19   20    1 1
    20   21   20 1
    21   22    1 1
    22   23   22 1
    23   24   22 1
    24   25   24 1
    25   26   24 1
    26   27   24 1
    27   28   27 1
    28   29   27 1
    29   30   27 1
    30   31   30 1
    31   32   30 1
    32   33   30 1
    33   34   33 1
    34   35   33 1
    35   36   22 1
    36   37   36 1
    37   38   36 1
    38   39    3 1
    39   40   39 1
    40   41   39 1
    41   42    3 1
    42   43   42 1
    43   44   42 1
    44   45   42 1
    45   15   17 ar
    46   18   19 2
    47   19   20 1
    48   20   39 1
    49   33   36 1
@<TRIPOS>SUBSTRUCTURE
     1 RES1 1

@<TRIPOS>CRYSIN
  12.7578    8.4127   14.8281  90.0000 104.7350  90.0000 231 1

