# MOL2 file generated by ConQuest
# Please check atom types

@<TRIPOS>MOLECULE
CUCDOT
    51    53     1
SMALL
NO_CHARGES
****
Generated from CSD

@<TRIPOS>ATOM
      1 N1         3.5188    7.6797    3.4681 N.am      1 RES1    0.0000
      2 C1         3.1412    7.9828    2.0071 C.3       1 RES1    0.0000
      3 O1         2.5407    9.2908    1.9245 O.3       1 RES1    0.0000
      4 C2         1.4766    9.4857    2.8434 C.3       1 RES1    0.0000
      5 C3         2.0269    9.3522    4.3461 C.3       1 RES1    0.0000
      6 C4         2.6231    7.9603    4.5899 C.3       1 RES1    0.0000
      7 C5         3.8896    7.8212    5.6476 C.3       1 RES1    0.0000
      8 C6         4.6788    7.6546    4.3517 C.2       1 RES1    0.0000
      9 C7         2.1990    6.9152    1.4017 C.3       1 RES1    0.0000
     10 C8         4.3892    8.1050    1.2245 C.3       1 RES1    0.0000
     11 C9         0.9193    9.6387    5.3244 C.3       1 RES1    0.0000
     12 C10        3.9941    6.6786    6.6459 C.3       1 RES1    0.0000
     13 C11        5.3743    6.5261    7.4398 C.3       1 RES1    0.0000
     14 O2         3.7398    5.4428    5.8577 O.3       1 RES1    0.0000
     15 C12        2.7189    4.6989    6.1215 C.2       1 RES1    0.0000
     16 O3         1.9120    4.9197    6.9322 O.2       1 RES1    0.0000
     17 O4         2.7434    3.6070    5.3316 O.3       1 RES1    0.0000
     18 C13        1.6536    2.6737    5.3485 C.3       1 RES1    0.0000
     19 C14        0.7624    2.7389    3.9957 C.ar      1 RES1    0.0000
     20 C15        1.0614    3.6044    2.9669 C.ar      1 RES1    0.0000
     21 C16        0.2866    3.6953    1.6944 C.ar      1 RES1    0.0000
     22 C17       -0.8367    2.9037    1.4554 C.ar      1 RES1    0.0000
     23 C18       -1.1615    2.0176    2.4497 C.ar      1 RES1    0.0000
     24 C19       -0.3702    1.9401    3.7086 C.ar      1 RES1    0.0000
     25 N2        -0.7963    0.9742    4.7246 N.pl3     1 RES1    0.0000
     26 O5        -0.2203    0.9419    5.8913 O.2       1 RES1    0.0000
     27 O6        -1.7292    0.2158    4.3782 O.2       1 RES1    0.0000
     28 O7         5.8516    7.5548    4.1633 O.2       1 RES1    0.0000
     29 H1         0.6072    8.7987    2.6221 H         1 RES1    0.0000
     30 H2         1.2120   10.5637    2.5820 H         1 RES1    0.0000
     31 H3         2.8131   10.1087    4.4664 H         1 RES1    0.0000
     32 H4         1.9555    7.1645    4.6990 H         1 RES1    0.0000
     33 H5         4.1711    8.6707    6.0942 H         1 RES1    0.0000
     34 H6         2.6346    5.9303    1.5155 H         1 RES1    0.0000
     35 H7         1.4223    6.7227    1.8443 H         1 RES1    0.0000
     36 H8         1.8853    7.1336    0.5533 H         1 RES1    0.0000
     37 H9         4.8213    7.2962    1.3231 H         1 RES1    0.0000
     38 H10        4.0999    8.3922    0.3448 H         1 RES1    0.0000
     39 H11        4.9640    8.9796    1.4193 H         1 RES1    0.0000
     40 H12        1.2857    9.5916    6.2947 H         1 RES1    0.0000
     41 H13        0.1709    8.9560    5.1801 H         1 RES1    0.0000
     42 H14        3.3150    6.6851    7.1687 H         1 RES1    0.0000
     43 H15        5.6564    7.3328    7.8984 H         1 RES1    0.0000
     44 H16        5.5067    5.6661    8.0668 H         1 RES1    0.0000
     45 H17        6.2352    6.5877    6.5352 H         1 RES1    0.0000
     46 H18        1.2238    2.8423    6.0301 H         1 RES1    0.0000
     47 H19        2.1390    1.6793    5.5971 H         1 RES1    0.0000
     48 H20        1.8007    4.1597    3.1594 H         1 RES1    0.0000
     49 H21        0.5793    4.4049    1.0184 H         1 RES1    0.0000
     50 H22       -1.3855    2.9695    0.6094 H         1 RES1    0.0000
     51 H23       -1.8942    1.3434    2.3735 H         1 RES1    0.0000
@<TRIPOS>BOND
     1    1    2 1
     2    2    3 1
     3    3    4 1
     4    4    5 1
     5    5    6 1
     6    6    1 1
     7    7    6 1
     8    8    1 1
     9    9    2 1
    10   10    2 1
    11   11    5 1
    12   12    7 1
    13   13   12 1
    14   14   12 1
    15   15   14 1
    16   16   15 2
    17   17   15 1
    18   18   17 1
    19   19   18 1
    20   20   19 ar
    21   21   20 ar
    22   22   21 ar
    23   23   22 ar
    24   24   19 ar
    25   25   24 1
    26   26   25 2
    27   27   25 2
    28   28    8 2
    29   29    4 1
    30   30    4 1
    31   31    5 1
    32   32    6 1
    33   33    7 1
    34   34    9 1
    35   35    9 1
    36   36    9 1
    37   37   10 1
    38   38   10 1
    39   39   10 1
    40   40   11 1
    41   41   11 1
    42   42   12 1
    43   43   13 1
    44   44   13 1
    45   45   13 1
    46   46   18 1
    47   47   18 1
    48   48   20 1
    49   49   21 1
    50   50   22 1
    51   51   23 1
    52    7    8 1
    53   23   24 ar
@<TRIPOS>SUBSTRUCTURE
     1 RES1 1

@<TRIPOS>CRYSIN
   9.7060   13.3600   10.9010  51.4200 102.9200  86.2800   2 1

