# MOL2 file generated by ConQuest
# Please check atom types

@<TRIPOS>MOLECULE
CUCLES
    43    47     1
SMALL
NO_CHARGES
****
Generated from CSD

@<TRIPOS>ATOM
      1 O1        10.3578   -1.7311    3.0558 O.3       1 RES1    0.0000
      2 O2        15.4907   -0.2600    6.2729 O.2       1 RES1    0.0000
      3 O3        15.5564   -2.3983    6.3931 O.2       1 RES1    0.0000
      4 N1         8.7630   -0.6493    1.7525 N.2       1 RES1    0.0000
      5 N2        10.3776    0.5911    2.6259 N.3       1 RES1    0.0000
      6 N3        15.0408   -1.3639    6.0237 N.pl3     1 RES1    0.0000
      7 C1         9.8328   -0.6175    2.4751 C.2       1 RES1    0.0000
      8 C2         8.6026    0.6713    1.3452 C.2       1 RES1    0.0000
      9 C3         9.5922    1.4592    1.8622 C.2       1 RES1    0.0000
     10 C4        11.5640    0.9122    3.3881 C.3       1 RES1    0.0000
     11 H1        12.2580    1.3112    2.8711 H         1 RES1    0.0000
     12 H2        11.2449    1.5914    4.1776 H         1 RES1    0.0000
     13 C5        12.1347   -0.3497    3.9478 C.ar      1 RES1    0.0000
     14 C6        11.5453   -1.5779    3.7631 C.ar      1 RES1    0.0000
     15 C7        12.0754   -2.7367    4.2857 C.ar      1 RES1    0.0000
     16 H3        11.5852   -3.5302    4.1292 H         1 RES1    0.0000
     17 C8        13.2306   -2.6762    5.0067 C.ar      1 RES1    0.0000
     18 H4        13.6170   -3.3957    5.3148 H         1 RES1    0.0000
     19 C9        13.8229   -1.4592    5.2115 C.ar      1 RES1    0.0000
     20 C10       13.2910   -0.3071    4.6857 C.ar      1 RES1    0.0000
     21 H5        13.6853    0.4483    4.8551 H         1 RES1    0.0000
     22 C11        7.4379    1.0165    0.5113 C.ar      1 RES1    0.0000
     23 C12        7.1294    2.3154    0.1395 C.ar      1 RES1    0.0000
     24 H6         7.7105    3.0707    0.3871 H         1 RES1    0.0000
     25 C13        6.0053    2.5922   -0.6258 C.ar      1 RES1    0.0000
     26 H7         5.7811    3.5078   -0.9517 H         1 RES1    0.0000
     27 C14        5.1528    1.5779   -1.0250 C.ar      1 RES1    0.0000
     28 H8         4.2420    1.8021   -1.5735 H         1 RES1    0.0000
     29 C15        5.4529    0.2947   -0.6710 C.ar      1 RES1    0.0000
     30 H9         4.8544   -0.4707   -1.0242 H         1 RES1    0.0000
     31 C16        6.5743    0.0034    0.0871 C.ar      1 RES1    0.0000
     32 H10        6.8130   -0.8854    0.3549 H         1 RES1    0.0000
     33 C17        9.9944    2.8813    1.7565 C.ar      1 RES1    0.0000
     34 C18       10.4344    3.4069    0.5468 C.ar      1 RES1    0.0000
     35 H11       10.3752    2.8130   -0.2016 H         1 RES1    0.0000
     36 C19       10.8521    4.7148    0.4944 C.ar      1 RES1    0.0000
     37 H12       11.1160    5.0992   -0.3549 H         1 RES1    0.0000
     38 C20       10.8801    5.5071    1.6194 C.ar      1 RES1    0.0000
     39 H13       11.3946    6.6121    1.4678 H         1 RES1    0.0000
     40 C21       10.4694    4.9737    2.8138 C.ar      1 RES1    0.0000
     41 H14       10.5285    5.5363    3.6615 H         1 RES1    0.0000
     42 C22       10.0233    3.6781    2.8905 C.ar      1 RES1    0.0000
     43 H15        9.7064    3.2949    3.7582 H         1 RES1    0.0000
@<TRIPOS>BOND
     1    1    7 1
     2    2    6 2
     3    3    6 2
     4    4    7 2
     5    5    7 1
     6    6   19 1
     7    8    4 1
     8    9    5 1
     9   10    5 1
    10   11   10 1
    11   12   10 1
    12   13   10 1
    13   14    1 1
    14   15   14 ar
    15   16   15 1
    16   17   15 ar
    17   18   17 1
    18   19   17 ar
    19   20   13 ar
    20   21   20 1
    21   22    8 1
    22   23   22 ar
    23   24   23 1
    24   25   23 ar
    25   26   25 1
    26   27   25 ar
    27   28   27 1
    28   29   27 ar
    29   30   29 1
    30   31   22 ar
    31   32   31 1
    32   33    9 1
    33   34   33 ar
    34   35   34 1
    35   36   34 ar
    36   37   36 1
    37   38   36 ar
    38   39   38 1
    39   40   38 ar
    40   41   40 1
    41   42   33 ar
    42   43   42 1
    43    8    9 2
    44   13   14 ar
    45   19   20 ar
    46   29   31 ar
    47   40   42 ar
@<TRIPOS>SUBSTRUCTURE
     1 RES1 1

@<TRIPOS>CRYSIN
  19.1120   11.2070    8.0920  90.0000  94.6900  90.0000 231 1

