# MOL2 file generated by ConQuest
# Please check atom types

@<TRIPOS>MOLECULE
CUCQEY
    55    59     1
SMALL
NO_CHARGES
****
Generated from CSD

@<TRIPOS>ATOM
      1 C1        -1.8990    4.1714   14.1550 C.3       1 RES1    0.0000
      2 H1        -1.6621    3.8904   13.2459 H         1 RES1    0.0000
      3 C2        -1.6460    5.6863   14.3028 C.3       1 RES1    0.0000
      4 H2        -2.0126    5.9676   15.1675 H         1 RES1    0.0000
      5 C3        -2.3556    6.4608   13.2305 C.2       1 RES1    0.0000
      6 C4        -3.5060    7.1646   13.3768 C.2       1 RES1    0.0000
      7 H3        -3.9602    7.2827   14.1802 H         1 RES1    0.0000
      8 C5        -3.0025    7.2984   11.2085 C.ar      1 RES1    0.0000
      9 C6        -2.9713    7.5684    9.8385 C.ar      1 RES1    0.0000
     10 H4        -3.6380    8.0739    9.4308 H         1 RES1    0.0000
     11 C7        -1.9239    7.0617    9.1204 C.ar      1 RES1    0.0000
     12 H5        -1.8789    7.2266    8.2066 H         1 RES1    0.0000
     13 C8        -0.9239    6.3039    9.7224 C.ar      1 RES1    0.0000
     14 H6        -0.2263    5.9730    9.2022 H         1 RES1    0.0000
     15 C9        -0.9456    6.0375   11.0687 C.ar      1 RES1    0.0000
     16 H7        -0.2686    5.5353   11.4618 H         1 RES1    0.0000
     17 C10       -2.0031    6.5333   11.8421 C.ar      1 RES1    0.0000
     18 C11       -0.1383    5.9392   14.3311 C.ar      1 RES1    0.0000
     19 C12        0.3726    7.2103   14.0846 C.ar      1 RES1    0.0000
     20 H8        -0.2164    7.9047   13.8969 H         1 RES1    0.0000
     21 C13        1.7219    7.4696   14.1108 C.ar      1 RES1    0.0000
     22 H9         2.0377    8.3305   13.9566 H         1 RES1    0.0000
     23 C14        2.6030    6.4389   14.3675 C.ar      1 RES1    0.0000
     24 C15        4.8783    5.7897   14.6929 C.3       1 RES1    0.0000
     25 H10        5.7104    6.2543   14.6523 H         1 RES1    0.0000
     26 H11        4.8189    5.0330   13.9002 H         1 RES1    0.0000
     27 H12        4.6590    5.3240   15.4508 H         1 RES1    0.0000
     28 C16        2.1439    5.1674   14.5937 C.ar      1 RES1    0.0000
     29 H13        2.7444    4.4757   14.7534 H         1 RES1    0.0000
     30 C17        0.7617    4.9139   14.5819 C.ar      1 RES1    0.0000
     31 C18       -1.0653    3.3801   15.1609 C.3       1 RES1    0.0000
     32 H14       -1.2163    3.7513   16.0554 H         1 RES1    0.0000
     33 C19       -1.3314    1.8870   15.2038 C.ar      1 RES1    0.0000
     34 C20       -1.0602    1.1869   16.3841 C.ar      1 RES1    0.0000
     35 C21       -0.0136    1.2591   18.5355 C.3       1 RES1    0.0000
     36 H15       -0.7701    0.7891   19.0521 H         1 RES1    0.0000
     37 H16        0.6199    0.6554   18.2686 H         1 RES1    0.0000
     38 H17        0.3822    1.9339   19.1201 H         1 RES1    0.0000
     39 C22       -1.2697   -0.1793   16.4619 C.ar      1 RES1    0.0000
     40 H18       -1.0998   -0.6338   17.2548 H         1 RES1    0.0000
     41 C23       -1.7306   -0.8602   15.3580 C.ar      1 RES1    0.0000
     42 H19       -1.8768   -1.7776   15.4110 H         1 RES1    0.0000
     43 C24       -1.9759   -0.2027   14.1812 C.ar      1 RES1    0.0000
     44 H20       -2.2780   -0.6716   13.4364 H         1 RES1    0.0000
     45 C25       -1.7718    1.1628   14.1091 C.ar      1 RES1    0.0000
     46 H21       -1.9334    1.6051   13.3072 H         1 RES1    0.0000
     47 N1        -3.3589    3.9220   14.3854 N.pl3     1 RES1    0.0000
     48 N2        -3.9007    7.6766   12.1671 N.pl3     1 RES1    0.0000
     49 H22       -4.6008    8.1580   12.0333 H         1 RES1    0.0000
     50 N3         0.3114    3.6185   14.7862 N.3       1 RES1    0.0000
     51 H23        0.8513    2.9558   14.6904 H         1 RES1    0.0000
     52 O1        -3.8128    4.0806   15.4904 O.2       1 RES1    0.0000
     53 O2        -4.0291    3.5963   13.4261 O.2       1 RES1    0.0000
     54 O3         3.9311    6.7906   14.3697 O.3       1 RES1    0.0000
     55 O4        -0.5733    1.9429   17.4193 O.3       1 RES1    0.0000
@<TRIPOS>BOND
     1    1    2 1
     2    3    1 1
     3    4    3 1
     4    5    3 1
     5    6    5 2
     6    7    6 1
     7    8    9 ar
     8    9   10 1
     9   11    9 ar
    10   12   11 1
    11   13   11 ar
    12   14   13 1
    13   15   13 ar
    14   16   15 1
    15   17    5 1
    16   18    3 1
    17   19   18 ar
    18   20   19 1
    19   21   19 ar
    20   22   21 1
    21   23   21 ar
    22   24   25 1
    23   26   24 1
    24   27   24 1
    25   28   23 ar
    26   29   28 1
    27   30   18 ar
    28   31    1 1
    29   32   31 1
    30   33   31 1
    31   34   33 ar
    32   35   36 1
    33   37   35 1
    34   38   35 1
    35   39   34 ar
    36   40   39 1
    37   41   39 ar
    38   42   41 1
    39   43   41 ar
    40   44   43 1
    41   45   33 ar
    42   46   45 1
    43   47    1 1
    44   48    6 1
    45   49   48 1
    46   50   30 1
    47   51   50 1
    48   52   47 2
    49   53   47 2
    50   54   23 1
    51   55   34 1
    52    8   17 ar
    53    8   48 1
    54   15   17 ar
    55   24   54 1
    56   28   30 ar
    57   31   50 1
    58   35   55 1
    59   43   45 ar
@<TRIPOS>SUBSTRUCTURE
     1 RES1 1

@<TRIPOS>CRYSIN
  11.9334   10.7796   16.8390  90.0000 100.3380  90.0000 231 1

