# MOL2 file generated by ConQuest
# Please check atom types

@<TRIPOS>MOLECULE
CUDDAG
    48    53     1
SMALL
NO_CHARGES
****
Generated from CSD

@<TRIPOS>ATOM
      1 C1        -1.3294   -1.0673    9.3004 C.ar      1 RES1    0.0000
      2 C2        -0.0357   -0.7293    9.6596 C.ar      1 RES1    0.0000
      3 C3        -1.9611   -2.1723    9.8760 C.ar      1 RES1    0.0000
      4 C4        -1.2823   -2.9428   10.7775 C.ar      1 RES1    0.0000
      5 C5         0.0177   -2.6339   11.1527 C.ar      1 RES1    0.0000
      6 C6         0.6701   -1.5237   10.5785 C.ar      1 RES1    0.0000
      7 N1         1.9829   -1.2252   10.8990 N.3       1 RES1    0.0000
      8 C7         2.6100   -0.0463   10.3461 C.3       1 RES1    0.0000
      9 C8         2.3350    1.2904   11.1314 C.3       1 RES1    0.0000
     10 C9         1.7398    2.1809   10.0309 C.3       1 RES1    0.0000
     11 N2         2.5073    1.7159    8.8517 N.3       1 RES1    0.0000
     12 C10        2.0627    2.3851    7.6551 C.ar      1 RES1    0.0000
     13 C11        2.9639    2.5927    6.6374 C.ar      1 RES1    0.0000
     14 C12        2.5918    3.2894    5.4755 C.ar      1 RES1    0.0000
     15 C13        1.3011    3.7527    5.3807 C.ar      1 RES1    0.0000
     16 C14        0.3689    3.5485    6.3930 C.ar      1 RES1    0.0000
     17 C15        0.7348    2.8604    7.5602 C.ar      1 RES1    0.0000
     18 N3        -0.1436    2.6837    8.6220 N.3       1 RES1    0.0000
     19 C16        0.3362    1.7399    9.6209 C.3       1 RES1    0.0000
     20 N4         0.6023    0.4015    9.0280 N.3       1 RES1    0.0000
     21 C17        2.0768    0.3157    8.9679 C.3       1 RES1    0.0000
     22 N5         3.6764    1.9218   11.5280 N.pl3     1 RES1    0.0000
     23 O1         4.6440    1.2046   11.6843 O.2       1 RES1    0.0000
     24 O2         3.7170    3.0886   11.7150 O.2       1 RES1    0.0000
     25 C18        2.7151   -2.0299   11.8485 C.3       1 RES1    0.0000
     26 C19       -1.5670    2.5687    8.3001 C.3       1 RES1    0.0000
     27 C20        1.5427    1.1840   12.3974 C.3       1 RES1    0.0000
     28 H1        -1.7639   -0.3947    8.5472 H         1 RES1    0.0000
     29 H2        -2.9323   -2.4194    9.5221 H         1 RES1    0.0000
     30 H3        -1.7678   -3.8265   11.3117 H         1 RES1    0.0000
     31 H4         0.6166   -3.1058   11.9393 H         1 RES1    0.0000
     32 H5         3.6706   -0.2402   10.2833 H         1 RES1    0.0000
     33 H6         1.8048    3.1229   10.1631 H         1 RES1    0.0000
     34 H7         3.9232    2.1277    6.7309 H         1 RES1    0.0000
     35 H8         3.4438    3.4146    4.8746 H         1 RES1    0.0000
     36 H9         0.9553    4.3584    4.5674 H         1 RES1    0.0000
     37 H10       -0.6673    3.7750    6.3169 H         1 RES1    0.0000
     38 H11       -0.3547    1.6987   10.3768 H         1 RES1    0.0000
     39 H12        2.3976   -0.3089    8.2133 H         1 RES1    0.0000
     40 H13        2.7928   -3.0715   11.5253 H         1 RES1    0.0000
     41 H14        2.2833   -1.8360   12.7807 H         1 RES1    0.0000
     42 H15        3.6628   -1.6301   11.9393 H         1 RES1    0.0000
     43 H16       -2.0258    2.4194    9.2149 H         1 RES1    0.0000
     44 H17       -1.7312    1.7674    7.5589 H         1 RES1    0.0000
     45 H18       -1.9674    3.5004    7.8527 H         1 RES1    0.0000
     46 H19        0.7171    0.7035   12.1931 H         1 RES1    0.0000
     47 H20        1.2756    2.1106   12.7807 H         1 RES1    0.0000
     48 H21        2.0674    0.6006   13.1413 H         1 RES1    0.0000
@<TRIPOS>BOND
     1    1    2 ar
     2    2    6 ar
     3    3    1 ar
     4    4    3 ar
     5    5    4 ar
     6    6    5 ar
     7    7    6 1
     8    8    7 1
     9    9    8 1
    10   10    9 1
    11   11   10 1
    12   12   11 1
    13   13   12 ar
    14   14   13 ar
    15   15   14 ar
    16   16   15 ar
    17   17   12 ar
    18   18   17 1
    19   19   10 1
    20   20    2 1
    21   21    8 1
    22   22    9 1
    23   23   22 2
    24   24   22 2
    25   25    7 1
    26   26   18 1
    27   27    9 1
    28   28    1 1
    29   29    3 1
    30   30    4 1
    31   31    5 1
    32   32    8 1
    33   33   10 1
    34   34   13 1
    35   35   14 1
    36   36   15 1
    37   37   16 1
    38   38   19 1
    39   39   21 1
    40   40   25 1
    41   41   25 1
    42   42   25 1
    43   43   26 1
    44   44   26 1
    45   45   26 1
    46   46   27 1
    47   47   27 1
    48   48   27 1
    49   11   21 1
    50   16   17 ar
    51   18   19 1
    52   19   20 1
    53   20   21 1
@<TRIPOS>SUBSTRUCTURE
     1 RES1 1

@<TRIPOS>CRYSIN
   7.7510   17.1590   13.8550  90.0000 105.4400  90.0000  14 1

