# MOL2 file generated by ConQuest
# Please check atom types

@<TRIPOS>MOLECULE
CUDYIL
    26    26     1
SMALL
NO_CHARGES
****
Generated from CSD

@<TRIPOS>ATOM
      1 O1         0.6578    1.7112   10.5812 O.2       1 RES1    0.0000
      2 O2        -3.3758   -0.2738   10.4381 O.2       1 RES1    0.0000
      3 O3        -3.4990   -2.4720    8.8154 O.2       1 RES1    0.0000
      4 O4        -1.6519   -3.2555    8.0286 O.2       1 RES1    0.0000
      5 O5         0.5414    0.5190    6.1128 O.2       1 RES1    0.0000
      6 O6         0.9080    2.7171    6.1858 O.3       1 RES1    0.0000
      7 N1         0.4340   -0.0446    9.1479 N.am      1 RES1    0.0000
      8 N2        -1.3152    0.6018   10.5360 N.am      1 RES1    0.0000
      9 H1        -1.6018    1.1134   11.1649 H         1 RES1    0.0000
     10 N3        -2.2982   -2.3982    8.6304 N.pl3     1 RES1    0.0000
     11 C1        -0.0265    0.8219   10.1340 C.2       1 RES1    0.0000
     12 C2        -2.2089   -0.3235   10.0701 C.2       1 RES1    0.0000
     13 C3        -1.5994   -1.2534    9.1364 C.2       1 RES1    0.0000
     14 C4        -0.3308   -1.0614    8.7166 C.2       1 RES1    0.0000
     15 H2         0.0291   -1.6586    8.1018 H         1 RES1    0.0000
     16 C5         1.8079    0.1572    8.6311 C.3       1 RES1    0.0000
     17 H3         2.0500   -0.5950    8.0683 H         1 RES1    0.0000
     18 H4         2.4279    0.1812    9.3771 H         1 RES1    0.0000
     19 C6         1.9400    1.4317    7.8371 C.3       1 RES1    0.0000
     20 H5         1.7209    2.1827    8.4100 H         1 RES1    0.0000
     21 H6         2.8635    1.5340    7.5579 H         1 RES1    0.0000
     22 C7         1.0594    1.4752    6.6221 C.2       1 RES1    0.0000
     23 C8         0.0159    2.9023    5.0632 C.3       1 RES1    0.0000
     24 H7        -0.8645    2.6034    5.3022 H         1 RES1    0.0000
     25 H8         0.3352    2.3937    4.3139 H         1 RES1    0.0000
     26 H9        -0.0144    3.8328    4.8287 H         1 RES1    0.0000
@<TRIPOS>BOND
     1    1   11 2
     2    2   12 2
     3    3   10 2
     4    4   10 2
     5    5   22 2
     6    6   22 1
     7    7   11 1
     8    8    9 1
     9   10   13 1
    10   11    8 1
    11   12    8 1
    12   13   12 1
    13   14    7 1
    14   15   14 1
    15   16    7 1
    16   17   16 1
    17   18   16 1
    18   19   16 1
    19   20   19 1
    20   21   19 1
    21   22   19 1
    22   23    6 1
    23   24   23 1
    24   25   23 1
    25   26   23 1
    26   13   14 2
@<TRIPOS>SUBSTRUCTURE
     1 RES1 1

@<TRIPOS>CRYSIN
   8.0342    5.7155   11.5720  90.0000 105.2000  90.0000   4 1

