# MOL2 file generated by ConQuest
# Please check atom types

@<TRIPOS>MOLECULE
CUDYEH
    29    29     1
SMALL
NO_CHARGES
****
Generated from CSD

@<TRIPOS>ATOM
      1 O1        -0.3868    1.6273   24.7092 O.2       1 RES1    0.0000
      2 O2         1.7222   -2.3365   24.5179 O.2       1 RES1    0.0000
      3 O3         3.9187   -2.3718   22.9175 O.2       1 RES1    0.0000
      4 O4         4.5743   -0.5317   22.0388 O.2       1 RES1    0.0000
      5 O5         1.0159    1.7743   20.3312 O.2       1 RES1    0.0000
      6 O6        -1.1414    2.2931   20.1591 O.3       1 RES1    0.0000
      7 N1         1.4050    1.4964   23.3138 N.am      1 RES1    0.0000
      8 N2         0.7736   -0.3157   24.6280 N.am      1 RES1    0.0000
      9 H1         0.2596   -0.6410   25.2362 H         1 RES1    0.0000
     10 N3         3.7708   -1.1791   22.7070 N.pl3     1 RES1    0.0000
     11 C1         0.5209    0.9799   24.2704 C.2       1 RES1    0.0000
     12 C2         1.7349   -1.1646   24.1492 C.2       1 RES1    0.0000
     13 C3         2.6495   -0.5108   23.2379 C.2       1 RES1    0.0000
     14 C4         2.4279    0.7711   22.8515 C.2       1 RES1    0.0000
     15 H2         3.0115    1.1606   22.2405 H         1 RES1    0.0000
     16 C5         1.2093    2.8996   22.9016 C.3       1 RES1    0.0000
     17 H3         1.9898    3.1999   22.4100 H         1 RES1    0.0000
     18 H4         1.1224    3.4554   23.6928 H         1 RES1    0.0000
     19 C6        -0.0213    3.0666   22.0355 C.3       1 RES1    0.0000
     20 H5        -0.7989    2.7726   22.5365 H         1 RES1    0.0000
     21 H6        -0.1387    4.0088   21.8356 H         1 RES1    0.0000
     22 C7         0.0437    2.3084   20.7600 C.2       1 RES1    0.0000
     23 C8        -1.1800    1.4040   18.9588 C.3       1 RES1    0.0000
     24 H7        -0.2832    1.2723   18.6147 H         1 RES1    0.0000
     25 H8        -1.5455    0.5381   19.1992 H         1 RES1    0.0000
     26 C9        -1.9686    1.9935   17.9948 C.3       1 RES1    0.0000
     27 H9        -1.6554    2.8843   17.8253 H         1 RES1    0.0000
     28 H10       -2.8786    2.0281   18.3035 H         1 RES1    0.0000
     29 H11       -1.9254    1.4787   17.1851 H         1 RES1    0.0000
@<TRIPOS>BOND
     1    1   11 2
     2    2   12 2
     3    3   10 2
     4    4   10 2
     5    5   22 2
     6    6   22 1
     7    7   11 1
     8    8    9 1
     9   10   13 1
    10   11    8 1
    11   12    8 1
    12   13   12 1
    13   14    7 1
    14   15   14 1
    15   16    7 1
    16   17   16 1
    17   18   16 1
    18   19   16 1
    19   20   19 1
    20   21   19 1
    21   22   19 1
    22   23    6 1
    23   24   23 1
    24   25   23 1
    25   26   23 1
    26   27   26 1
    27   28   26 1
    28   29   26 1
    29   13   14 2
@<TRIPOS>SUBSTRUCTURE
     1 RES1 1

@<TRIPOS>CRYSIN
   5.7560    8.0320   25.3020  90.0000  90.0000  90.0000  19 1

