# MOL2 file generated by ConQuest
# Please check atom types

@<TRIPOS>MOLECULE
CUFLAQ
    61    62     1
SMALL
NO_CHARGES
****
Generated from CSD

@<TRIPOS>ATOM
      1 O1        -0.8773    4.7877    2.5888 O.2       1 RES1    0.0000
      2 O2         5.2056   12.1971    4.2887 O.2       1 RES1    0.0000
      3 O3         3.6167    5.8172    3.0650 O.3       1 RES1    0.0000
      4 O4         0.8089   10.6564    4.3509 O.3       1 RES1    0.0000
      5 N1         0.2317    5.4174    2.3626 N.3       1 RES1    0.0000
      6 N2         4.1106   11.6552    3.8714 N.3       1 RES1    0.0000
      7 C1         2.3242    8.2382    3.9822 C.3       1 RES1    0.0000
      8 C2         0.6022    6.4120    3.4122 C.3       1 RES1    0.0000
      9 C3         1.7376    7.3188    2.8806 C.3       1 RES1    0.0000
     10 C4         2.8391    6.5708    2.1466 C.3       1 RES1    0.0000
     11 C5         2.2521    5.7336    1.0292 C.3       1 RES1    0.0000
     12 C6         1.1697    4.7390    1.4296 C.3       1 RES1    0.0000
     13 C7        -0.6474    7.2729    3.6565 C.3       1 RES1    0.0000
     14 C8         0.9811    5.6514    4.6891 C.3       1 RES1    0.0000
     15 C9         0.3736    4.3267    0.1855 C.3       1 RES1    0.0000
     16 C10        1.7263    3.4797    2.1070 C.3       1 RES1    0.0000
     17 C11        3.8683   10.2525    4.3192 C.3       1 RES1    0.0000
     18 C12        2.7730    9.6033    3.4393 C.3       1 RES1    0.0000
     19 C13        1.5850   10.5102    3.1611 C.3       1 RES1    0.0000
     20 C14        2.0481   11.8266    2.5651 C.3       1 RES1    0.0000
     21 C15        3.0625   12.5997    3.4088 C.3       1 RES1    0.0000
     22 C16        5.1875    9.4933    4.0896 C.3       1 RES1    0.0000
     23 C17        3.5504   10.2636    5.8189 C.3       1 RES1    0.0000
     24 C18        2.4203   13.3087    4.6076 C.3       1 RES1    0.0000
     25 C19        3.7241   13.6556    2.5368 C.3       1 RES1    0.0000
     26 H30        3.6528    4.9730    2.8388 H         1 RES1    0.0000
     27 H10'       2.3047    3.7611    2.9406 H         1 RES1    0.0000
     28 H40        0.0493   11.1301    4.1055 H         1 RES1    0.0000
     29 H101       0.9192    2.8974    2.4655 H         1 RES1    0.0000
     30 H1         3.0957    7.7590    4.4561 H         1 RES1    0.0000
     31 H12        3.2095    9.4585    2.4542 H         1 RES1    0.0000
     32 H1'        1.6457    8.4137    4.6823 H         1 RES1    0.0000
     33 H13        0.9412   10.0296    2.4769 H         1 RES1    0.0000
     34 H3         1.3213    7.9262    2.1489 H         1 RES1    0.0000
     35 H14        2.4332   11.6594    1.6739 H         1 RES1    0.0000
     36 H4         3.4812    7.2854    1.7304 H         1 RES1    0.0000
     37 H14'       1.2588   12.4395    2.3751 H         1 RES1    0.0000
     38 H5         1.8924    6.4357    0.3619 H         1 RES1    0.0000
     39 H16        5.5019    9.5003    3.0084 H         1 RES1    0.0000
     40 H5'        2.9663    5.2516    0.5542 H         1 RES1    0.0000
     41 H16'       5.0337    8.4276    4.4335 H         1 RES1    0.0000
     42 H7        -0.3654    7.9958    4.2864 H         1 RES1    0.0000
     43 H161       5.8390    9.9042    4.6031 H         1 RES1    0.0000
     44 H7'       -0.9055    7.6336    2.8048 H         1 RES1    0.0000
     45 H17        4.2552   10.8375    6.3109 H         1 RES1    0.0000
     46 H71       -1.3425    6.5889    4.1168 H         1 RES1    0.0000
     47 H17'       3.7139    9.3331    6.2091 H         1 RES1    0.0000
     48 H8         0.2796    5.0566    4.8632 H         1 RES1    0.0000
     49 H171       2.7017   10.6425    6.0281 H         1 RES1    0.0000
     50 H8'        1.8797    5.1959    4.5579 H         1 RES1    0.0000
     51 H18        3.1236   13.7768    5.1573 H         1 RES1    0.0000
     52 H81        0.9950    6.3521    5.4966 H         1 RES1    0.0000
     53 H18'       2.0047   12.7181    5.2138 H         1 RES1    0.0000
     54 H9        -0.1313    5.1262   -0.2036 H         1 RES1    0.0000
     55 H181       1.6471   14.0554    4.3430 H         1 RES1    0.0000
     56 H9'       -0.3761    3.6357    0.4185 H         1 RES1    0.0000
     57 H19        4.3040   14.1807    2.9971 H         1 RES1    0.0000
     58 H91        0.8872    3.8865   -0.4750 H         1 RES1    0.0000
     59 H19'       3.0917   14.3061    2.1828 H         1 RES1    0.0000
     60 H10        2.2180    2.9949    1.5155 H         1 RES1    0.0000
     61 H191       4.3226   13.2196    1.6739 H         1 RES1    0.0000
@<TRIPOS>BOND
     1    1    5 1
     2    2    6 1
     3    3   10 1
     4    4   19 1
     5    5    8 1
     6    6   17 1
     7    7    9 1
     8    8    9 1
     9    9   10 1
    10   10   11 1
    11   11   12 1
    12   12    5 1
    13   13    8 1
    14   14    8 1
    15   15   12 1
    16   16   12 1
    17   17   18 1
    18   18    7 1
    19   19   18 1
    20   20   19 1
    21   21    6 1
    22   22   17 1
    23   23   17 1
    24   24   21 1
    25   25   21 1
    26   26    3 1
    27   27   16 1
    28   28    4 1
    29   29   16 1
    30   30    7 1
    31   31   18 1
    32   32    7 1
    33   33   19 1
    34   34    9 1
    35   35   20 1
    36   36   10 1
    37   37   20 1
    38   38   11 1
    39   39   22 1
    40   40   11 1
    41   41   22 1
    42   42   13 1
    43   43   22 1
    44   44   13 1
    45   45   23 1
    46   46   13 1
    47   47   23 1
    48   48   14 1
    49   49   23 1
    50   50   14 1
    51   51   24 1
    52   52   14 1
    53   53   24 1
    54   54   15 1
    55   55   24 1
    56   56   15 1
    57   57   25 1
    58   58   15 1
    59   59   25 1
    60   60   16 1
    61   61   25 1
    62   20   21 1
@<TRIPOS>SUBSTRUCTURE
     1 RES1 1

@<TRIPOS>CRYSIN
  13.2130   13.9300   12.1540  90.0000 111.4800  90.0000  14 1

