# MOL2 file generated by ConQuest
# Please check atom types

@<TRIPOS>MOLECULE
CUFVEE
    46    50     1
SMALL
NO_CHARGES
****
Generated from CSD

@<TRIPOS>ATOM
      1 C1         3.0640   -1.1316   11.5377 C.3       1 RES1    0.0000
      2 C2         2.7696   -1.2897   10.0256 C.3       1 RES1    0.0000
      3 C3         2.8026   -2.8196    9.8158 C.3       1 RES1    0.0000
      4 C4         4.2230   -3.2448   10.0504 C.2       1 RES1    0.0000
      5 C5         4.4617   -3.1468   11.3443 C.2       1 RES1    0.0000
      6 C6         3.2201   -2.6410   11.9871 C.3       1 RES1    0.0000
      7 C7         2.1375   -3.2859   11.1179 C.3       1 RES1    0.0000
      8 C8         4.2342   -0.2592   12.0037 C.3       1 RES1    0.0000
      9 C9         5.7445    0.6686   10.2900 C.3       1 RES1    0.0000
     10 C10        6.3289    1.9993    9.9067 C.3       1 RES1    0.0000
     11 C11        4.3303    3.0915   10.3363 C.3       1 RES1    0.0000
     12 C12        3.6666    1.8065   10.7412 C.3       1 RES1    0.0000
     13 C13        4.3228    0.7903   14.3386 C.ar      1 RES1    0.0000
     14 C14        5.6758    1.0826   14.2461 C.ar      1 RES1    0.0000
     15 C15        6.3471    1.6026   15.3252 C.ar      1 RES1    0.0000
     16 C16        5.6793    1.8128   16.5084 C.ar      1 RES1    0.0000
     17 C17        4.3308    1.5505   16.6191 C.ar      1 RES1    0.0000
     18 C18        3.6517    1.0447   15.5367 C.ar      1 RES1    0.0000
     19 N1         3.6620    0.1897   13.2761 N.pl3     1 RES1    0.0000
     20 N2         2.2914    0.0695   13.2728 N.2       1 RES1    0.0000
     21 N3         1.8983   -0.5911   12.2813 N.2       1 RES1    0.0000
     22 N4         4.6687    0.8835   11.2369 N.3       1 RES1    0.0000
     23 N5         6.4254    2.2775   17.6701 N.pl3     1 RES1    0.0000
     24 O1         7.5958    2.6220   17.5197 O.2       1 RES1    0.0000
     25 O2         5.8579    2.2743   18.7607 O.2       1 RES1    0.0000
     26 O3         5.3471    2.8670    9.3663 O.3       1 RES1    0.0000
     27 H1         1.8596   -0.8693    9.8158 H         1 RES1    0.0000
     28 H2         2.4416   -3.1136    9.0226 H         1 RES1    0.0000
     29 H3         4.8646   -3.4613    9.3696 H         1 RES1    0.0000
     30 H4         5.3452   -3.2242   11.7657 H         1 RES1    0.0000
     31 H5         3.1590   -2.7343   12.9225 H         1 RES1    0.0000
     32 H6         1.2162   -2.9713   11.2534 H         1 RES1    0.0000
     33 H7         2.1541   -4.2199   11.2039 H         1 RES1    0.0000
     34 H8         5.0309   -0.7902   12.1673 H         1 RES1    0.0000
     35 H9         6.4259    0.0316   10.7246 H         1 RES1    0.0000
     36 H10        5.4350    0.1897    9.4357 H         1 RES1    0.0000
     37 H11        7.0136    1.8650    9.2044 H         1 RES1    0.0000
     38 H12        6.7942    2.4656   10.7412 H         1 RES1    0.0000
     39 H13        3.6689    3.6984    9.8819 H         1 RES1    0.0000
     40 H14        4.7667    3.5561   11.1378 H         1 RES1    0.0000
     41 H15        3.1395    1.4383    9.9315 H         1 RES1    0.0000
     42 H16        3.0196    2.0072   11.4517 H         1 RES1    0.0000
     43 H17        6.1340    0.9009   13.4512 H         1 RES1    0.0000
     44 H18        7.3725    1.7702   15.2525 H         1 RES1    0.0000
     45 H19        3.9027    1.7069   17.4172 H         1 RES1    0.0000
     46 H20        2.7119    0.8693   15.5830 H         1 RES1    0.0000
@<TRIPOS>BOND
     1    1    2 1
     2    2    3 1
     3    3    4 1
     4    4    5 2
     5    5    6 1
     6    6    1 1
     7    7    3 1
     8    8    1 1
     9    9   10 1
    10   10   26 1
    11   11   12 1
    12   12   22 1
    13   13   14 ar
    14   14   15 ar
    15   15   16 ar
    16   16   17 ar
    17   17   18 ar
    18   18   13 ar
    19   19    8 1
    20   20   19 1
    21   21    1 1
    22   22    8 1
    23   23   16 1
    24   24   23 2
    25   25   23 2
    26   26   11 1
    27   27    2 1
    28   28    3 1
    29   29    4 1
    30   30    5 1
    31   31    6 1
    32   32    7 1
    33   33    7 1
    34   34    8 1
    35   35    9 1
    36   36    9 1
    37   37   10 1
    38   38   10 1
    39   39   11 1
    40   40   11 1
    41   41   12 1
    42   42   12 1
    43   43   14 1
    44   44   15 1
    45   45   17 1
    46   46   18 1
    47    6    7 1
    48    9   22 1
    49   13   19 1
    50   20   21 2
@<TRIPOS>SUBSTRUCTURE
     1 RES1 1

@<TRIPOS>CRYSIN
   6.5900   15.8050   16.5410  90.0000  92.5300  90.0000  14 1

