# MOL2 file generated by ConQuest
# Please check atom types

@<TRIPOS>MOLECULE
CUGBEM
    36    37     1
SMALL
USER_CHARGES
****
Generated from CSD

@<TRIPOS>ATOM
      1 O1         0.2900    1.8687    1.0989 O.3       1 RES1    0.0000
      2 N1         1.1654    0.8869    0.6973 N.2       1 RES1    0.0000
      3 N2         2.2941    1.4907    0.5150 N.pl3     1 RES1    1.0000
      4 C1         2.2761    2.8253    0.8037 C.2       1 RES1    0.0000
      5 C2         0.9452    3.0947    1.2060 C.2       1 RES1    0.0000
      6 N3         0.4132    4.2094    1.5655 N.2       1 RES1   -1.0000
      7 C3        -0.9359    4.2853    1.8948 C.2       1 RES1    0.0000
      8 O2        -1.7469    3.3778    1.7969 O.2       1 RES1    0.0000
      9 C4        -1.3351    5.6291    2.4244 C.ar      1 RES1    0.0000
     10 C5        -2.5664    5.7462    3.0758 C.ar      1 RES1    0.0000
     11 H1        -3.1366    4.9892    3.1451 H         1 RES1    0.0000
     12 C6        -2.9624    6.9565    3.6208 C.ar      1 RES1    0.0000
     13 H2        -3.8007    7.0297    4.0631 H         1 RES1    0.0000
     14 C7        -2.1271    8.0626    3.5171 C.ar      1 RES1    0.0000
     15 H3        -2.3877    8.8915    3.9021 H         1 RES1    0.0000
     16 C8        -0.9104    7.9580    2.8512 C.ar      1 RES1    0.0000
     17 H4        -0.3484    8.7199    2.7666 H         1 RES1    0.0000
     18 C9        -0.5171    6.7461    2.3110 C.ar      1 RES1    0.0000
     19 H5         0.3163    6.6776    1.8609 H         1 RES1    0.0000
     20 C10        3.4146    3.6572    0.6242 C.2       1 RES1    0.0000
     21 H6         4.0679    3.3383    0.0124 H         1 RES1    0.0000
     22 C11        3.6876    4.8438    1.2127 C.2       1 RES1    0.0000
     23 C12        2.9736    5.4541    2.3008 C.1       1 RES1    0.0000
     24 N4         2.5522    5.9928    3.2189 N.1       1 RES1    0.0000
     25 C13        4.9039    5.5425    0.8726 C.1       1 RES1    0.0000
     26 N5         5.8662    6.1173    0.6377 N.1       1 RES1    0.0000
     27 C14        3.4850    0.6600    0.1290 C.3       1 RES1    0.0000
     28 H7         3.9658    1.1190   -0.6180 H         1 RES1    0.0000
     29 C15        4.4191    0.5713    1.3273 C.3       1 RES1    0.0000
     30 H8         4.7145    1.4712    1.5787 H         1 RES1    0.0000
     31 H9         5.1981    0.0250    1.0942 H         1 RES1    0.0000
     32 H10        3.9453    0.1600    2.0811 H         1 RES1    0.0000
     33 C16        3.0331   -0.7075   -0.3541 C.3       1 RES1    0.0000
     34 H11        2.3683   -0.5988   -1.0653 H         1 RES1    0.0000
     35 H12        2.6352   -1.2031    0.3923 H         1 RES1    0.0000
     36 H13        3.8048   -1.2031   -0.7006 H         1 RES1    0.0000
@<TRIPOS>BOND
     1    1    2 1
     2    2    3 2
     3    3    4 1
     4    4    5 2
     5    5    1 1
     6    6    5 1
     7    7    6 1
     8    8    7 2
     9    9    7 1
    10   10    9 ar
    11   11   10 1
    12   12   10 ar
    13   13   12 1
    14   14   12 ar
    15   15   14 1
    16   16   14 ar
    17   17   16 1
    18   18    9 ar
    19   19   18 1
    20   20    4 1
    21   21   20 1
    22   22   20 2
    23   23   22 1
    24   24   23 3
    25   25   22 1
    26   26   25 3
    27   27    3 1
    28   28   27 1
    29   29   27 1
    30   30   29 1
    31   31   29 1
    32   32   29 1
    33   33   27 1
    34   34   33 1
    35   35   33 1
    36   36   33 1
    37   16   18 ar
@<TRIPOS>SUBSTRUCTURE
     1 RES1 1

@<TRIPOS>CRYSIN
  12.2250    8.9380   14.1590  90.0000 103.5650  90.0000 231 1

