# MOL2 file generated by ConQuest
# Please check atom types

@<TRIPOS>MOLECULE
CUGDEO
    77    83     1
SMALL
NO_CHARGES
****
Generated from CSD

@<TRIPOS>ATOM
      1 C1         6.2647    5.0898    4.7693 C.3       1 RES1    0.0000
      2 H1         6.1151    5.4836    5.6541 H         1 RES1    0.0000
      3 C2         7.6381    4.3817    4.7378 C.3       1 RES1    0.0000
      4 H2         7.6516    3.6789    5.4193 H         1 RES1    0.0000
      5 C3         6.7860    2.7251    3.0783 C.3       1 RES1    0.0000
      6 H3         6.8268    2.0105    3.7470 H         1 RES1    0.0000
      7 C4         5.3831    3.4121    3.1499 C.3       1 RES1    0.0000
      8 H4         4.6887    2.7310    3.0297 H         1 RES1    0.0000
      9 C5         5.1903    4.5362    2.0661 C.3       1 RES1    0.0000
     10 H5         5.9870    4.5955    1.4976 H         1 RES1    0.0000
     11 C6         6.1048    6.2000    3.6554 C.3       1 RES1    0.0000
     12 H6         6.9263    6.2310    3.1227 H         1 RES1    0.0000
     13 C7         5.2114    4.0487    4.4887 C.2       1 RES1    0.0000
     14 C8         8.8110    5.3534    4.9912 C.ar      1 RES1    0.0000
     15 C9         9.0751    5.7231    6.2913 C.ar      1 RES1    0.0000
     16 H7         8.5806    5.3464    6.9828 H         1 RES1    0.0000
     17 C10       10.0681    6.6520    6.5877 C.ar      1 RES1    0.0000
     18 H8        10.2316    6.9064    7.4668 H         1 RES1    0.0000
     19 C11       10.8010    7.1819    5.5568 C.ar      1 RES1    0.0000
     20 H9        11.4668    7.8043    5.7429 H         1 RES1    0.0000
     21 C12       10.5702    6.8124    4.2581 C.ar      1 RES1    0.0000
     22 H10       11.0770    7.1780    3.5694 H         1 RES1    0.0000
     23 C13        9.5661    5.8803    3.9789 C.ar      1 RES1    0.0000
     24 H11        9.4107    5.6175    3.0998 H         1 RES1    0.0000
     25 C14        7.0880    2.1437    1.7124 C.ar      1 RES1    0.0000
     26 C15        7.7881    2.7968    0.7488 C.ar      1 RES1    0.0000
     27 H12        8.1687    3.6204    0.9550 H         1 RES1    0.0000
     28 C16        7.9551    2.2921   -0.5212 C.ar      1 RES1    0.0000
     29 H13        8.4310    2.7715   -1.1597 H         1 RES1    0.0000
     30 C17        7.3962    1.0401   -0.8347 C.ar      1 RES1    0.0000
     31 H14        7.4862    0.6766   -1.6866 H         1 RES1    0.0000
     32 C18        6.7117    0.3682    0.1532 C.ar      1 RES1    0.0000
     33 H15        6.3619   -0.4710   -0.0401 H         1 RES1    0.0000
     34 C19        6.5201    0.8885    1.4275 C.ar      1 RES1    0.0000
     35 H16        6.0342    0.4233    2.0689 H         1 RES1    0.0000
     36 C20        3.9591    4.2026    1.2099 C.ar      1 RES1    0.0000
     37 C21        4.1487    3.5086    0.0243 C.ar      1 RES1    0.0000
     38 H17        5.0067    3.2907   -0.2592 H         1 RES1    0.0000
     39 C22        3.0420    3.1382   -0.7445 C.ar      1 RES1    0.0000
     40 H18        3.1675    2.6609   -1.5320 H         1 RES1    0.0000
     41 C23        1.7744    3.4724   -0.3508 C.ar      1 RES1    0.0000
     42 H19        1.0429    3.2428   -0.8763 H         1 RES1    0.0000
     43 C24        1.5938    4.1522    0.8319 C.ar      1 RES1    0.0000
     44 H20        0.7318    4.3489    1.1211 H         1 RES1    0.0000
     45 C25        2.6854    4.5529    1.6050 C.ar      1 RES1    0.0000
     46 H21        2.5547    5.0511    2.3796 H         1 RES1    0.0000
     47 C26        5.8409    7.5828    4.2209 C.ar      1 RES1    0.0000
     48 C27        4.5670    8.1103    4.3269 C.ar      1 RES1    0.0000
     49 H22        3.8371    7.5906    4.0792 H         1 RES1    0.0000
     50 C28        4.3562    9.3878    4.7908 C.ar      1 RES1    0.0000
     51 H23        3.4913    9.7260    4.8437 H         1 RES1    0.0000
     52 C29        5.4308   10.1759    5.1831 C.ar      1 RES1    0.0000
     53 H24        5.2898   11.0403    5.4966 H         1 RES1    0.0000
     54 C30        6.6899    9.6711    5.1029 C.ar      1 RES1    0.0000
     55 H25        7.4135   10.1903    5.3706 H         1 RES1    0.0000
     56 C31        6.9030    8.4007    4.6318 C.ar      1 RES1    0.0000
     57 H26        7.7716    8.0736    4.5817 H         1 RES1    0.0000
     58 C32        2.0409    3.2723    5.4480 C.3       1 RES1    0.0000
     59 H27        1.7712    4.1407    5.1100 H         1 RES1    0.0000
     60 H28        2.0582    3.3057    6.4173 H         1 RES1    0.0000
     61 C33        1.0814    2.1749    4.9583 C.ar      1 RES1    0.0000
     62 C34        1.0352    1.7787    3.6582 C.ar      1 RES1    0.0000
     63 H29        1.6184    2.1572    3.0397 H         1 RES1    0.0000
     64 C35        0.1338    0.8225    3.2473 C.ar      1 RES1    0.0000
     65 H30        0.0984    0.5715    2.3524 H         1 RES1    0.0000
     66 C36       -0.7069    0.2428    4.1508 C.ar      1 RES1    0.0000
     67 H31       -1.3047   -0.4125    3.8716 H         1 RES1    0.0000
     68 C37       -0.6751    0.6231    5.4680 C.ar      1 RES1    0.0000
     69 H32       -1.2490    0.2259    6.0822 H         1 RES1    0.0000
     70 C38        0.2122    1.5955    5.8746 C.ar      1 RES1    0.0000
     71 H33        0.2304    1.8644    6.7638 H         1 RES1    0.0000
     72 N1         7.8110    3.7699    3.4134 N.3       1 RES1    0.0000
     73 N2         4.9761    5.8178    2.7705 N.3       1 RES1    0.0000
     74 N3         4.2730    3.8994    5.3835 N.2       1 RES1    0.0000
     75 O1         3.3477    2.8944    4.9196 O.3       1 RES1    0.0000
     76 H34        8.6066    3.3163    3.3933 H         1 RES1    0.0000
     77 H35        4.7806    6.6570    2.2050 H         1 RES1    0.0000
@<TRIPOS>BOND
     1    1    2 1
     2    3    1 1
     3    4    3 1
     4    5    6 1
     5    7    5 1
     6    8    7 1
     7    9    7 1
     8   10    9 1
     9   11    1 1
    10   12   11 1
    11   13    1 1
    12   14    3 1
    13   15   14 ar
    14   16   15 1
    15   17   15 ar
    16   18   17 1
    17   19   17 ar
    18   20   19 1
    19   21   19 ar
    20   22   21 1
    21   23   14 ar
    22   24   23 1
    23   25    5 1
    24   26   25 ar
    25   27   26 1
    26   28   26 ar
    27   29   28 1
    28   30   28 ar
    29   31   30 1
    30   32   30 ar
    31   33   32 1
    32   34   25 ar
    33   35   34 1
    34   36    9 1
    35   37   36 ar
    36   38   37 1
    37   39   37 ar
    38   40   39 1
    39   41   39 ar
    40   42   41 1
    41   43   41 ar
    42   44   43 1
    43   45   36 ar
    44   46   45 1
    45   47   11 1
    46   48   47 ar
    47   49   48 1
    48   50   48 ar
    49   51   50 1
    50   52   50 ar
    51   53   52 1
    52   54   52 ar
    53   55   54 1
    54   56   47 ar
    55   57   56 1
    56   58   59 1
    57   60   58 1
    58   61   58 1
    59   62   61 ar
    60   63   62 1
    61   64   62 ar
    62   65   64 1
    63   66   64 ar
    64   67   66 1
    65   68   66 ar
    66   69   68 1
    67   70   61 ar
    68   71   70 1
    69   72    3 1
    70   73    9 1
    71   74   13 2
    72   75   58 1
    73   76   72 1
    74   77   73 1
    75    5   72 1
    76    7   13 1
    77   11   73 1
    78   21   23 ar
    79   32   34 ar
    80   43   45 ar
    81   54   56 ar
    82   68   70 ar
    83   74   75 1
@<TRIPOS>SUBSTRUCTURE
     1 RES1 1

@<TRIPOS>CRYSIN
   9.9800   10.6150   14.8530  78.6860  78.5500  84.2100   2 1

