# MOL2 file generated by ConQuest
# Please check atom types

@<TRIPOS>MOLECULE
CUGDIS
    94    95     2
SMALL
NO_CHARGES
****
Generated from CSD

@<TRIPOS>ATOM
      1 C1        -2.1526    5.2511   12.5951 C.3       1 RES1    0.0000
      2 H1        -1.7119    5.1194   13.4606 H         1 RES1    0.0000
      3 C2        -2.3683    3.8699   11.9565 C.3       1 RES1    0.0000
      4 H2        -2.9390    3.3271   12.5396 H         1 RES1    0.0000
      5 C3        -3.0180    3.9675   10.5434 C.3       1 RES1    0.0000
      6 H3        -3.1976    4.9088   10.3349 H         1 RES1    0.0000
      7 C4        -0.7697    4.0679    9.5116 C.3       1 RES1    0.0000
      8 H4        -0.8823    5.0071    9.2543 H         1 RES1    0.0000
      9 C5        -0.1278    3.9977   10.9379 C.3       1 RES1    0.0000
     10 H5         0.7397    3.5447   10.8838 H         1 RES1    0.0000
     11 C6         0.0603    5.3957   11.5818 C.3       1 RES1    0.0000
     12 H6         0.4382    5.2644   12.4750 H         1 RES1    0.0000
     13 C7        -1.0491    3.2085   11.8047 C.2       1 RES1    0.0000
     14 C8        -3.4533    5.9806   12.8405 C.ar      1 RES1    0.0000
     15 C9        -3.8335    7.0808   12.1095 C.ar      1 RES1    0.0000
     16 H7        -3.2692    7.4123   11.4485 H         1 RES1    0.0000
     17 C10       -5.0422    7.6978   12.3470 C.ar      1 RES1    0.0000
     18 H8        -5.2737    8.4418   11.8390 H         1 RES1    0.0000
     19 C11       -5.9068    7.2602   13.2917 C.ar      1 RES1    0.0000
     20 C12       -5.5621    6.1489   14.0187 C.ar      1 RES1    0.0000
     21 H9        -6.1486    5.8190   14.6599 H         1 RES1    0.0000
     22 C13       -4.3374    5.5075   13.8036 C.ar      1 RES1    0.0000
     23 H10       -4.1120    4.7591   14.3090 H         1 RES1    0.0000
     24 C14       -4.3135    3.1846   10.4708 C.ar      1 RES1    0.0000
     25 C15       -5.5278    3.8019   10.6357 C.ar      1 RES1    0.0000
     26 H11       -5.5580    4.7193   10.7914 H         1 RES1    0.0000
     27 C16       -6.7000    3.0885   10.5751 C.ar      1 RES1    0.0000
     28 H12       -7.5058    3.5354   10.7004 H         1 RES1    0.0000
     29 C17       -6.7182    1.7501   10.3362 C.ar      1 RES1    0.0000
     30 C18       -5.5135    1.1235   10.2003 C.ar      1 RES1    0.0000
     31 H13       -5.4944    0.2036   10.0658 H         1 RES1    0.0000
     32 C19       -4.3153    1.8245   10.2571 C.ar      1 RES1    0.0000
     33 H14       -3.5093    1.3711   10.1489 H         1 RES1    0.0000
     34 C20        0.1013    3.3779    8.4970 C.ar      1 RES1    0.0000
     35 C21       -0.1737    2.1313    7.9851 C.ar      1 RES1    0.0000
     36 H15       -0.9525    1.6940    8.2423 H         1 RES1    0.0000
     37 C22        0.6857    1.5141    7.0931 C.ar      1 RES1    0.0000
     38 H16        0.4645    0.6738    6.7606 H         1 RES1    0.0000
     39 C23        1.8531    2.1034    6.6854 C.ar      1 RES1    0.0000
     40 C24        2.1210    3.3522    7.1802 C.ar      1 RES1    0.0000
     41 H17        2.8982    3.7881    6.9111 H         1 RES1    0.0000
     42 C25        1.2716    3.9827    8.0642 C.ar      1 RES1    0.0000
     43 H18        1.4876    4.8316    8.3769 H         1 RES1    0.0000
     44 C26        1.0113    6.2743   10.8046 C.ar      1 RES1    0.0000
     45 C27        2.3686    6.0831   10.9484 C.ar      1 RES1    0.0000
     46 H19        2.6793    5.4657   11.5712 H         1 RES1    0.0000
     47 C28        3.2699    6.7853   10.1924 C.ar      1 RES1    0.0000
     48 H20        4.1790    6.6285   10.3072 H         1 RES1    0.0000
     49 C29        2.8564    7.7280    9.2596 C.ar      1 RES1    0.0000
     50 C30        1.5017    7.9435    9.1461 C.ar      1 RES1    0.0000
     51 H21        1.1935    8.5869    8.5498 H         1 RES1    0.0000
     52 C31        0.5878    7.2277    9.8982 C.ar      1 RES1    0.0000
     53 H22       -0.3226    7.3889    9.7926 H         1 RES1    0.0000
     54 C32        0.1347    0.0866   12.4776 C.3       1 RES1    0.0000
     55 H23       -0.0717   -0.0304   13.4171 H         1 RES1    0.0000
     56 H24        0.9783   -0.3580   12.3022 H         1 RES1    0.0000
     57 C33       -0.9627   -0.5758   11.6385 C.ar      1 RES1    0.0000
     58 C34       -2.1315   -1.1418   12.0290 C.ar      1 RES1    0.0000
     59 H25       -2.3582   -1.1441   12.9315 H         1 RES1    0.0000
     60 C35       -2.9757   -1.7010   11.1292 C.ar      1 RES1    0.0000
     61 H26       -3.7788   -2.0707   11.4195 H         1 RES1    0.0000
     62 C36       -2.6619   -1.7286    9.8138 C.ar      1 RES1    0.0000
     63 H27       -3.2389   -2.1151    9.1950 H         1 RES1    0.0000
     64 C37       -1.4794   -1.1769    9.4140 C.ar      1 RES1    0.0000
     65 H28       -1.2462   -1.1839    8.5128 H         1 RES1    0.0000
     66 C38       -0.6362   -0.6107   10.3270 C.ar      1 RES1    0.0000
     67 H29        0.1709   -0.2433   10.0433 H         1 RES1    0.0000
     68 C39       -7.2323    7.9645   13.5767 C.3       1 RES1    0.0000
     69 H30       -7.0793    8.7109   14.1612 H         1 RES1    0.0000
     70 H31       -7.8384    7.3492   13.9976 H         1 RES1    0.0000
     71 H32       -7.6139    8.2757   12.7521 H         1 RES1    0.0000
     72 C40       -8.0214    0.9757   10.2399 C.3       1 RES1    0.0000
     73 H33       -8.5451    1.1348   11.0289 H         1 RES1    0.0000
     74 H34       -7.8314    0.0374   10.1634 H         1 RES1    0.0000
     75 H35       -8.5094    1.2681    9.4667 H         1 RES1    0.0000
     76 C41        2.8005    1.4013    5.7421 C.3       1 RES1    0.0000
     77 H36        2.4272    0.5545    5.4848 H         1 RES1    0.0000
     78 H37        3.6426    1.2588    6.1814 H         1 RES1    0.0000
     79 H38        2.9351    1.9420    4.9610 H         1 RES1    0.0000
     80 C42        3.8443    8.4980    8.3993 C.3       1 RES1    0.0000
     81 H39        4.3520    7.8826    7.8676 H         1 RES1    0.0000
     82 H40        4.4381    8.9963    8.9654 H         1 RES1    0.0000
     83 H41        3.3665    9.0993    7.8254 H         1 RES1    0.0000
     84 H42       -1.1477    6.7455   12.0330 H         1 RES1    0.0000
     85 H43       -2.4668    3.5728    8.7345 H         1 RES1    0.0000
     86 N1        -1.2480    6.0146   11.7401 N.3       1 RES1    0.0000
     87 N2        -2.0756    3.4217    9.5525 N.3       1 RES1    0.0000
     88 N3        -1.0387    2.0847   12.4447 N.2       1 RES1    0.0000
     89 O1         0.2795    1.4928   12.2019 O.3       1 RES1    0.0000
     90 C43       -0.7506    0.1334   13.0621 Du        2 SUP2    0.0000
     91 H44       -1.2565   -0.3533   13.7311 Du        2 SUP2    0.0000
     92 H45        0.1873    0.0772   13.3023 Du        2 SUP2    0.0000
     93 N4        -0.2849    2.1713   12.2230 Du        2 SUP2    0.0000
     94 O2        -1.1577    1.5279   13.0872 Du        2 SUP2    0.0000
@<TRIPOS>BOND
     1    1    2 1
     2    3    1 1
     3    4    3 1
     4    5    3 1
     5    6    5 1
     6    7    8 1
     7    9    7 1
     8   10    9 1
     9   11    9 1
    10   12   11 1
    11   13    3 1
    12   14    1 1
    13   15   14 ar
    14   16   15 1
    15   17   15 ar
    16   18   17 1
    17   19   17 ar
    18   20   19 ar
    19   21   20 1
    20   22   14 ar
    21   23   22 1
    22   24    5 1
    23   25   24 ar
    24   26   25 1
    25   27   25 ar
    26   28   27 1
    27   29   27 ar
    28   30   29 ar
    29   31   30 1
    30   32   24 ar
    31   33   32 1
    32   34    7 1
    33   35   34 ar
    34   36   35 1
    35   37   35 ar
    36   38   37 1
    37   39   37 ar
    38   40   39 ar
    39   41   40 1
    40   42   34 ar
    41   43   42 1
    42   44   11 1
    43   45   44 ar
    44   46   45 1
    45   47   45 ar
    46   48   47 1
    47   49   47 ar
    48   50   49 ar
    49   51   50 1
    50   52   44 ar
    51   53   52 1
    52   54   55 1
    53   56   54 1
    54   57   54 1
    55   58   57 ar
    56   59   58 1
    57   60   58 ar
    58   61   60 1
    59   62   60 ar
    60   63   62 1
    61   64   62 ar
    62   65   64 1
    63   66   57 ar
    64   67   66 1
    65   68   19 1
    66   69   68 1
    67   70   68 1
    68   71   68 1
    69   72   29 1
    70   73   72 1
    71   74   72 1
    72   75   72 1
    73   76   39 1
    74   77   76 1
    75   78   76 1
    76   79   76 1
    77   80   49 1
    78   81   80 1
    79   82   80 1
    80   83   80 1
    81   84   86 1
    82   85   87 1
    83   86    1 1
    84   87    5 1
    85   88   13 2
    86   89   54 1
    87    7   87 1
    88    9   13 1
    89   11   86 1
    90   20   22 ar
    91   30   32 ar
    92   40   42 ar
    93   50   52 ar
    94   64   66 ar
    95   88   89 1
@<TRIPOS>SUBSTRUCTURE
     1 RES1 1
     2 SUP2 90

@<TRIPOS>CRYSIN
  11.3852   23.3975   13.6080  90.0000 104.1680  90.0000  14 1

