# MOL2 file generated by ConQuest
# Please check atom types

@<TRIPOS>MOLECULE
CUHCIT
    33    33     1
SMALL
NO_CHARGES
****
Generated from CSD

@<TRIPOS>ATOM
      1 O1         3.7225    1.4285    7.4421 O.3       1 RES1    0.0000
      2 O2         3.0340   -0.1232    4.8488 O.2       1 RES1    0.0000
      3 C1         4.6382    0.7659    8.3402 C.3       1 RES1    0.0000
      4 H1         4.3501    0.8978    9.2475 H         1 RES1    0.0000
      5 H2         5.5193    1.1331    8.2281 H         1 RES1    0.0000
      6 H3         4.6576   -0.1737    8.1441 H         1 RES1    0.0000
      7 C2         2.5075    0.9071    7.4085 C.2       1 RES1    0.0000
      8 C3         1.6250    1.7263    6.4358 C.3       1 RES1    0.0000
      9 H4         1.4657    2.5936    6.8614 H         1 RES1    0.0000
     10 N1         2.3274    1.9931    5.2072 N.am      1 RES1    0.0000
     11 H5         2.3205    2.7993    4.9085 H         1 RES1    0.0000
     12 C4         2.9869    1.0691    4.5052 C.2       1 RES1    0.0000
     13 C5         3.7169    1.5372    3.2786 C.ar      1 RES1    0.0000
     14 C6         4.9250    0.9255    2.9537 C.ar      1 RES1    0.0000
     15 H6         5.2561    0.2217    3.4634 H         1 RES1    0.0000
     16 C7         5.6135    1.3902    1.8596 C.ar      1 RES1    0.0000
     17 N2         6.8964    0.7940    1.5478 N.pl3     1 RES1    0.0000
     18 O3         7.5253    1.2345    0.5825 O.2       1 RES1    0.0000
     19 C8         0.3006    1.0894    6.2621 C.3       1 RES1    0.0000
     20 H7        -0.0914    0.9192    7.1322 H         1 RES1    0.0000
     21 H8         0.4087    0.2382    5.8084 H         1 RES1    0.0000
     22 C9        -0.6442    1.9946    5.4387 C.3       1 RES1    0.0000
     23 H9        -0.8091    2.8080    5.9204 H         1 RES1    0.0000
     24 H10       -1.4754    1.5372    5.2894 H         1 RES1    0.0000
     25 H11       -0.2369    2.1997    4.5930 H         1 RES1    0.0000
     26 C10        3.2238    2.5660    2.4888 C.ar      1 RES1    0.0000
     27 H12        2.4161    2.9715    2.7072 H         1 RES1    0.0000
     28 C11        3.9303    2.9899    1.3798 C.ar      1 RES1    0.0000
     29 H13        3.5812    3.6603    0.8364 H         1 RES1    0.0000
     30 C12        5.1577    2.4190    1.0698 C.ar      1 RES1    0.0000
     31 H14        5.6592    2.7256    0.3491 H         1 RES1    0.0000
     32 O4         7.3231   -0.1116    2.2722 O.2       1 RES1    0.0000
     33 O5         2.1196    0.0126    8.1090 O.2       1 RES1    0.0000
@<TRIPOS>BOND
     1    1    3 1
     2    2   12 2
     3    3    4 1
     4    5    3 1
     5    6    3 1
     6    7    1 1
     7    8    7 1
     8    9    8 1
     9   10    8 1
    10   11   10 1
    11   12   10 1
    12   13   12 1
    13   14   13 ar
    14   15   14 1
    15   16   14 ar
    16   17   16 1
    17   18   17 2
    18   19    8 1
    19   20   19 1
    20   21   19 1
    21   22   19 1
    22   23   22 1
    23   24   22 1
    24   25   22 1
    25   26   13 ar
    26   27   26 1
    27   28   26 ar
    28   29   28 1
    29   30   16 ar
    30   31   30 1
    31   32   17 2
    32   33    7 2
    33   28   30 ar
@<TRIPOS>SUBSTRUCTURE
     1 RES1 1

@<TRIPOS>CRYSIN
  13.8537    4.8506   18.6706  90.0000  90.0000  90.0000  29 1

