# MOL2 file generated by ConQuest
# Please check atom types

@<TRIPOS>MOLECULE
CUHZEM
    34    36     1
SMALL
NO_CHARGES
****
Generated from CSD

@<TRIPOS>ATOM
      1 C1         7.3951    4.4719   -2.2942 C.ar      1 RES1    0.0000
      2 H1         7.1164    5.3561   -2.2158 H         1 RES1    0.0000
      3 C2         8.1938    4.0999   -3.3615 C.ar      1 RES1    0.0000
      4 H2         8.4478    4.7225   -4.0044 H         1 RES1    0.0000
      5 C3         8.6020    2.8028   -3.4519 C.ar      1 RES1    0.0000
      6 C4         8.2724    1.8645   -2.5051 C.ar      1 RES1    0.0000
      7 H3         8.5836    0.9913   -2.5754 H         1 RES1    0.0000
      8 C5         7.4705    2.2431   -1.4457 C.ar      1 RES1    0.0000
      9 H4         7.2388    1.6205   -0.7949 H         1 RES1    0.0000
     10 C6         7.0083    3.5526   -1.3480 C.ar      1 RES1    0.0000
     11 C7         6.1245    3.9917   -0.2672 C.2       1 RES1    0.0000
     12 H5         5.8844    4.8870   -0.2056 H         1 RES1    0.0000
     13 C8         4.6358    5.0537    1.8294 C.3       1 RES1    0.0000
     14 H6         5.4253    5.5570    1.5770 H         1 RES1    0.0000
     15 H7         3.8987    5.3495    1.2723 H         1 RES1    0.0000
     16 C9         3.5211    4.4481    3.8859 C.ar      1 RES1    0.0000
     17 C10        2.8783    4.8251    5.0724 C.ar      1 RES1    0.0000
     18 H8         2.9881    5.6873    5.4046 H         1 RES1    0.0000
     19 C11        2.0917    3.9321    5.7448 C.ar      1 RES1    0.0000
     20 H9         1.6854    4.1871    6.5416 H         1 RES1    0.0000
     21 C12        1.8912    2.6427    5.2506 C.ar      1 RES1    0.0000
     22 H10        1.3372    2.0477    5.7006 H         1 RES1    0.0000
     23 C13        2.5187    2.2663    4.0988 C.ar      1 RES1    0.0000
     24 H11        2.3874    1.4075    3.7660 H         1 RES1    0.0000
     25 C14        3.3487    3.1431    3.4171 C.ar      1 RES1    0.0000
     26 C15        4.1493    2.6661    2.2821 C.2       1 RES1    0.0000
     27 N1         9.4447    2.3910   -4.5789 N.pl3     1 RES1    0.0000
     28 N2         5.6801    3.1588    0.5913 N.2       1 RES1    0.0000
     29 N3         4.8743    3.6255    1.6111 N.am      1 RES1    0.0000
     30 N4         4.3291    5.3014    3.1961 N.pl3     1 RES1    0.0000
     31 H12        4.6562    5.9931    3.5885 H         1 RES1    0.0000
     32 O1         9.8102    1.2408   -4.6472 O.2       1 RES1    0.0000
     33 O2         9.7844    3.2642   -5.3644 O.2       1 RES1    0.0000
     34 O3         4.2013    1.4846    1.9654 O.2       1 RES1    0.0000
@<TRIPOS>BOND
     1    1    2 1
     2    3    1 ar
     3    4    3 1
     4    5    3 ar
     5    6    5 ar
     6    7    6 1
     7    8    6 ar
     8    9    8 1
     9   10    1 ar
    10   11   10 1
    11   12   11 1
    12   13   14 1
    13   15   13 1
    14   16   17 ar
    15   17   18 1
    16   19   17 ar
    17   20   19 1
    18   21   19 ar
    19   22   21 1
    20   23   21 ar
    21   24   23 1
    22   25   16 ar
    23   26   25 1
    24   27    5 1
    25   28   11 2
    26   29   13 1
    27   30   13 1
    28   31   30 1
    29   32   27 2
    30   33   27 2
    31   34   26 2
    32    8   10 ar
    33   16   30 1
    34   23   25 ar
    35   26   29 1
    36   28   29 1
@<TRIPOS>SUBSTRUCTURE
     1 RES1 1

@<TRIPOS>CRYSIN
  19.1300   11.0390    6.6963  90.0000  90.0000  90.0000  33 1

