# MOL2 file generated by ConQuest
# Please check atom types

@<TRIPOS>MOLECULE
CUKCAM16
    20    19     2
SMALL
NO_CHARGES
****
Generated from CSD

@<TRIPOS>ATOM
      1 H1         0.4944    0.7061    1.8090 H         1 RES1    0.0000
      2 H2         2.1671    2.6622    4.9421 H         1 RES1    0.0000
      3 H3         1.7516    4.5205    1.3816 H         1 RES1    0.0000
      4 H4         3.3228    6.5987    3.3445 H         1 RES1    0.0000
      5 O1         1.4873    0.4080    5.4914 O.2       1 RES1    0.0000
      6 O2         2.9130    5.0514    5.0304 O.2       1 RES1    0.0000
      7 O3         1.0187    3.4901   -0.7127 O.2       1 RES1    0.0000
      8 O4         2.9589    5.9295    2.9753 O.3       1 RES1    0.0000
      9 N1         0.5628    2.6481    0.0377 N.pl3     1 RES1    0.0000
     10 O5        -0.2855    1.8336   -0.2752 O.2       1 RES1    0.0000
     11 O6         0.6672   -0.6405    3.8094 O.2       1 RES1    0.0000
     12 N2         1.1395    0.3470    4.3266 N.pl3     1 RES1    0.0000
     13 C1         0.8731    1.4908    2.1784 C.ar      1 RES1    0.0000
     14 C2         2.6888    5.0003    3.8152 C.2       1 RES1    0.0000
     15 C3         2.0685    3.7780    3.2376 C.ar      1 RES1    0.0000
     16 C4         1.3103    1.5390    3.4866 C.ar      1 RES1    0.0000
     17 C5         1.0507    2.6295    1.4245 C.ar      1 RES1    0.0000
     18 C6         1.6523    3.7660    1.9158 C.ar      1 RES1    0.0000
     19 C7         1.8914    2.6609    4.0383 C.ar      1 RES1    0.0000
     20 H5         3.1486    5.7608    5.5226 Du        2 SUP2    0.0000
@<TRIPOS>BOND
     1    1   13 1
     2    2   19 1
     3    3   18 1
     4    4    8 1
     5    5   12 2
     6    6   14 2
     7    7    9 2
     8    8   14 1
     9    9   10 2
    10   11   12 2
    11   12   16 1
    12   13   16 ar
    13   14   15 1
    14   15   18 ar
    15   16   19 ar
    16   17    9 1
    17   18   17 ar
    18   19   15 ar
    19   13   17 ar
@<TRIPOS>SUBSTRUCTURE
     1 RES1 1
     2 SUP2 20

@<TRIPOS>CRYSIN
  21.0420    8.7285    9.7693  90.0000 111.1180  90.0000  15 1

