# MOL2 file generated by ConQuest
# Please check atom types

@<TRIPOS>MOLECULE
CUKCAM04
    19    19     1
SMALL
NO_CHARGES
****
Generated from CSD

@<TRIPOS>ATOM
      1 O1         0.2635    5.7805    3.5473 O.2       1 RES1    0.0000
      2 O2        -0.7613    4.2259    2.4295 O.2       1 RES1    0.0000
      3 O3         1.9707    1.7410   -0.7508 O.2       1 RES1    0.0000
      4 O4         3.6224    2.7346   -1.7304 O.2       1 RES1    0.0000
      5 O5         4.6484    7.4127   -0.6439 O.2       1 RES1    0.0000
      6 O6         3.6536    8.3011    1.1693 O.3       1 RES1    0.0000
      7 N1         0.1803    4.9867    2.6167 N.pl3     1 RES1    0.0000
      8 N2         2.7117    2.6989   -0.9137 N.pl3     1 RES1    0.0000
      9 C1         2.0498    6.1079    1.5026 C.ar      1 RES1    0.0000
     10 C2         1.2762    4.9689    1.6318 C.ar      1 RES1    0.0000
     11 C3         1.4602    3.8344    0.8623 C.ar      1 RES1    0.0000
     12 C4         2.4875    3.8807   -0.0618 C.ar      1 RES1    0.0000
     13 C5         3.2843    4.9983   -0.2556 C.ar      1 RES1    0.0000
     14 C6         3.0553    6.1177    0.5364 C.ar      1 RES1    0.0000
     15 C7         3.8650    7.3467    0.3043 C.2       1 RES1    0.0000
     16 H1         4.1768    9.0797    0.9643 H         1 RES1    0.0000
     17 H2         1.8794    6.8499    2.0222 H         1 RES1    0.0000
     18 H3         0.9239    3.0593    0.9830 H         1 RES1    0.0000
     19 H4         3.9504    5.0126   -0.9362 H         1 RES1    0.0000
@<TRIPOS>BOND
     1    1    7 2
     2    2    7 2
     3    3    8 2
     4    4    8 2
     5    5   15 2
     6    6   15 1
     7    7   10 1
     8    8   12 1
     9    9   10 ar
    10   10   11 ar
    11   11   12 ar
    12   12   13 ar
    13   13   14 ar
    14   14    9 ar
    15   15   14 1
    16   16    6 1
    17   17    9 1
    18   18   11 1
    19   19   13 1
@<TRIPOS>SUBSTRUCTURE
     1 RES1 1

@<TRIPOS>CRYSIN
   9.7610    8.9192    9.4440  90.0000  97.5500  90.0000  14 1

