# MOL2 file generated by ConQuest
# Please check atom types

@<TRIPOS>MOLECULE
CUKCAM18
    19    19     1
SMALL
NO_CHARGES
****
Generated from CSD

@<TRIPOS>ATOM
      1 H1         0.4380    0.5705    1.7595 H         1 RES1    0.0000
      2 H2         2.1856    2.6828    5.0817 H         1 RES1    0.0000
      3 H3         1.7417    4.6533    1.2745 H         1 RES1    0.0000
      4 H4         3.3491    6.7550    3.3823 H         1 RES1    0.0000
      5 O1         1.5082    0.4153    5.4993 O.2       1 RES1    0.0000
      6 O2         2.8957    5.0854    5.0171 O.2       1 RES1    0.0000
      7 O3         0.9870    3.4837   -0.7255 O.2       1 RES1    0.0000
      8 O4         2.9358    5.9495    2.9493 O.3       1 RES1    0.0000
      9 N1         0.5491    2.6326    0.0244 N.pl3     1 RES1    0.0000
     10 O5        -0.2865    1.7987   -0.2865 O.2       1 RES1    0.0000
     11 O6         0.7153   -0.6625    3.8030 O.2       1 RES1    0.0000
     12 N2         1.1674    0.3406    4.3272 N.pl3     1 RES1    0.0000
     13 C1         0.8764    1.4714    2.1680 C.ar      1 RES1    0.0000
     14 C2         2.6704    5.0146    3.8109 C.2       1 RES1    0.0000
     15 C3         2.0573    3.7882    3.2285 C.ar      1 RES1    0.0000
     16 C4         1.3207    1.5326    3.4821 C.ar      1 RES1    0.0000
     17 C5         1.0424    2.6220    1.4085 C.ar      1 RES1    0.0000
     18 C6         1.6381    3.7752    1.8990 C.ar      1 RES1    0.0000
     19 C7         1.8908    2.6693    4.0401 C.ar      1 RES1    0.0000
@<TRIPOS>BOND
     1    1   13 1
     2    2   19 1
     3    3   18 1
     4    4    8 1
     5    5   12 2
     6    6   14 2
     7    7    9 2
     8    8   14 1
     9    9   10 2
    10   11   12 2
    11   12   16 1
    12   13   16 ar
    13   14   15 1
    14   15   18 ar
    15   16   19 ar
    16   17    9 1
    17   18   17 ar
    18   19   15 ar
    19   13   17 ar
@<TRIPOS>SUBSTRUCTURE
     1 RES1 1

@<TRIPOS>CRYSIN
  20.6900    8.7500    9.7300  90.0000 110.4500  90.0000  15 1

