# MOL2 file generated by ConQuest
# Please check atom types

@<TRIPOS>MOLECULE
CUKCAM26
    19    19     1
SMALL
NO_CHARGES
****
Generated from CSD

@<TRIPOS>ATOM
      1 O1         4.0910    0.6883    4.0810 O.2       1 RES1    0.0000
      2 O2         5.5174   -3.9542    3.6196 O.2       1 RES1    0.0000
      3 O3         4.0503    1.5639    6.1361 O.3       1 RES1    0.0000
      4 H1         3.7129    2.1999    5.7446 H         1 RES1    0.0000
      5 C1         4.9397   -0.5878    5.8735 C.ar      1 RES1    0.0000
      6 C2         6.1373   -2.8719    6.9305 C.ar      1 RES1    0.0000
      7 H2         6.5348   -3.6345    7.2833 H         1 RES1    0.0000
      8 N1         6.4487   -1.7162    9.0725 N.pl3     1 RES1    0.0000
      9 C3         4.3191    0.6372    5.2933 C.2       1 RES1    0.0000
     10 O4         5.9926   -0.8745    9.8217 O.2       1 RES1    0.0000
     11 C4         5.6961   -2.8233    5.6254 C.ar      1 RES1    0.0000
     12 N2         5.8652   -4.0158    4.7837 N.pl3     1 RES1    0.0000
     13 C5         5.9584   -1.7352    7.6850 C.ar      1 RES1    0.0000
     14 O5         7.2965   -2.5336    9.3833 O.2       1 RES1    0.0000
     15 C6         5.1162   -1.7031    5.0715 C.ar      1 RES1    0.0000
     16 H3         4.8491   -1.6964    4.1805 H         1 RES1    0.0000
     17 C7         5.3576   -0.5975    7.1933 C.ar      1 RES1    0.0000
     18 H4         5.2352    0.1475    7.7360 H         1 RES1    0.0000
     19 O6         6.3395   -5.0037    5.3009 O.2       1 RES1    0.0000
@<TRIPOS>BOND
     1    1    9 2
     2    2   12 2
     3    3    4 1
     4    5    9 1
     5    6    7 1
     6    8   10 2
     7    9    3 1
     8   11    6 ar
     9   12   11 1
    10   13    6 ar
    11   14    8 2
    12   15    5 ar
    13   16   15 1
    14   17    5 ar
    15   18   17 1
    16   19   12 2
    17    8   13 1
    18   11   15 ar
    19   13   17 ar
@<TRIPOS>SUBSTRUCTURE
     1 RES1 1

@<TRIPOS>CRYSIN
  21.0350    8.7264    9.7610  90.0000 111.0470  90.0000  15 1

