# MOL2 file generated by ConQuest
# Please check atom types

@<TRIPOS>MOLECULE
CUKCAM12
    19    19     1
SMALL
NO_CHARGES
****
Generated from CSD

@<TRIPOS>ATOM
      1 H1         0.4285   -0.5434    5.6836 H         1 RES1    0.0000
      2 H2         2.4712   -2.4142    2.7195 H         1 RES1    0.0000
      3 H3         3.4749    1.3897    3.7263 H         1 RES1    0.0000
      4 H4         0.0697   -4.7304    3.8016 H         1 RES1    0.0000
      5 O1         0.7781    1.7457    6.4367 O.2       1 RES1    0.0000
      6 O2        -0.2978   -2.9227    5.3747 O.2       1 RES1    0.0000
      7 O3         5.1232    0.1987    2.2581 O.2       1 RES1    0.0000
      8 O4         0.6650   -3.8410    3.5693 O.3       1 RES1    0.0000
      9 N1         4.1712   -0.5486    2.0828 N.pl3     1 RES1    0.0000
     10 O5         4.0749   -1.3344    1.1518 O.2       1 RES1    0.0000
     11 N2         1.6944    1.7541    5.6292 N.pl3     1 RES1    0.0000
     12 C1         1.3027   -1.6552    4.1832 C.ar      1 RES1    0.0000
     13 C2         2.3028   -1.6525    3.2125 C.ar      1 RES1    0.0000
     14 O6         2.4573    2.6904    5.4869 O.2       1 RES1    0.0000
     15 C3         0.4889   -2.8801    4.4038 C.2       1 RES1    0.0000
     16 C4         2.9191    0.6085    3.8496 C.ar      1 RES1    0.0000
     17 C5         1.0918   -0.5363    4.9760 C.ar      1 RES1    0.0000
     18 C6         1.9007    0.5737    4.7782 C.ar      1 RES1    0.0000
     19 C7         3.0854   -0.5256    3.0761 C.ar      1 RES1    0.0000
@<TRIPOS>BOND
     1    1   17 1
     2    2   13 1
     3    3   16 1
     4    4    8 1
     5    5   11 2
     6    6   15 2
     7    7    9 2
     8    8   15 1
     9    9   10 2
    10   11   14 2
    11   12   13 ar
    12   13   19 ar
    13   15   12 1
    14   16   18 ar
    15   17   12 ar
    16   18   11 1
    17   19    9 1
    18   16   19 ar
    19   17   18 ar
@<TRIPOS>SUBSTRUCTURE
     1 RES1 1

@<TRIPOS>CRYSIN
   9.9026    8.9085    9.4714  90.0000  96.5330  90.0000  14 1

