# MOL2 file generated by ConQuest
# Please check atom types

@<TRIPOS>MOLECULE
CUKCAM19
    19    19     1
SMALL
NO_CHARGES
****
Generated from CSD

@<TRIPOS>ATOM
      1 H1         0.4456    0.5586    1.7548 H         1 RES1    0.0000
      2 H2         2.1764    2.6840    5.0768 H         1 RES1    0.0000
      3 H3         1.7305    4.6420    1.2621 H         1 RES1    0.0000
      4 H4         3.3199    6.7488    3.3748 H         1 RES1    0.0000
      5 O1         1.5116    0.4192    5.4970 O.2       1 RES1    0.0000
      6 O2         2.8770    5.0900    5.0076 O.2       1 RES1    0.0000
      7 O3         0.9681    3.4751   -0.7305 O.2       1 RES1    0.0000
      8 O4         2.9125    5.9414    2.9311 O.3       1 RES1    0.0000
      9 N1         0.5405    2.6178    0.0196 N.pl3     1 RES1    0.0000
     10 O5        -0.2886    1.7764   -0.2911 O.2       1 RES1    0.0000
     11 O6         0.7377   -0.6718    3.7970 O.2       1 RES1    0.0000
     12 N2         1.1770    0.3360    4.3216 N.pl3     1 RES1    0.0000
     13 C1         0.8771    1.4630    2.1629 C.ar      1 RES1    0.0000
     14 C2         2.6521    5.0114    3.8027 C.2       1 RES1    0.0000
     15 C3         2.0438    3.7830    3.2196 C.ar      1 RES1    0.0000
     16 C4         1.3223    1.5260    3.4769 C.ar      1 RES1    0.0000
     17 C5         1.0361    2.6124    1.4030 C.ar      1 RES1    0.0000
     18 C6         1.6249    3.7669    1.8903 C.ar      1 RES1    0.0000
     19 C7         1.8836    2.6657    4.0335 C.ar      1 RES1    0.0000
@<TRIPOS>BOND
     1    1   13 1
     2    2   19 1
     3    3   18 1
     4    4    8 1
     5    5   12 2
     6    6   14 2
     7    7    9 2
     8    8   14 1
     9    9   10 2
    10   11   12 2
    11   12   16 1
    12   13   16 ar
    13   14   15 1
    14   15   18 ar
    15   16   19 ar
    16   17    9 1
    17   18   17 ar
    18   19   15 ar
    19   13   17 ar
@<TRIPOS>SUBSTRUCTURE
     1 RES1 1

@<TRIPOS>CRYSIN
  20.4800    8.7400    9.7000  90.0000 110.1500  90.0000  15 1

