# MOL2 file generated by ConQuest
# Please check atom types

@<TRIPOS>MOLECULE
CUKCAM11
    20    19     2
SMALL
NO_CHARGES
****
Generated from CSD

@<TRIPOS>ATOM
      1 H1         0.5429   -0.5333    5.7014 H         1 RES1    0.0000
      2 H2         2.5427   -2.4088    2.7465 H         1 RES1    0.0000
      3 H3         3.5681    1.3421    3.7599 H         1 RES1    0.0000
      4 H4         0.2776   -4.5597    3.8072 H         1 RES1    0.0000
      5 O1         0.9061    1.7554    6.4681 O.2       1 RES1    0.0000
      6 O2        -0.2063   -2.8967    5.4203 O.2       1 RES1    0.0000
      7 O3         5.2147    0.1733    2.2730 O.2       1 RES1    0.0000
      8 O4         0.7283   -3.8291    3.6145 O.3       1 RES1    0.0000
      9 N1         4.2645   -0.5697    2.1053 N.pl3     1 RES1    0.0000
     10 O5         4.1507   -1.3484    1.1746 O.2       1 RES1    0.0000
     11 N2         1.8176    1.7555    5.6654 N.pl3     1 RES1    0.0000
     12 C1         1.3994   -1.6524    4.2211 C.ar      1 RES1    0.0000
     13 C2         2.3917   -1.6577    3.2485 C.ar      1 RES1    0.0000
     14 O6         2.5861    2.6781    5.5252 O.2       1 RES1    0.0000
     15 C3         0.5766   -2.8772    4.4427 C.2       1 RES1    0.0000
     16 C4         3.0274    0.5946    3.8830 C.ar      1 RES1    0.0000
     17 C5         1.1967   -0.5324    5.0129 C.ar      1 RES1    0.0000
     18 C6         2.0131    0.5671    4.8140 C.ar      1 RES1    0.0000
     19 C7         3.1822   -0.5413    3.1083 C.ar      1 RES1    0.0000
     20 H5        -0.5702   -3.6531    5.4741 Du        2 SUP2    0.0000
@<TRIPOS>BOND
     1    1   17 1
     2    2   13 1
     3    3   16 1
     4    4    8 1
     5    5   11 2
     6    6   15 2
     7    7    9 2
     8    8   15 1
     9    9   10 2
    10   11   14 2
    11   12   13 ar
    12   13   19 ar
    13   15   12 1
    14   16   18 ar
    15   17   12 ar
    16   18   11 1
    17   19    9 1
    18   16   19 ar
    19   17   18 ar
@<TRIPOS>SUBSTRUCTURE
     1 RES1 1
     2 SUP2 20

@<TRIPOS>CRYSIN
  10.0486    8.8884    9.5167  90.0000  95.6340  90.0000  14 1

