# MOL2 file generated by ConQuest
# Please check atom types

@<TRIPOS>MOLECULE
CUKCAM20
    19    19     1
SMALL
NO_CHARGES
****
Generated from CSD

@<TRIPOS>ATOM
      1 H1         0.4457    0.5493    1.7547 H         1 RES1    0.0000
      2 H2         2.1671    2.6928    5.0718 H         1 RES1    0.0000
      3 H3         1.7184    4.6454    1.2593 H         1 RES1    0.0000
      4 H4         3.3071    6.7636    3.3691 H         1 RES1    0.0000
      5 O1         1.5138    0.4220    5.5030 O.2       1 RES1    0.0000
      6 O2         2.8650    5.1078    5.0080 O.2       1 RES1    0.0000
      7 O3         0.9579    3.4798   -0.7364 O.2       1 RES1    0.0000
      8 O4         2.8989    5.9569    2.9229 O.3       1 RES1    0.0000
      9 N1         0.5357    2.6137    0.0158 N.pl3     1 RES1    0.0000
     10 O5        -0.2903    1.7626   -0.2981 O.2       1 RES1    0.0000
     11 O6         0.7548   -0.6826    3.7980 O.2       1 RES1    0.0000
     12 N2         1.1835    0.3333    4.3233 N.pl3     1 RES1    0.0000
     13 C1         0.8791    1.4587    2.1616 C.ar      1 RES1    0.0000
     14 C2         2.6399    5.0228    3.8024 C.2       1 RES1    0.0000
     15 C3         2.0356    3.7913    3.2164 C.ar      1 RES1    0.0000
     16 C4         1.3224    1.5267    3.4768 C.ar      1 RES1    0.0000
     17 C5         1.0321    2.6101    1.4005 C.ar      1 RES1    0.0000
     18 C6         1.6162    3.7720    1.8849 C.ar      1 RES1    0.0000
     19 C7         1.8778    2.6712    4.0321 C.ar      1 RES1    0.0000
@<TRIPOS>BOND
     1    1   13 1
     2    2   19 1
     3    3   18 1
     4    4    8 1
     5    5   12 2
     6    6   14 2
     7    7    9 2
     8    8   14 1
     9    9   10 2
    10   11   12 2
    11   12   16 1
    12   13   16 ar
    13   14   15 1
    14   15   18 ar
    15   16   19 ar
    16   17    9 1
    17   18   17 ar
    18   19   15 ar
    19   13   17 ar
@<TRIPOS>SUBSTRUCTURE
     1 RES1 1

@<TRIPOS>CRYSIN
  20.3700    8.7600    9.6900  90.0000 110.0000  90.0000  15 1

