# MOL2 file generated by ConQuest
# Please check atom types

@<TRIPOS>MOLECULE
CUKCAM24
    19    19     1
SMALL
NO_CHARGES
****
Generated from CSD

@<TRIPOS>ATOM
      1 N1         2.8604   -4.0354   -0.2322 N.pl3     1 RES1    0.0000
      2 N2         2.2363   -1.7454   -4.5338 N.pl3     1 RES1    0.0000
      3 O1         4.6120    1.5693   -1.6182 O.3       1 RES1    0.0000
      4 H1         4.9452    2.2156   -1.2383 H         1 RES1    0.0000
      5 O2         4.5757    0.7157    0.4588 O.2       1 RES1    0.0000
      6 O3         2.4138   -5.0424   -0.7581 O.2       1 RES1    0.0000
      7 O4         3.1960   -3.9573    0.9401 O.2       1 RES1    0.0000
      8 O5         1.4014   -2.5853   -4.8447 O.2       1 RES1    0.0000
      9 O6         2.6738   -0.8872   -5.2834 O.2       1 RES1    0.0000
     10 C1         3.0117   -2.8375   -1.0800 C.ar      1 RES1    0.0000
     11 C2         2.5716   -2.9018   -2.3880 C.ar      1 RES1    0.0000
     12 H2         2.1899   -3.6728   -2.7400 H         1 RES1    0.0000
     13 C3         2.7308   -1.7557   -3.1458 C.ar      1 RES1    0.0000
     14 C4         3.3225   -0.6058   -2.6546 C.ar      1 RES1    0.0000
     15 H3         3.4380    0.1391   -3.1993 H         1 RES1    0.0000
     16 C5         3.7393   -0.5880   -1.3323 C.ar      1 RES1    0.0000
     17 C6         3.5768   -1.7055   -0.5229 C.ar      1 RES1    0.0000
     18 H4         3.8414   -1.6925    0.3690 H         1 RES1    0.0000
     19 C7         4.3512    0.6396   -0.7458 C.2       1 RES1    0.0000
@<TRIPOS>BOND
     1    1    6 2
     2    2    8 2
     3    3    4 1
     4    5   19 2
     5    7    1 2
     6    9    2 2
     7   10    1 1
     8   11   10 ar
     9   12   11 1
    10   13    2 1
    11   14   13 ar
    12   15   14 1
    13   16   14 ar
    14   17   10 ar
    15   18   17 1
    16   19    3 1
    17   11   13 ar
    18   16   17 ar
    19   16   19 1
@<TRIPOS>SUBSTRUCTURE
     1 RES1 1

@<TRIPOS>CRYSIN
  20.6030    8.7468    9.7202  90.0000 110.3740  90.0000  15 1

