# MOL2 file generated by ConQuest
# Please check atom types

@<TRIPOS>MOLECULE
CUKCAM10
    19    19     1
SMALL
NO_CHARGES
****
Generated from CSD

@<TRIPOS>ATOM
      1 O1        -2.5368   -0.6889    5.2761 O.2       1 RES1    0.0000
      2 O2        -0.6028   -1.5653    5.9726 O.3       1 RES1    0.0000
      3 O3        -3.4818    3.9506    6.4381 O.2       1 RES1    0.0000
      4 O4        -2.2066    5.0025    7.8072 O.2       1 RES1    0.0000
      5 O5         2.1388    0.8741    9.1080 O.2       1 RES1    0.0000
      6 O6         1.2604    2.5305   10.1693 O.2       1 RES1    0.0000
      7 N1        -2.5176    4.0140    7.1803 N.pl3     1 RES1    0.0000
      8 N2         1.2748    1.7164    9.2652 N.pl3     1 RES1    0.0000
      9 C1        -1.1697    0.5847    6.7088 C.ar      1 RES1    0.0000
     10 C2        -1.9837    1.7016    6.5838 C.ar      1 RES1    0.0000
     11 C3        -1.6756    2.8246    7.3242 C.ar      1 RES1    0.0000
     12 C4        -0.6091    2.8765    8.2051 C.ar      1 RES1    0.0000
     13 C5         0.1571    1.7338    8.3102 C.ar      1 RES1    0.0000
     14 C6        -0.0834    0.5944    7.5723 C.ar      1 RES1    0.0000
     15 C7        -1.4865   -0.6345    5.9249 C.2       1 RES1    0.0000
     16 H1        -0.8155   -2.3547    5.3908 H         1 RES1    0.0000
     17 H2        -2.7463    1.7093    5.9984 H         1 RES1    0.0000
     18 H3        -0.3831    3.6803    8.7036 H         1 RES1    0.0000
     19 H4         0.4652   -0.1831    7.6647 H         1 RES1    0.0000
@<TRIPOS>BOND
     1    1   15 2
     2    2   15 1
     3    3    7 2
     4    4    7 2
     5    5    8 2
     6    6    8 2
     7    7   11 1
     8    8   13 1
     9    9   10 ar
    10   10   11 ar
    11   11   12 ar
    12   12   13 ar
    13   13   14 ar
    14   14    9 ar
    15   15    9 1
    16   16    2 1
    17   17   10 1
    18   18   12 1
    19   19   14 1
@<TRIPOS>SUBSTRUCTURE
     1 RES1 1

@<TRIPOS>CRYSIN
   9.7530    8.7210   21.0030  90.0000 111.0400  90.0000  15 2

