# MOL2 file generated by ConQuest
# Please check atom types

@<TRIPOS>MOLECULE
CUKDOC01
    31    32     1
SMALL
NO_CHARGES
****
Generated from CSD

@<TRIPOS>ATOM
      1 O1         1.2444    1.0825    0.0940 O.2       1 RES1    0.0000
      2 O2         2.8454   -0.1299    0.7243 O.2       1 RES1    0.0000
      3 N1         1.8239    0.4783    0.9459 N.pl3     1 RES1    0.0000
      4 N2        -1.7112    1.5807    4.1343 N.3       1 RES1    0.0000
      5 C1         1.5012   -0.1437    4.5747 C.ar      1 RES1    0.0000
      6 H1         1.9832   -0.5311    5.2694 H         1 RES1    0.0000
      7 C2         2.0282   -0.1506    3.2983 C.ar      1 RES1    0.0000
      8 H2         2.8502   -0.5425    3.1125 H         1 RES1    0.0000
      9 C3         1.2758    0.4519    2.3117 C.ar      1 RES1    0.0000
     10 C4         0.0377    1.0329    2.5256 C.ar      1 RES1    0.0000
     11 H3        -0.4342    1.4170    1.8226 H         1 RES1    0.0000
     12 C5        -0.4855    1.0293    3.8226 C.ar      1 RES1    0.0000
     13 C6         0.2726    0.4271    4.8384 C.ar      1 RES1    0.0000
     14 H4        -0.0592    0.4121    5.7075 H         1 RES1    0.0000
     15 C7        -2.4984    2.3578    3.2021 C.3       1 RES1    0.0000
     16 H5        -1.8721    2.9884    2.6514 H         1 RES1    0.0000
     17 O1A       -6.2412    1.0825    6.3102 O.2       1 RES1    0.0000
     18 O2A       -7.8423   -0.1299    5.6799 O.2       1 RES1    0.0000
     19 N1A       -6.8208    0.4783    5.4583 N.pl3     1 RES1    0.0000
     20 N2A       -3.2857    1.5807    2.2699 N.pl3     1 RES1    0.0000
     21 C1A       -6.4981   -0.1437    1.8296 C.ar      1 RES1    0.0000
     22 H1A       -6.9800   -0.5311    1.1348 H         1 RES1    0.0000
     23 C2A       -7.0251   -0.1506    3.1059 C.ar      1 RES1    0.0000
     24 H2A       -7.8471   -0.5425    3.2918 H         1 RES1    0.0000
     25 C3A       -6.2727    0.4519    4.0926 C.ar      1 RES1    0.0000
     26 C4A       -5.0346    1.0329    3.8787 C.ar      1 RES1    0.0000
     27 H3A       -4.5627    1.4170    4.5816 H         1 RES1    0.0000
     28 C5A       -4.5114    1.0293    2.5817 C.ar      1 RES1    0.0000
     29 C6A       -5.2695    0.4271    1.5658 C.ar      1 RES1    0.0000
     30 H4A       -4.9377    0.4121    0.6968 H         1 RES1    0.0000
     31 H5A       -3.1248    2.9884    3.7529 H         1 RES1    0.0000
@<TRIPOS>BOND
     1    1    3 2
     2    2    3 2
     3    3    9 1
     4    4   12 1
     5    5    6 1
     6    7    5 ar
     7    8    7 1
     8    9    7 ar
     9   10    9 ar
    10   11   10 1
    11   12   10 ar
    12   13    5 ar
    13   14   13 1
    14   15    4 1
    15   16   15 1
    16   17   19 2
    17   18   19 2
    18   19   25 1
    19   20   15 1
    20   21   22 1
    21   23   21 ar
    22   24   23 1
    23   25   23 ar
    24   26   25 ar
    25   27   26 1
    26   28   20 1
    27   29   21 ar
    28   30   29 1
    29   31   15 1
    30   12   13 ar
    31   26   28 ar
    32   28   29 ar
@<TRIPOS>SUBSTRUCTURE
     1 RES1 1

@<TRIPOS>CRYSIN
  24.5750    4.0603   16.2460  90.0000 127.9630  90.0000  15 1

