# MOL2 file generated by ConQuest
# Please check atom types

@<TRIPOS>MOLECULE
CUKRUW
    33    36     1
SMALL
NO_CHARGES
****
Generated from CSD

@<TRIPOS>ATOM
      1 C1         0.2979   -0.7950    4.2184 C.ar      1 RES1    0.0000
      2 C2         0.8873   -0.2722    5.3474 C.ar      1 RES1    0.0000
      3 H1         1.8055   -0.1287    5.3824 H         1 RES1    0.0000
      4 C3         0.0811    0.0336    6.4269 C.ar      1 RES1    0.0000
      5 H2         0.4613    0.3991    7.1925 H         1 RES1    0.0000
      6 C4        -1.2849   -0.1950    6.3890 C.ar      1 RES1    0.0000
      7 C5        -1.8462   -0.7520    5.2352 C.ar      1 RES1    0.0000
      8 H3        -2.7606   -0.9174    5.2021 H         1 RES1    0.0000
      9 C6        -1.0625   -1.0557    4.1530 C.ar      1 RES1    0.0000
     10 H4        -1.4358   -1.4306    3.3880 H         1 RES1    0.0000
     11 C7        -2.1520    0.1278    7.5075 C.2       1 RES1    0.0000
     12 C8        -3.9242    0.5212    8.7454 C.2       1 RES1    0.0000
     13 H5        -4.8107    0.6172    9.0091 H         1 RES1    0.0000
     14 C9        -2.8361    0.7372    9.5076 C.2       1 RES1    0.0000
     15 C10       -1.0342    1.0409   10.6644 C.2       1 RES1    0.0000
     16 C11       -0.2531    1.3475   11.8725 C.3       1 RES1    0.0000
     17 H6        -0.8575    1.4209   12.6398 H         1 RES1    0.0000
     18 C12        0.7006    2.5099   11.8734 C.3       1 RES1    0.0000
     19 H7         0.3544    3.2992   12.3189 H         1 RES1    0.0000
     20 H8         1.0488    2.7308   10.9956 H         1 RES1    0.0000
     21 C13        1.6556    1.7040   12.7221 C.3       1 RES1    0.0000
     22 H9         2.5804    1.7518   12.4330 H         1 RES1    0.0000
     23 H10        1.5750    1.8676   13.6742 H         1 RES1    0.0000
     24 C14        0.9213    0.4787   12.2420 C.3       1 RES1    0.0000
     25 H11        0.7285   -0.1615   12.9448 H         1 RES1    0.0000
     26 H12        1.3406    0.0449   11.4822 H         1 RES1    0.0000
     27 N1         1.1364   -1.1106    3.0585 N.pl3     1 RES1    0.0000
     28 N2        -1.7378    0.5119    8.7610 N.pl3     1 RES1    0.0000
     29 N3        -3.4813    0.1315    7.5045 N.2       1 RES1    0.0000
     30 N4        -0.5773    0.7086    9.5032 N.2       1 RES1    0.0000
     31 O1         0.5951   -1.5057    2.0430 O.2       1 RES1    0.0000
     32 O2         2.3425   -0.9773    3.1513 O.2       1 RES1    0.0000
     33 O3        -2.4054    1.1067   10.7577 O.3       1 RES1    0.0000
@<TRIPOS>BOND
     1    1    2 ar
     2    2    3 1
     3    4    2 ar
     4    5    4 1
     5    6    4 ar
     6    7    6 ar
     7    8    7 1
     8    9    1 ar
     9   10    9 1
    10   11    6 1
    11   12   13 1
    12   14   12 2
    13   15   16 1
    14   16   17 1
    15   18   16 1
    16   19   18 1
    17   20   18 1
    18   21   18 1
    19   22   21 1
    20   23   21 1
    21   24   16 1
    22   25   24 1
    23   26   24 1
    24   27    1 1
    25   28   11 1
    26   29   11 2
    27   30   15 2
    28   31   27 2
    29   32   27 2
    30   33   14 1
    31    7    9 ar
    32   12   29 1
    33   14   28 1
    34   15   33 1
    35   21   24 1
    36   28   30 1
@<TRIPOS>SUBSTRUCTURE
     1 RES1 1

@<TRIPOS>CRYSIN
   7.0096    7.1705   13.7650 104.9300  92.0860  98.3840   2 1

