# MOL2 file generated by ConQuest
# Please check atom types

@<TRIPOS>MOLECULE
CUMTUZ
    44    47     1
SMALL
NO_CHARGES
****
Generated from CSD

@<TRIPOS>ATOM
      1 C1        15.0770    5.4042    1.4786 C.3       1 RES1    0.0000
      2 C2        16.1326    5.6550    0.3782 C.3       1 RES1    0.0000
      3 C3        17.3575    3.5713    0.9771 C.3       1 RES1    0.0000
      4 C4        16.3305    3.2392    2.0885 C.3       1 RES1    0.0000
      5 C5        15.1537    2.4374    1.4665 C.3       1 RES1    0.0000
      6 C6        13.9395    4.5366    0.9622 C.3       1 RES1    0.0000
      7 C7        15.7671    4.5746    2.5928 C.2       1 RES1    0.0000
      8 C8        14.6063    6.7550    1.9625 C.ar      1 RES1    0.0000
      9 C9        13.3244    7.2330    1.6222 C.ar      1 RES1    0.0000
     10 C10       12.9731    8.5180    2.0422 C.ar      1 RES1    0.0000
     11 C11       13.8396    9.2849    2.7652 C.ar      1 RES1    0.0000
     12 C12       15.0842    8.8429    3.0452 C.ar      1 RES1    0.0000
     13 C13       15.4515    7.6041    2.6475 C.ar      1 RES1    0.0000
     14 C14       16.9492    2.4168    3.2028 C.ar      1 RES1    0.0000
     15 C15       16.2324    2.1588    4.3754 C.ar      1 RES1    0.0000
     16 C16       16.7317    1.3847    5.3655 C.ar      1 RES1    0.0000
     17 C17       17.9726    0.8203    5.2376 C.ar      1 RES1    0.0000
     18 C18       18.7019    1.0403    4.1103 C.ar      1 RES1    0.0000
     19 C19       18.1955    1.8350    3.0990 C.ar      1 RES1    0.0000
     20 N1        16.7762    4.4194   -0.0250 N.pl3     1 RES1    0.0000
     21 N2        14.3959    3.2392    0.5581 N.pl3     1 RES1    0.0000
     22 N3        13.9912    2.9175   -0.7240 N.2       1 RES1    0.0000
     23 N4        16.8618    3.9434   -1.2848 N.2       1 RES1    0.0000
     24 O1        15.8420    4.9488    3.7238 O.2       1 RES1    0.0000
     25 O2        14.4120    1.8453   -1.0021 O.2       1 RES1    0.0000
     26 O3        16.3055    4.6702   -2.0941 O.2       1 RES1    0.0000
     27 H1        16.7067    6.2605    0.6860 H         1 RES1    0.0000
     28 H2        15.6369    5.9727   -0.3615 H         1 RES1    0.0000
     29 H3        18.0975    4.0298    1.3812 H         1 RES1    0.0000
     30 H4        17.6517    2.8681    0.5655 H         1 RES1    0.0000
     31 H5        14.6028    2.1074    2.1970 H         1 RES1    0.0000
     32 H6        15.5299    1.6654    1.1402 H         1 RES1    0.0000
     33 H7        13.2120    4.4512    1.7057 H         1 RES1    0.0000
     34 H8        13.6221    4.9241    0.3245 H         1 RES1    0.0000
     35 H9        12.8554    6.6717    1.3071 H         1 RES1    0.0000
     36 H10       12.2314    8.7791    1.7428 H         1 RES1    0.0000
     37 H11       13.5865   10.1464    2.9015 H         1 RES1    0.0000
     38 H12       15.7439    9.4987    3.6802 H         1 RES1    0.0000
     39 H13       16.2075    7.2474    2.8088 H         1 RES1    0.0000
     40 H14       15.4764    2.6317    4.5052 H         1 RES1    0.0000
     41 H15       16.0113    1.3570    6.2109 H         1 RES1    0.0000
     42 H16       18.2579    0.1439    5.9235 H         1 RES1    0.0000
     43 H17       19.3456    0.6476    4.0788 H         1 RES1    0.0000
     44 H18       18.7750    2.0971    2.5029 H         1 RES1    0.0000
@<TRIPOS>BOND
     1    1    2 1
     2    2   20 1
     3    3    4 1
     4    4    5 1
     5    5   21 1
     6    6    1 1
     7    7    1 1
     8    8    1 1
     9    9    8 ar
    10   10    9 ar
    11   11   10 ar
    12   12   11 ar
    13   13    8 ar
    14   14    4 1
    15   15   14 ar
    16   16   15 ar
    17   17   16 ar
    18   18   17 ar
    19   19   14 ar
    20   20    3 1
    21   21    6 1
    22   22   21 1
    23   23   20 1
    24   24    7 2
    25   25   22 2
    26   26   23 2
    27   27    2 1
    28   28    2 1
    29   29    3 1
    30   30    3 1
    31   31    5 1
    32   32    5 1
    33   33    6 1
    34   34    6 1
    35   35    9 1
    36   36   10 1
    37   37   11 1
    38   38   12 1
    39   39   13 1
    40   40   15 1
    41   41   16 1
    42   42   17 1
    43   43   18 1
    44   44   19 1
    45    4    7 1
    46   12   13 ar
    47   18   19 ar
@<TRIPOS>SUBSTRUCTURE
     1 RES1 1

@<TRIPOS>CRYSIN
  17.8300   10.2800    9.2700  90.0000  90.0000  90.0000  29 1

