# MOL2 file generated by ConQuest
# Please check atom types

@<TRIPOS>MOLECULE
CUNCOE
    33    35     1
SMALL
NO_CHARGES
****
Generated from CSD

@<TRIPOS>ATOM
      1 N1        -2.9954    3.8780    3.8492 N.1       1 RES1    0.0000
      2 N2         1.2092    4.2471    2.7086 N.1       1 RES1    0.0000
      3 N3         1.9632   10.1242    0.1043 N.pl3     1 RES1    0.0000
      4 O1         1.3709   10.8736   -0.6415 O.2       1 RES1    0.0000
      5 O2         3.1645   10.0436    0.1503 O.2       1 RES1    0.0000
      6 C1        -1.0923    6.8596    3.6320 C.3       1 RES1    0.0000
      7 H1        -2.0379    7.1173    3.6304 H         1 RES1    0.0000
      8 C2        -0.8780    5.3396    3.7587 C.3       1 RES1    0.0000
      9 C3        -0.6359    6.3197    4.9348 C.3       1 RES1    0.0000
     10 H2         0.3128    6.4857    5.1168 H         1 RES1    0.0000
     11 C4        -1.4779    6.2604    6.1634 C.ar      1 RES1    0.0000
     12 C5        -2.8176    6.5624    6.1772 C.ar      1 RES1    0.0000
     13 H3        -3.2353    6.8288    5.3902 H         1 RES1    0.0000
     14 C6        -3.5516    6.4778    7.3350 C.ar      1 RES1    0.0000
     15 H4        -4.4597    6.6802    7.3239 H         1 RES1    0.0000
     16 C7        -2.9549    6.0992    8.5011 C.ar      1 RES1    0.0000
     17 H5        -3.4537    6.0336    9.2843 H         1 RES1    0.0000
     18 C8        -1.6186    5.8170    8.5088 C.ar      1 RES1    0.0000
     19 H6        -1.2030    5.5759    9.3053 H         1 RES1    0.0000
     20 C9        -0.8814    5.8873    7.3485 C.ar      1 RES1    0.0000
     21 H7         0.0248    5.6810    7.3646 H         1 RES1    0.0000
     22 C10       -0.2587    7.6951    2.7305 C.ar      1 RES1    0.0000
     23 C11        1.1244    7.6532    2.7220 C.ar      1 RES1    0.0000
     24 H8         1.5695    7.0857    3.3093 H         1 RES1    0.0000
     25 C12        1.8499    8.4397    1.8578 C.ar      1 RES1    0.0000
     26 H9         2.7786    8.3931    1.8412 H         1 RES1    0.0000
     27 C13        1.1825    9.2919    1.0231 C.ar      1 RES1    0.0000
     28 C14       -0.1835    9.3812    1.0151 C.ar      1 RES1    0.0000
     29 H10       -0.6192    9.9732    0.4459 H         1 RES1    0.0000
     30 C15       -0.8962    8.5733    1.8684 C.ar      1 RES1    0.0000
     31 H11       -1.8250    8.6176    1.8678 H         1 RES1    0.0000
     32 C16       -2.0602    4.5104    3.7935 C.1       1 RES1    0.0000
     33 C17        0.2764    4.7206    3.1506 C.1       1 RES1    0.0000
@<TRIPOS>BOND
     1    1   32 3
     2    2   33 3
     3    3    4 2
     4    5    3 2
     5    6    7 1
     6    8    6 1
     7    9    6 1
     8   10    9 1
     9   11    9 1
    10   12   11 ar
    11   13   12 1
    12   14   12 ar
    13   15   14 1
    14   16   14 ar
    15   17   16 1
    16   18   16 ar
    17   19   18 1
    18   20   11 ar
    19   21   20 1
    20   22    6 1
    21   23   22 ar
    22   24   23 1
    23   25   23 ar
    24   26   25 1
    25   27    3 1
    26   28   27 ar
    27   29   28 1
    28   30   22 ar
    29   31   30 1
    30   32    8 1
    31   33    8 1
    32    8    9 1
    33   18   20 ar
    34   25   27 ar
    35   28   30 ar
@<TRIPOS>SUBSTRUCTURE
     1 RES1 1

@<TRIPOS>CRYSIN
  13.0096    7.9046   14.1320  90.0000  97.1380  90.0000 231 1

