# MOL2 file generated by ConQuest
# Please check atom types

@<TRIPOS>MOLECULE
CUNDOX
    33    33     1
SMALL
NO_CHARGES
****
Generated from CSD

@<TRIPOS>ATOM
      1 O1         0.7965   -0.7328    1.2025 O.3       1 RES1    0.0000
      2 N1         1.1666    0.5856    0.8033 N.2       1 RES1    0.0000
      3 C1         2.1976    1.0402    1.3983 C.2       1 RES1    0.0000
      4 C2         2.9949    0.2432    2.3950 C.3       1 RES1    0.0000
      5 C3         2.3821   -0.1688    3.7375 C.3       1 RES1    0.0000
      6 C4         1.9392    0.9849    4.6536 C.3       1 RES1    0.0000
      7 C5         0.5330    1.4456    4.3784 C.3       1 RES1    0.0000
      8 C6         0.1246    2.7420    5.0863 C.3       1 RES1    0.0000
      9 C7         0.8608    4.0262    4.7032 C.3       1 RES1    0.0000
     10 C8         0.5200    4.6372    3.3532 C.3       1 RES1    0.0000
     11 C9         0.9211    3.8517    2.1062 C.3       1 RES1    0.0000
     12 C10        2.3881    3.4912    2.0219 C.3       1 RES1    0.0000
     13 C11        2.6787    2.3998    0.9818 C.3       1 RES1    0.0000
     14 H1         3.3098   -0.5940    1.8843 H         1 RES1    0.0000
     15 H2         3.7829    0.7653    2.5785 H         1 RES1    0.0000
     16 H3         1.6354   -0.7212    3.5454 H         1 RES1    0.0000
     17 H4         3.0876   -0.7224    4.2396 H         1 RES1    0.0000
     18 H5         2.0054    0.6902    5.6280 H         1 RES1    0.0000
     19 H6         2.6469    1.7571    4.5619 H         1 RES1    0.0000
     20 H7         0.3756    1.5181    3.3594 H         1 RES1    0.0000
     21 H8        -0.1407    0.6607    4.6611 H         1 RES1    0.0000
     22 H9        -0.8216    2.9072    4.8594 H         1 RES1    0.0000
     23 H10        0.2250    2.5631    6.0247 H         1 RES1    0.0000
     24 H11        0.6220    4.7566    5.3677 H         1 RES1    0.0000
     25 H12        1.8682    3.9103    4.7355 H         1 RES1    0.0000
     26 H13       -0.4394    4.8067    3.3347 H         1 RES1    0.0000
     27 H14        0.9289    5.4986    3.3347 H         1 RES1    0.0000
     28 H15        0.3409    3.0986    2.0082 H         1 RES1    0.0000
     29 H16        0.7070    4.4136    1.3140 H         1 RES1    0.0000
     30 H17        2.9363    4.3506    1.7975 H         1 RES1    0.0000
     31 H18        2.7356    3.2292    2.9132 H         1 RES1    0.0000
     32 H19        2.2689    2.6586    0.1488 H         1 RES1    0.0000
     33 H20        3.6138    2.3230    0.8802 H         1 RES1    0.0000
@<TRIPOS>BOND
     1    1    2 1
     2    2    3 2
     3    3    4 1
     4    4    5 1
     5    5    6 1
     6    6    7 1
     7    7    8 1
     8    8    9 1
     9    9   10 1
    10   10   11 1
    11   11   12 1
    12   12   13 1
    13   13    3 1
    14   14    4 1
    15   15    4 1
    16   16    5 1
    17   17    5 1
    18   18    6 1
    19   19    6 1
    20   20    7 1
    21   21    7 1
    22   22    8 1
    23   23    8 1
    24   24    9 1
    25   25    9 1
    26   26   10 1
    27   27   10 1
    28   28   11 1
    29   29   11 1
    30   30   12 1
    31   31   12 1
    32   32   13 1
    33   33   13 1
@<TRIPOS>SUBSTRUCTURE
     1 RES1 1

@<TRIPOS>CRYSIN
   5.5650    7.8730   12.6420  88.3200  78.6900  80.9200   2 1

