# MOL2 file generated by ConQuest
# Please check atom types

@<TRIPOS>MOLECULE
CUNNOQ
    59    61     1
SMALL
NO_CHARGES
****
Generated from CSD

@<TRIPOS>ATOM
      1 C1         4.7588    2.3090    5.3517 C.ar      1 RES1    0.0000
      2 C2         5.9704    2.8234    5.8292 C.ar      1 RES1    0.0000
      3 H1         6.2503    3.6948    5.5745 H         1 RES1    0.0000
      4 C3         6.7568    2.0627    6.6699 C.ar      1 RES1    0.0000
      5 H2         7.5802    2.4017    7.0004 H         1 RES1    0.0000
      6 C4         6.3234    0.7930    7.0243 C.ar      1 RES1    0.0000
      7 C5         5.1109    0.2798    6.5836 C.ar      1 RES1    0.0000
      8 H3         4.8376   -0.5890    6.8520 H         1 RES1    0.0000
      9 C6         4.3040    1.0318    5.7550 C.ar      1 RES1    0.0000
     10 C7         2.9905    0.4928    5.2541 C.3       1 RES1    0.0000
     11 H4         2.8502   -0.4095    5.6102 H         1 RES1    0.0000
     12 H5         3.0037    0.4581    4.2750 H         1 RES1    0.0000
     13 H6         2.2624    1.0779    5.5497 H         1 RES1    0.0000
     14 C8         3.5873    4.8802    3.2232 C.2       1 RES1    0.0000
     15 C9         2.3535    4.2692    2.5793 C.3       1 RES1    0.0000
     16 H7         1.9217    3.6958    3.2749 H         1 RES1    0.0000
     17 C10        2.7566    3.3329    1.4234 C.3       1 RES1    0.0000
     18 H8         3.1391    3.8624    0.6923 H         1 RES1    0.0000
     19 H9         1.9652    2.8539    1.0990 H         1 RES1    0.0000
     20 H10        3.4215    2.6873    1.7419 H         1 RES1    0.0000
     21 C11        1.3019    5.2745    2.1295 C.3       1 RES1    0.0000
     22 H11        1.0869    5.8764    2.8710 H         1 RES1    0.0000
     23 H12        0.4925    4.7975    1.8490 H         1 RES1    0.0000
     24 H13        1.6500    5.7961    1.3764 H         1 RES1    0.0000
     25 C12        4.0807    6.2436    2.7642 C.3       1 RES1    0.0000
     26 H14        3.2967    6.8611    2.7034 H         1 RES1    0.0000
     27 C13        4.6709    6.0610    1.3545 C.ar      1 RES1    0.0000
     28 C14        5.8235    5.2949    1.1918 C.ar      1 RES1    0.0000
     29 H15        6.2733    4.9492    1.9534 H         1 RES1    0.0000
     30 C15        6.3168    5.0354   -0.0786 C.ar      1 RES1    0.0000
     31 H16        7.1024    4.5119   -0.1841 H         1 RES1    0.0000
     32 C16        5.6642    5.5392   -1.1948 C.ar      1 RES1    0.0000
     33 H17        5.9934    5.3469   -2.0660 H         1 RES1    0.0000
     34 C17        4.5330    6.3227   -1.0404 C.ar      1 RES1    0.0000
     35 H18        4.0914    6.6766   -1.8023 H         1 RES1    0.0000
     36 C18        4.0446    6.5909    0.2335 C.ar      1 RES1    0.0000
     37 H19        3.2762    7.1407    0.3379 H         1 RES1    0.0000
     38 C19        5.6585    8.0058    3.5158 C.ar      1 RES1    0.0000
     39 C20        6.7880    8.3334    4.2692 C.ar      1 RES1    0.0000
     40 H20        7.1328    7.7069    4.8931 H         1 RES1    0.0000
     41 C21        7.4103    9.5593    4.1164 C.ar      1 RES1    0.0000
     42 H21        8.1762    9.7566    4.6431 H         1 RES1    0.0000
     43 C22        6.9448   10.5121    3.2114 C.ar      1 RES1    0.0000
     44 C23        5.8226   10.1772    2.4669 C.ar      1 RES1    0.0000
     45 H22        5.4811   10.8078    1.8435 H         1 RES1    0.0000
     46 C24        5.1832    8.9537    2.6010 C.ar      1 RES1    0.0000
     47 H23        4.4197    8.7581    2.0688 H         1 RES1    0.0000
     48 C25        7.6516   11.8212    3.0062 C.3       1 RES1    0.0000
     49 H24        8.2262   11.7617    2.2144 H         1 RES1    0.0000
     50 H25        8.2000   12.0235    3.7942 H         1 RES1    0.0000
     51 H26        6.9908   12.5332    2.8765 H         1 RES1    0.0000
     52 N1         7.2020   -0.0494    7.8078 N.pl3     1 RES1    0.0000
     53 N2         3.9934    2.9997    4.4390 N.pl3     1 RES1    0.0000
     54 H27        3.2787    2.6229    4.0909 H         1 RES1    0.0000
     55 N3         4.3436    4.2779    4.0697 N.2       1 RES1    0.0000
     56 N4         5.0223    6.7865    3.7230 N.pl3     1 RES1    0.0000
     57 H28        5.1963    6.3325    4.4563 H         1 RES1    0.0000
     58 O1         8.2497    0.4245    8.2532 O.2       1 RES1    0.0000
     59 O2         6.8765   -1.2295    7.9952 O.2       1 RES1    0.0000
@<TRIPOS>BOND
     1    1    2 ar
     2    2    3 1
     3    4    2 ar
     4    5    4 1
     5    6    4 ar
     6    7    6 ar
     7    8    7 1
     8    9    1 ar
     9   10    9 1
    10   11   10 1
    11   12   10 1
    12   13   10 1
    13   14   15 1
    14   15   16 1
    15   17   15 1
    16   18   17 1
    17   19   17 1
    18   20   17 1
    19   21   15 1
    20   22   21 1
    21   23   21 1
    22   24   21 1
    23   25   14 1
    24   26   25 1
    25   27   25 1
    26   28   27 ar
    27   29   28 1
    28   30   28 ar
    29   31   30 1
    30   32   30 ar
    31   33   32 1
    32   34   32 ar
    33   35   34 1
    34   36   27 ar
    35   37   36 1
    36   38   39 ar
    37   39   40 1
    38   41   39 ar
    39   42   41 1
    40   43   41 ar
    41   44   43 ar
    42   45   44 1
    43   46   38 ar
    44   47   46 1
    45   48   43 1
    46   49   48 1
    47   50   48 1
    48   51   48 1
    49   52    6 1
    50   53    1 1
    51   54   53 1
    52   55   14 2
    53   56   25 1
    54   57   56 1
    55   58   52 2
    56   59   52 2
    57    7    9 ar
    58   34   36 ar
    59   38   56 1
    60   44   46 ar
    61   53   55 1
@<TRIPOS>SUBSTRUCTURE
     1 RES1 1

@<TRIPOS>CRYSIN
   8.2090    9.9163   27.4740  90.0000  90.0000  90.0000  19 1

