# MOL2 file generated by ConQuest
# Please check atom types

@<TRIPOS>MOLECULE
CUNTUA
    42    43     1
SMALL
NO_CHARGES
****
Generated from CSD

@<TRIPOS>ATOM
      1 C1         1.8758    2.3587    7.3872 C.ar      1 RES1    0.0000
      2 C2         2.6978    1.3440    7.8314 C.ar      1 RES1    0.0000
      3 C3         2.3321    0.5619    8.9510 C.ar      1 RES1    0.0000
      4 C4         1.1343    0.8088    9.6622 C.ar      1 RES1    0.0000
      5 C5         0.3492    1.8859    9.1769 C.ar      1 RES1    0.0000
      6 C6         0.7251    2.6081    8.0831 C.ar      1 RES1    0.0000
      7 N1         0.7408    0.1265   10.7252 N.3       1 RES1    0.0000
      8 N2        -0.3685    0.4902   11.4390 N.2       1 RES1    0.0000
      9 C7        -0.6652   -0.2131   12.4687 C.2       1 RES1    0.0000
     10 N3         3.2645   -0.4866    9.3104 N.pl3     1 RES1    0.0000
     11 O1         2.9780   -1.1612   10.3170 O.2       1 RES1    0.0000
     12 O2         4.2559   -0.6659    8.6403 O.2       1 RES1    0.0000
     13 C8         0.1343   -1.4116   12.9309 C.3       1 RES1    0.0000
     14 H1         2.1042    2.8622    6.6144 H         1 RES1    0.0000
     15 H2         3.5178    1.1714    7.3847 H         1 RES1    0.0000
     16 H3        -0.4629    2.1031    9.6186 H         1 RES1    0.0000
     17 H4         0.1674    3.3216    7.7955 H         1 RES1    0.0000
     18 H5         1.1503   -0.3585   11.0796 H         1 RES1    0.0000
     19 H6        -0.2682   -1.6908   13.7448 H         1 RES1    0.0000
     20 H7         1.0720   -1.3199   13.0567 H         1 RES1    0.0000
     21 H8        -0.0329   -2.0585   12.2556 H         1 RES1    0.0000
     22 C7B       -1.8524    0.2131   13.2082 C.2       1 RES1    0.0000
     23 N2B       -2.1491   -0.4902   14.2378 N.2       1 RES1    0.0000
     24 C8B       -2.6520    1.4116   12.7460 C.3       1 RES1    0.0000
     25 N1B       -3.2584   -0.1265   14.9516 N.3       1 RES1    0.0000
     26 H6B       -2.2494    1.6908   11.9320 H         1 RES1    0.0000
     27 H7B       -3.5896    1.3199   12.6202 H         1 RES1    0.0000
     28 H8B       -2.4848    2.0585   13.4213 H         1 RES1    0.0000
     29 C4B       -3.6520   -0.8088   16.0147 C.ar      1 RES1    0.0000
     30 H5B       -3.6680    0.3585   14.5973 H         1 RES1    0.0000
     31 C3B       -4.8498   -0.5619   16.7259 C.ar      1 RES1    0.0000
     32 C5B       -2.8669   -1.8859   16.5000 C.ar      1 RES1    0.0000
     33 C2B       -5.2154   -1.3440   17.8454 C.ar      1 RES1    0.0000
     34 N3B       -5.7822    0.4866   16.3664 N.pl3     1 RES1    0.0000
     35 C6B       -3.2428   -2.6081   17.5938 C.ar      1 RES1    0.0000
     36 H3B       -2.0547   -2.1031   16.0583 H         1 RES1    0.0000
     37 C1B       -4.3935   -2.3587   18.2896 C.ar      1 RES1    0.0000
     38 H2B       -6.0354   -1.1714   18.2922 H         1 RES1    0.0000
     39 O1B       -5.4957    1.1612   15.3599 O.2       1 RES1    0.0000
     40 O2B       -6.7735    0.6659   17.0366 O.2       1 RES1    0.0000
     41 H4B       -2.6850   -3.3216   17.8814 H         1 RES1    0.0000
     42 H1B       -4.6218   -2.8622   19.0625 H         1 RES1    0.0000
@<TRIPOS>BOND
     1    1    2 ar
     2    2    3 ar
     3    3    4 ar
     4    4    5 ar
     5    5    6 ar
     6    6    1 ar
     7    7    4 1
     8    8    7 1
     9    9    8 2
    10   10    3 1
    11   11   10 2
    12   12   10 2
    13   13    9 1
    14   14    1 1
    15   15    2 1
    16   16    5 1
    17   17    6 1
    18   18    7 1
    19   19   13 1
    20   20   13 1
    21   21   13 1
    22   22    9 1
    23   23   22 2
    24   24   22 1
    25   25   23 1
    26   26   24 1
    27   27   24 1
    28   28   24 1
    29   29   25 1
    30   30   25 1
    31   31   29 ar
    32   32   29 ar
    33   33   31 ar
    34   34   31 1
    35   35   32 ar
    36   36   32 1
    37   37   33 ar
    38   38   33 1
    39   39   34 2
    40   40   34 2
    41   41   35 1
    42   42   37 1
    43   35   37 ar
@<TRIPOS>SUBSTRUCTURE
     1 RES1 1

@<TRIPOS>CRYSIN
   6.0780    5.1220   25.8000  90.0000  95.6000  90.0000 231 1

