# MOL2 file generated by ConQuest
# Please check atom types

@<TRIPOS>MOLECULE
CUNVAI
    29    29     1
SMALL
NO_CHARGES
****
Generated from CSD

@<TRIPOS>ATOM
      1 C1         1.4422    7.3036   -0.8391 C.ar      1 RES1    0.0000
      2 C2         1.7904    7.6909    0.4466 C.ar      1 RES1    0.0000
      3 C3         2.0749    6.7489    1.4109 C.ar      1 RES1    0.0000
      4 C4         2.0109    5.3486    1.1115 C.ar      1 RES1    0.0000
      5 C5         1.6373    5.0032   -0.2223 C.ar      1 RES1    0.0000
      6 C6         1.3545    5.9487   -1.1826 C.ar      1 RES1    0.0000
      7 C7         2.5828    2.2364    2.6366 C.2       1 RES1    0.0000
      8 C8         2.5792    0.7943    2.2100 C.2       1 RES1    0.0000
      9 O1         3.0902   -0.0267    2.9640 O.2       1 RES1    0.0000
     10 N1         1.1476    8.3201   -1.8585 N.pl3     1 RES1    0.0000
     11 N2         2.4552    7.2397    2.7518 N.pl3     1 RES1    0.0000
     12 N3         2.2862    4.3950    2.0548 N.pl3     1 RES1    0.0000
     13 N4         2.2245    3.0796    1.7053 N.2       1 RES1    0.0000
     14 O2         1.1823    9.4947   -1.5371 O.2       1 RES1    0.0000
     15 O3         0.8693    7.9433   -3.0051 O.2       1 RES1    0.0000
     16 O4         2.5397    8.4411    2.9170 O.2       1 RES1    0.0000
     17 O5         2.6609    6.4442    3.6690 O.2       1 RES1    0.0000
     18 C9         3.0345    2.5865    4.0445 C.3       1 RES1    0.0000
     19 C10        1.9259    0.4233    0.8772 C.3       1 RES1    0.0000
     20 H1         1.8323    8.6143    0.6629 H         1 RES1    0.0000
     21 H2         1.5799    4.0845   -0.4556 H         1 RES1    0.0000
     22 H3         1.1055    5.6859   -2.0588 H         1 RES1    0.0000
     23 H4         2.5162    4.6473    2.9400 H         1 RES1    0.0000
     24 H5         3.2296    1.8003    4.5412 H         1 RES1    0.0000
     25 H6         2.2894    3.0226    4.4300 H         1 RES1    0.0000
     26 H7         3.7776    3.1692    4.0625 H         1 RES1    0.0000
     27 H8         1.7130    1.1677    0.3274 H         1 RES1    0.0000
     28 H9         1.1563   -0.1093    1.0084 H         1 RES1    0.0000
     29 H10        2.5938   -0.0977    0.4546 H         1 RES1    0.0000
@<TRIPOS>BOND
     1    1    2 ar
     2    2    3 ar
     3    3    4 ar
     4    4    5 ar
     5    5    6 ar
     6    6    1 ar
     7    7    8 1
     8    8    9 2
     9   10    1 1
    10   11    3 1
    11   12    4 1
    12   13    7 2
    13   14   10 2
    14   15   10 2
    15   16   11 2
    16   17   11 2
    17   18    7 1
    18   19    8 1
    19   20    2 1
    20   21    5 1
    21   22    6 1
    22   23   12 1
    23   24   18 1
    24   25   18 1
    25   26   18 1
    26   27   19 1
    27   28   19 1
    28   29   19 1
    29   12   13 1
@<TRIPOS>SUBSTRUCTURE
     1 RES1 1

@<TRIPOS>CRYSIN
  10.0130   11.6300   10.5290  90.0000 108.0000  90.0000  14 1

