# MOL2 file generated by ConQuest
# Please check atom types

@<TRIPOS>MOLECULE
CUPBAR
    48    49     1
SMALL
NO_CHARGES
****
Generated from CSD

@<TRIPOS>ATOM
      1 O1         3.9739    2.3080    2.8379 O.2       1 RES1    0.0000
      2 O2         6.9959    3.7977   -0.0348 O.3       1 RES1    0.0000
      3 N1         6.0284    3.7982   -2.1094 N.pl3     1 RES1    0.0000
      4 H1         5.2940    3.8078   -2.5563 H         1 RES1    0.0000
      5 C1         3.8018    2.0394   -0.5071 C.ar      1 RES1    0.0000
      6 C2         5.6365    2.6703    1.1988 C.2       1 RES1    0.0000
      7 C3         5.1010    2.0663    2.4693 C.2       1 RES1    0.0000
      8 N2         5.9674    1.2908    3.1124 N.am      1 RES1    0.0000
      9 H2         6.7535    1.2278    2.7696 H         1 RES1    0.0000
     10 C4         2.9351    2.6425   -1.3942 C.ar      1 RES1    0.0000
     11 H3         3.1541    3.4724   -1.7530 H         1 RES1    0.0000
     12 C5         5.0496    2.6952   -0.0771 C.2       1 RES1    0.0000
     13 N3         6.7804    3.3028    1.2813 N.2       1 RES1    0.0000
     14 C6         5.9623    3.4145   -0.8204 C.2       1 RES1    0.0000
     15 C7         7.2677    4.2066   -2.8232 C.3       1 RES1    0.0000
     16 C8         3.4405    0.7928    0.0093 C.ar      1 RES1    0.0000
     17 H4         4.0098    0.3597    0.6039 H         1 RES1    0.0000
     18 C9         5.7253    0.5289    4.3483 C.3       1 RES1    0.0000
     19 C10        1.4019    0.8160   -1.2298 C.ar      1 RES1    0.0000
     20 H5         0.5983    0.4128   -1.4660 H         1 RES1    0.0000
     21 C11        7.7410    5.5743   -2.3201 C.3       1 RES1    0.0000
     22 H6         7.9711    5.5106   -1.3900 H         1 RES1    0.0000
     23 H7         7.0361    6.2178   -2.4319 H         1 RES1    0.0000
     24 H8         8.5097    5.8520   -2.8226 H         1 RES1    0.0000
     25 C12        6.9022    4.3037   -4.2891 C.3       1 RES1    0.0000
     26 H9         6.6042    3.4466   -4.6021 H         1 RES1    0.0000
     27 H10        7.6715    4.5787   -4.7934 H         1 RES1    0.0000
     28 H11        6.1986    4.9475   -4.4016 H         1 RES1    0.0000
     29 C13        1.7457    2.0389   -1.7611 C.ar      1 RES1    0.0000
     30 H12        1.1782    2.4586   -2.3673 H         1 RES1    0.0000
     31 C14        2.2522    0.1962   -0.3515 C.ar      1 RES1    0.0000
     32 H13        2.0248   -0.6329    0.0046 H         1 RES1    0.0000
     33 C15        8.3661    3.1638   -2.6370 C.3       1 RES1    0.0000
     34 H14        8.5962    3.1036   -1.7069 H         1 RES1    0.0000
     35 H15        9.1408    3.4223   -3.1418 H         1 RES1    0.0000
     36 H16        8.0530    2.3098   -2.9447 H         1 RES1    0.0000
     37 C16        5.4070    1.4569    5.4769 C.3       1 RES1    0.0000
     38 H17        4.5932    1.9289    5.2832 H         1 RES1    0.0000
     39 H18        6.1236    2.0852    5.5875 H         1 RES1    0.0000
     40 H19        5.2966    0.9500    6.2860 H         1 RES1    0.0000
     41 C17        6.9925   -0.2459    4.6182 C.3       1 RES1    0.0000
     42 H20        7.7121    0.3658    4.7877 H         1 RES1    0.0000
     43 H21        7.2055   -0.7877    3.8541 H         1 RES1    0.0000
     44 H22        6.8658   -0.8104    5.3835 H         1 RES1    0.0000
     45 C18        4.5960   -0.4401    4.1226 C.3       1 RES1    0.0000
     46 H23        4.8180   -1.0274    3.3965 H         1 RES1    0.0000
     47 H24        3.7964    0.0455    3.9083 H         1 RES1    0.0000
     48 H25        4.4538   -0.9561    4.9190 H         1 RES1    0.0000
@<TRIPOS>BOND
     1    1    7 2
     2    2   13 1
     3    3    4 1
     4    5   10 ar
     5    6    7 1
     6    7    8 1
     7    8    9 1
     8   10   11 1
     9   12    5 1
    10   13    6 2
    11   14    2 1
    12   15    3 1
    13   16    5 ar
    14   17   16 1
    15   18    8 1
    16   19   20 1
    17   21   15 1
    18   22   21 1
    19   23   21 1
    20   24   21 1
    21   25   15 1
    22   26   25 1
    23   27   25 1
    24   28   25 1
    25   29   10 ar
    26   30   29 1
    27   31   16 ar
    28   32   31 1
    29   33   15 1
    30   34   33 1
    31   35   33 1
    32   36   33 1
    33   37   18 1
    34   38   37 1
    35   39   37 1
    36   40   37 1
    37   41   18 1
    38   42   41 1
    39   43   41 1
    40   44   41 1
    41   45   18 1
    42   46   45 1
    43   47   45 1
    44   48   45 1
    45    3   14 1
    46    6   12 1
    47   12   14 2
    48   19   29 ar
    49   19   31 ar
@<TRIPOS>SUBSTRUCTURE
     1 RES1 1

@<TRIPOS>CRYSIN
  10.3226   15.1764   12.1519  90.0000 108.4780  90.0000 231 1

