# MOL2 file generated by ConQuest
# Please check atom types

@<TRIPOS>MOLECULE
CUPKUV
    50    53     1
SMALL
NO_CHARGES
****
Generated from CSD

@<TRIPOS>ATOM
      1 O1        -0.6514    7.4760   -1.4959 O.2       1 RES1    0.0000
      2 O2        -4.2523    4.2689   -0.7598 O.2       1 RES1    0.0000
      3 O3        -4.4893    3.3323    1.1686 O.2       1 RES1    0.0000
      4 O4         3.2787    3.4856    6.5290 O.3       1 RES1    0.0000
      5 N1         0.0501    7.4506    2.5563 N.3       1 RES1    0.0000
      6 N2        -3.9513    4.1326    0.4209 N.pl3     1 RES1    0.0000
      7 C1        -0.4388    7.4812   -0.2711 C.2       1 RES1    0.0000
      8 C2        -1.1854    6.6110    0.6471 C.ar      1 RES1    0.0000
      9 C3        -0.9162    6.6052    2.0274 C.ar      1 RES1    0.0000
     10 C4         0.7572    8.2906    1.7154 C.2       1 RES1    0.0000
     11 C5         0.5234    8.3106    0.3777 C.2       1 RES1    0.0000
     12 H1         1.0292    8.9111   -0.1566 H         1 RES1    0.0000
     13 C6        -2.1899    5.7932    0.1310 C.ar      1 RES1    0.0000
     14 H2        -2.3825    5.8013   -0.7991 H         1 RES1    0.0000
     15 C7        -2.8941    4.9817    0.9712 C.ar      1 RES1    0.0000
     16 C8        -2.6252    4.9327    2.3305 C.ar      1 RES1    0.0000
     17 H3        -3.1180    4.3454    2.8922 H         1 RES1    0.0000
     18 C9        -1.6517    5.7295    2.8603 C.ar      1 RES1    0.0000
     19 H4        -1.4669    5.6954    3.7910 H         1 RES1    0.0000
     20 C10        0.2169    7.5412    4.0177 C.3       1 RES1    0.0000
     21 H5        -0.6781    7.5012    4.4388 H         1 RES1    0.0000
     22 H6         0.6079    8.4244    4.2341 H         1 RES1    0.0000
     23 C11        1.0834    6.4702    4.6356 C.ar      1 RES1    0.0000
     24 C12        1.4853    5.3175    3.9768 C.ar      1 RES1    0.0000
     25 H7         1.2488    5.1883    3.0666 H         1 RES1    0.0000
     26 C13        2.2276    4.3553    4.6364 C.ar      1 RES1    0.0000
     27 H8         2.5043    3.5751    4.1700 H         1 RES1    0.0000
     28 C14        2.5715    4.5143    5.9625 C.ar      1 RES1    0.0000
     29 C15        2.2008    5.6714    6.6281 C.ar      1 RES1    0.0000
     30 H9         2.4481    5.8024    7.5356 H         1 RES1    0.0000
     31 C16        1.4650    6.6368    5.9559 C.ar      1 RES1    0.0000
     32 H10        1.2172    7.4316    6.4126 H         1 RES1    0.0000
     33 C17        3.7050    3.6511    7.8816 C.3       1 RES1    0.0000
     34 H11        4.2943    4.4320    7.9450 H         1 RES1    0.0000
     35 H12        4.1904    2.8509    8.1710 H         1 RES1    0.0000
     36 H13        2.9223    3.7848    8.4558 H         1 RES1    0.0000
     37 C18        1.7830    9.2084    2.2831 C.ar      1 RES1    0.0000
     38 C19        2.9292    8.7415    2.9260 C.ar      1 RES1    0.0000
     39 H14        3.0551    7.8082    3.0488 H         1 RES1    0.0000
     40 C20        3.8822    9.6315    3.3848 C.ar      1 RES1    0.0000
     41 H15        4.6569    9.2962    3.8194 H         1 RES1    0.0000
     42 C21        3.7360   11.0024    3.2260 C.ar      1 RES1    0.0000
     43 C22        2.6024   11.4597    2.5535 C.ar      1 RES1    0.0000
     44 H16        2.4880   12.3921    2.4134 H         1 RES1    0.0000
     45 C23        1.6436   10.5819    2.0873 C.ar      1 RES1    0.0000
     46 H17        0.8824   10.9169    1.6285 H         1 RES1    0.0000
     47 C24        4.7432   11.9717    3.7995 C.3       1 RES1    0.0000
     48 H18        4.8874   12.7055    3.1662 H         1 RES1    0.0000
     49 H19        5.5899   11.5063    3.9600 H         1 RES1    0.0000
     50 H20        4.4044   12.3322    4.6453 H         1 RES1    0.0000
@<TRIPOS>BOND
     1    1    7 2
     2    2    6 2
     3    3    6 2
     4    4   28 1
     5    5    9 1
     6    6   15 1
     7    7    8 1
     8    8    9 ar
     9    9   18 ar
    10   10    5 1
    11   11    7 1
    12   12   11 1
    13   13    8 ar
    14   14   13 1
    15   15   13 ar
    16   16   15 ar
    17   17   16 1
    18   18   16 ar
    19   19   18 1
    20   20    5 1
    21   21   20 1
    22   22   20 1
    23   23   20 1
    24   24   23 ar
    25   25   24 1
    26   26   24 ar
    27   27   26 1
    28   28   26 ar
    29   29   28 ar
    30   30   29 1
    31   31   23 ar
    32   32   31 1
    33   33    4 1
    34   34   33 1
    35   35   33 1
    36   36   33 1
    37   37   10 1
    38   38   37 ar
    39   39   38 1
    40   40   38 ar
    41   41   40 1
    42   42   40 ar
    43   43   42 ar
    44   44   43 1
    45   45   37 ar
    46   46   45 1
    47   47   42 1
    48   48   47 1
    49   49   47 1
    50   50   47 1
    51   10   11 2
    52   29   31 ar
    53   43   45 ar
@<TRIPOS>SUBSTRUCTURE
     1 RES1 1

@<TRIPOS>CRYSIN
  10.4745   10.6976   17.8031  90.0000  91.3840  90.0000  14 1

