# MOL2 file generated by ConQuest
# Please check atom types

@<TRIPOS>MOLECULE
CUPLIK
    49    52     1
SMALL
NO_CHARGES
****
Generated from CSD

@<TRIPOS>ATOM
      1 N1         3.4634    3.3653   11.4974 N.3       1 RES1    0.0000
      2 N2         2.4165    7.7798    8.1706 N.pl3     1 RES1    0.0000
      3 C1         1.8931    4.9590   10.5570 C.ar      1 RES1    0.0000
      4 C2         2.6777    6.6296    9.0347 C.ar      1 RES1    0.0000
      5 C3         3.2091    4.4544   10.6692 C.ar      1 RES1    0.0000
      6 C4         2.4016    2.7243   12.1224 C.2       1 RES1    0.0000
      7 C5         1.6507    6.0623    9.7316 C.ar      1 RES1    0.0000
      8 H1         0.7727    6.4156    9.6558 H         1 RES1    0.0000
      9 C6         0.7747    4.3569   11.2836 C.2       1 RES1    0.0000
     10 C7         3.9828    6.1350    9.1155 C.ar      1 RES1    0.0000
     11 H2         4.6810    6.5381    8.6143 H         1 RES1    0.0000
     12 C8         4.2420    5.0645    9.9245 C.ar      1 RES1    0.0000
     13 H3         5.1270    4.7273    9.9871 H         1 RES1    0.0000
     14 C9         5.7269    2.5089   10.7685 C.ar      1 RES1    0.0000
     15 C10        2.6449    1.4743   12.9094 C.ar      1 RES1    0.0000
     16 C11        7.0827    2.8101   10.6987 C.ar      1 RES1    0.0000
     17 H4         7.4591    3.4297   11.3124 H         1 RES1    0.0000
     18 C12        4.8668    3.0443   11.8974 C.3       1 RES1    0.0000
     19 H5         4.7863    2.2860   12.5440 H         1 RES1    0.0000
     20 C13        3.1793    1.4854   14.1970 C.ar      1 RES1    0.0000
     21 H6         3.4624    2.3064   14.5824 H         1 RES1    0.0000
     22 C14        2.2119    0.2629   12.3755 C.ar      1 RES1    0.0000
     23 H7         1.8325    0.2369   11.5054 H         1 RES1    0.0000
     24 C15        7.8882    2.2166    9.7437 C.ar      1 RES1    0.0000
     25 H8         8.8148    2.4249    9.7134 H         1 RES1    0.0000
     26 C16        2.3331   -0.9081   13.1159 C.ar      1 RES1    0.0000
     27 H9         2.0282   -1.7264   12.7428 H         1 RES1    0.0000
     28 C17        5.1975    1.6136    9.8431 C.ar      1 RES1    0.0000
     29 H10        4.2718    1.4024    9.8690 H         1 RES1    0.0000
     30 C18        1.1253    3.1690   12.0067 C.2       1 RES1    0.0000
     31 H11        0.4321    2.6700   12.4230 H         1 RES1    0.0000
     32 C19        3.2995    0.3087   14.9209 C.ar      1 RES1    0.0000
     33 H12        3.6680    0.3336   15.7953 H         1 RES1    0.0000
     34 C20        2.8903   -0.9081   14.3822 C.ar      1 RES1    0.0000
     35 C21        3.0760   -2.2016   15.1514 C.3       1 RES1    0.0000
     36 H13        3.3044   -1.9974   16.0820 H         1 RES1    0.0000
     37 H14        3.7981   -2.7231   14.7437 H         1 RES1    0.0000
     38 H15        2.2437   -2.7190   15.1255 H         1 RES1    0.0000
     39 C22        7.3578    1.3302    8.8419 C.ar      1 RES1    0.0000
     40 H16        7.9150    0.9231    8.1894 H         1 RES1    0.0000
     41 C23        6.0070    1.0307    8.8880 C.ar      1 RES1    0.0000
     42 H17        5.6355    0.4221    8.2599 H         1 RES1    0.0000
     43 C24        5.4667    4.1945   12.7068 C.3       1 RES1    0.0000
     44 H18        4.8201    4.4917   13.3810 H         1 RES1    0.0000
     45 H19        5.6792    4.9397   12.1076 H         1 RES1    0.0000
     46 H20        6.2851    3.8899   13.1519 H         1 RES1    0.0000
     47 O1         3.3362    8.2407    7.5112 O.2       1 RES1    0.0000
     48 O2         1.2723    8.2304    8.1438 O.2       1 RES1    0.0000
     49 O3        -0.3676    4.8423   11.2506 O.2       1 RES1    0.0000
@<TRIPOS>BOND
     1    1    5 1
     2    2    4 1
     3    3    5 ar
     4    4    7 ar
     5    5   12 ar
     6    6    1 1
     7    7    3 ar
     8    8    7 1
     9    9    3 1
    10   10    4 ar
    11   11   10 1
    12   12   10 ar
    13   13   12 1
    14   14   16 ar
    15   15    6 1
    16   16   17 1
    17   18    1 1
    18   19   18 1
    19   20   15 ar
    20   21   20 1
    21   22   15 ar
    22   23   22 1
    23   24   16 ar
    24   25   24 1
    25   26   22 ar
    26   27   26 1
    27   28   14 ar
    28   29   28 1
    29   30    6 2
    30   31   30 1
    31   32   20 ar
    32   33   32 1
    33   34   26 ar
    34   35   34 1
    35   36   35 1
    36   37   35 1
    37   38   35 1
    38   39   24 ar
    39   40   39 1
    40   41   28 ar
    41   42   41 1
    42   43   18 1
    43   44   43 1
    44   45   43 1
    45   46   43 1
    46   47    2 2
    47   48    2 2
    48   49    9 2
    49    9   30 1
    50   14   18 1
    51   32   34 ar
    52   39   41 ar
@<TRIPOS>SUBSTRUCTURE
     1 RES1 1

@<TRIPOS>CRYSIN
   9.9322   13.6154   14.4052  90.0000  90.0000  90.0000  19 1

