# MOL2 file generated by ConQuest
# Please check atom types

@<TRIPOS>MOLECULE
CUPPIO
    34    35     1
SMALL
NO_CHARGES
****
Generated from CSD

@<TRIPOS>ATOM
      1 C1         4.2278    7.4308    2.9691 C.ar      1 RES1    0.0000
      2 C2         5.5031    7.8998    3.2629 C.ar      1 RES1    0.0000
      3 H1         6.2038    7.7307    2.6757 H         1 RES1    0.0000
      4 C3         5.7352    8.6156    4.4228 C.ar      1 RES1    0.0000
      5 H2         6.5887    8.9244    4.6268 H         1 RES1    0.0000
      6 C4         4.6819    8.8625    5.2658 C.ar      1 RES1    0.0000
      7 C5         3.4124    8.4093    5.0149 C.ar      1 RES1    0.0000
      8 H3         2.7158    8.5950    5.6017 H         1 RES1    0.0000
      9 C6         3.1936    7.6720    3.8698 C.ar      1 RES1    0.0000
     10 H4         2.3456    7.3323    3.6978 H         1 RES1    0.0000
     11 C7         3.9769    6.6467    1.7590 C.2       1 RES1    0.0000
     12 H5         3.2345    6.0879    1.7323 H         1 RES1    0.0000
     13 C8         4.4489    5.7816   -0.3576 C.3       1 RES1    0.0000
     14 H6         3.6251    5.2959   -0.1428 H         1 RES1    0.0000
     15 C9         5.5824    4.7705   -0.4966 C.2       1 RES1    0.0000
     16 C10        4.2306    6.5482   -1.6489 C.ar      1 RES1    0.0000
     17 C11        2.9409    6.8593   -2.0520 C.ar      1 RES1    0.0000
     18 H7         2.2190    6.5824   -1.5357 H         1 RES1    0.0000
     19 C12        2.7156    7.5760   -3.2120 C.ar      1 RES1    0.0000
     20 H8         1.8453    7.7760   -3.4711 H         1 RES1    0.0000
     21 C13        3.7705    7.9926   -3.9832 C.ar      1 RES1    0.0000
     22 H9         3.6193    8.4783   -4.7618 H         1 RES1    0.0000
     23 C14        5.0445    7.6895   -3.5970 C.ar      1 RES1    0.0000
     24 H10        5.7627    7.9641   -4.1197 H         1 RES1    0.0000
     25 C15        5.2753    6.9792   -2.4379 C.ar      1 RES1    0.0000
     26 H11        6.1498    6.7887   -2.1843 H         1 RES1    0.0000
     27 N1         4.7409    6.7039    0.7407 N.2       1 RES1    0.0000
     28 N2         6.7744    5.1046   -0.0126 N.am      1 RES1    0.0000
     29 N3         4.9213    9.6164    6.4995 N.pl3     1 RES1    0.0000
     30 O1         5.3774    3.6922   -1.0581 O.2       1 RES1    0.0000
     31 O2         3.9741   10.0164    7.1437 O.2       1 RES1    0.0000
     32 O3         6.0836    9.7791    6.8413 O.2       1 RES1    0.0000
     33 H12        6.8947    5.8729    0.4429 H         1 RES1    0.0000
     34 H13        7.4844    4.5396   -0.1048 H         1 RES1    0.0000
@<TRIPOS>BOND
     1    1    2 ar
     2    2    3 1
     3    4    2 ar
     4    5    4 1
     5    6    4 ar
     6    7    6 ar
     7    8    7 1
     8    9    1 ar
     9   10    9 1
    10   11    1 1
    11   12   11 1
    12   13   14 1
    13   15   13 1
    14   16   13 1
    15   17   16 ar
    16   18   17 1
    17   19   17 ar
    18   20   19 1
    19   21   19 ar
    20   22   21 1
    21   23   21 ar
    22   24   23 1
    23   25   16 ar
    24   26   25 1
    25   27   11 2
    26   28   15 1
    27   29    6 1
    28   30   15 2
    29   31   29 2
    30   32   29 2
    31   33   28 1
    32   34   28 1
    33    7    9 ar
    34   13   27 1
    35   23   25 ar
@<TRIPOS>SUBSTRUCTURE
     1 RES1 1

@<TRIPOS>CRYSIN
   6.7108    7.9363   13.2410  90.0000  98.2690  90.0000   4 1

