# MOL2 file generated by ConQuest
# Please check atom types

@<TRIPOS>MOLECULE
CUPTAK
    49    53     1
SMALL
NO_CHARGES
****
Generated from CSD

@<TRIPOS>ATOM
      1 O1         8.6148    0.4034   11.8704 O.2       1 RES1    0.0000
      2 O2         6.9960   -0.9007   11.3004 O.2       1 RES1    0.0000
      3 O3         7.7801    6.6052    6.9538 O.3       1 RES1    0.0000
      4 O4         9.9775    2.4354    7.4047 O.2       1 RES1    0.0000
      5 N1         9.9350    3.4592    5.3691 N.am      1 RES1    0.0000
      6 N2         7.6158    0.1513   11.2083 N.pl3     1 RES1    0.0000
      7 C1         9.6608    5.7403    2.4787 C.ar      1 RES1    0.0000
      8 H1         9.9076    5.7743    1.5828 H         1 RES1    0.0000
      9 C2        10.0003    4.6371    3.2241 C.ar      1 RES1    0.0000
     10 H2        10.4823    3.9430    2.8361 H         1 RES1    0.0000
     11 C3         9.6166    4.5604    4.5764 C.ar      1 RES1    0.0000
     12 C4         9.6023    3.3811    6.7137 C.2       1 RES1    0.0000
     13 C5         8.8002    4.4625    7.2639 C.2       1 RES1    0.0000
     14 C6         8.4193    4.3819    8.7196 C.3       1 RES1    0.0000
     15 H3         9.2413    4.3164    9.2483 H         1 RES1    0.0000
     16 C7         7.5512    3.1673    9.0353 C.ar      1 RES1    0.0000
     17 C8         7.9661    2.2321    9.9676 C.ar      1 RES1    0.0000
     18 H4         8.7808    2.3282   10.4047 H         1 RES1    0.0000
     19 C9         7.1477    1.1540   10.2359 C.ar      1 RES1    0.0000
     20 C10        5.9233    0.9719    9.6394 C.ar      1 RES1    0.0000
     21 H5         5.3949    0.2338    9.8425 H         1 RES1    0.0000
     22 C11        5.5036    1.9225    8.7278 C.ar      1 RES1    0.0000
     23 H6         4.6732    1.8399    8.3178 H         1 RES1    0.0000
     24 C12        6.3204    2.9963    8.4275 C.ar      1 RES1    0.0000
     25 H7         6.0353    3.6206    7.8001 H         1 RES1    0.0000
     26 C13        7.7018    5.6450    9.1165 C.2       1 RES1    0.0000
     27 H8         7.4432    5.7331   10.0055 H         1 RES1    0.0000
     28 C14        7.4121    6.6394    8.2921 C.2       1 RES1    0.0000
     29 C15        8.4896    5.5248    6.4978 C.2       1 RES1    0.0000
     30 C16       10.6667    2.3238    4.7943 C.3       1 RES1    0.0000
     31 H9        10.8112    1.6599    5.4726 H         1 RES1    0.0000
     32 H10       11.5129    2.6267    4.4565 H         1 RES1    0.0000
     33 H11       10.1537    1.9424    4.0779 H         1 RES1    0.0000
     34 C17        8.9641    6.8016    3.0254 C.ar      1 RES1    0.0000
     35 H12        8.7550    7.5442    2.5065 H         1 RES1    0.0000
     36 C18        8.5864    6.7462    4.3398 C.ar      1 RES1    0.0000
     37 H13        8.1198    7.4580    4.7143 H         1 RES1    0.0000
     38 C19        8.8945    5.6289    5.1275 C.ar      1 RES1    0.0000
     39 C20        6.7070    7.9036    8.6076 C.ar      1 RES1    0.0000
     40 C21        6.4817    8.8556    7.6201 C.ar      1 RES1    0.0000
     41 H14        6.7759    8.7003    6.7521 H         1 RES1    0.0000
     42 C22        5.8169   10.0426    7.9243 C.ar      1 RES1    0.0000
     43 H15        5.6656   10.6711    7.2561 H         1 RES1    0.0000
     44 C23        5.3852   10.2888    9.1991 C.ar      1 RES1    0.0000
     45 H16        4.9551   11.0887    9.4000 H         1 RES1    0.0000
     46 C24        5.5889    9.3522   10.1797 C.ar      1 RES1    0.0000
     47 H17        5.2887    9.5170   11.0444 H         1 RES1    0.0000
     48 C25        6.2383    8.1643    9.8930 C.ar      1 RES1    0.0000
     49 H18        6.3635    7.5344   10.5655 H         1 RES1    0.0000
@<TRIPOS>BOND
     1    1    6 2
     2    2    6 2
     3    3   28 1
     4    4   12 2
     5    5   11 1
     6    6   19 1
     7    7    8 1
     8    9    7 ar
     9   10    9 1
    10   11    9 ar
    11   12    5 1
    12   13   12 1
    13   14   13 1
    14   15   14 1
    15   16   14 1
    16   17   16 ar
    17   18   17 1
    18   19   17 ar
    19   20   19 ar
    20   21   20 1
    21   22   20 ar
    22   23   22 1
    23   24   16 ar
    24   25   24 1
    25   26   14 1
    26   27   26 1
    27   28   26 2
    28   29    3 1
    29   30    5 1
    30   31   30 1
    31   32   30 1
    32   33   30 1
    33   34    7 ar
    34   35   34 1
    35   36   34 ar
    36   37   36 1
    37   38   11 ar
    38   39   28 1
    39   40   39 ar
    40   41   40 1
    41   42   40 ar
    42   43   42 1
    43   44   42 ar
    44   45   44 1
    45   46   44 ar
    46   47   46 1
    47   48   39 ar
    48   49   48 1
    49   13   29 2
    50   22   24 ar
    51   29   38 1
    52   36   38 ar
    53   46   48 ar
@<TRIPOS>SUBSTRUCTURE
     1 RES1 1

@<TRIPOS>CRYSIN
   7.9732   11.0621   11.7442  78.3030  80.0560  75.7600   2 1

