# MOL2 file generated by ConQuest
# Please check atom types

@<TRIPOS>MOLECULE
CUQTIR
    42    43     1
SMALL
NO_CHARGES
****
Generated from CSD

@<TRIPOS>ATOM
      1 O1         5.8893    6.2357    1.0187 O.3       1 RES1    0.0000
      2 O2         5.8730   10.4238    2.6930 O.2       1 RES1    0.0000
      3 O3         7.8157    9.5979    1.9478 O.3       1 RES1    0.0000
      4 O4        -0.9826    9.2136    2.3982 O.2       1 RES1    0.0000
      5 N1         6.7210    7.3231    1.2744 N.2       1 RES1    0.0000
      6 N2         2.3788    8.3689    1.9939 N.2       1 RES1    0.0000
      7 N3         1.2248    8.8209    2.5876 N.am      1 RES1    0.0000
      8 H1         1.1468    8.9730    3.4659 H         1 RES1    0.0000
      9 N4         0.2104    8.6897    0.5161 N.am      1 RES1    0.0000
     10 H2         1.0221    8.5418    0.2476 H         1 RES1    0.0000
     11 C1         4.6399    6.5034    1.4809 C.2       1 RES1    0.0000
     12 C2         4.6191    7.7366    2.0407 C.2       1 RES1    0.0000
     13 C3         5.9585    8.1970    1.8821 C.2       1 RES1    0.0000
     14 C4         6.5202    9.5281    2.2349 C.2       1 RES1    0.0000
     15 C5         8.4699   10.8821    2.1580 C.3       1 RES1    0.0000
     16 H3         8.2159   11.2144    3.0579 H         1 RES1    0.0000
     17 H4         8.0818   11.5133    1.5134 H         1 RES1    0.0000
     18 C6         9.9379   10.6228    2.0070 C.3       1 RES1    0.0000
     19 H5        10.2233    9.9791    2.7201 H         1 RES1    0.0000
     20 H6        10.4123   11.4425    2.1549 H         1 RES1    0.0000
     21 H7        10.1415   10.3134    1.0556 H         1 RES1    0.0000
     22 C7         3.6360    5.4390    1.2985 C.3       1 RES1    0.0000
     23 H8         2.9514    5.6983    0.7084 H         1 RES1    0.0000
     24 H9         3.2032    5.1900    2.1253 H         1 RES1    0.0000
     25 H10        4.0310    4.6047    0.9996 H         1 RES1    0.0000
     26 C8         3.4497    8.3647    2.6995 C.2       1 RES1    0.0000
     27 C9         3.5733    8.8126    4.1226 C.3       1 RES1    0.0000
     28 H11        4.4804    8.9000    4.3829 H         1 RES1    0.0000
     29 H12        3.1099    9.6218    4.2568 H         1 RES1    0.0000
     30 H13        3.1248    8.2137    4.7582 H         1 RES1    0.0000
     31 C10        0.0775    8.9292    1.8446 C.2       1 RES1    0.0000
     32 C11       -0.8173    8.7094   -0.4581 C.ar      1 RES1    0.0000
     33 C12       -0.4311    8.5490   -1.7669 C.ar      1 RES1    0.0000
     34 H14        0.4865    8.4407   -1.9494 H         1 RES1    0.0000
     35 C13       -1.3786    8.5459   -2.7811 C.ar      1 RES1    0.0000
     36 H15       -1.0678    8.5240   -3.6589 H         1 RES1    0.0000
     37 C14       -2.7072    8.7209   -2.5054 C.ar      1 RES1    0.0000
     38 H16       -3.3902    8.7490   -3.1965 H         1 RES1    0.0000
     39 C15       -3.0835    8.8823   -1.2076 C.ar      1 RES1    0.0000
     40 H17       -4.0010    9.0302   -1.0089 H         1 RES1    0.0000
     41 C16       -2.1636    8.8844   -0.1761 C.ar      1 RES1    0.0000
     42 H18       -2.4422    9.0469    0.7365 H         1 RES1    0.0000
@<TRIPOS>BOND
     1    1    5 1
     2    2   14 2
     3    3   14 1
     4    4   31 2
     5    5   13 2
     6    6    7 1
     7    7    8 1
     8    9   10 1
     9   11    1 1
    10   12   11 2
    11   13   12 1
    12   14   13 1
    13   15    3 1
    14   16   15 1
    15   17   15 1
    16   18   15 1
    17   19   18 1
    18   20   18 1
    19   21   18 1
    20   22   11 1
    21   23   22 1
    22   24   22 1
    23   25   22 1
    24   26    6 2
    25   27   26 1
    26   28   27 1
    27   29   27 1
    28   30   27 1
    29   31    7 1
    30   32    9 1
    31   33   32 ar
    32   34   33 1
    33   35   33 ar
    34   36   35 1
    35   37   35 ar
    36   38   37 1
    37   39   37 ar
    38   40   39 1
    39   41   32 ar
    40   42   41 1
    41    9   31 1
    42   12   26 1
    43   39   41 ar
@<TRIPOS>SUBSTRUCTURE
     1 RES1 1

@<TRIPOS>CRYSIN
  19.7380   10.4155   15.5830  90.0000  92.3480  90.0000  15 1

