# MOL2 file generated by ConQuest
# Please check atom types

@<TRIPOS>MOLECULE
CUQTOX
    42    43     1
SMALL
NO_CHARGES
****
Generated from CSD

@<TRIPOS>ATOM
      1 O1        -4.4401    5.5966    6.0500 O.3       1 RES1    0.0000
      2 O2        -6.2881    3.1994    9.0682 O.2       1 RES1    0.0000
      3 O3        -5.3168    1.7298    7.6716 O.3       1 RES1    0.0000
      4 O4         0.4656    0.2984   12.7966 O.2       1 RES1    0.0000
      5 O5         0.3334    1.6355   11.1179 O.2       1 RES1    0.0000
      6 O6        -3.3077   -1.5834   14.9063 O.2       1 RES1    0.0000
      7 O7        -5.2941   -1.0769   14.2495 O.2       1 RES1    0.0000
      8 N1        -5.4178    4.7467    6.6072 N.2       1 RES1    0.0000
      9 N2        -2.8732    2.8783    9.2380 N.2       1 RES1    0.0000
     10 N3        -1.9948    2.2730   10.1014 N.pl3     1 RES1    0.0000
     11 H1        -1.0909    2.3847   10.0239 H         1 RES1    0.0000
     12 N4        -0.1947    0.9289   11.9831 N.pl3     1 RES1    0.0000
     13 N5        -4.0747   -0.9855   14.1606 N.pl3     1 RES1    0.0000
     14 C1        -3.2267    5.2887    6.5597 C.2       1 RES1    0.0000
     15 C2        -3.3560    4.2538    7.4424 C.2       1 RES1    0.0000
     16 C3        -4.7605    3.9694    7.4174 C.2       1 RES1    0.0000
     17 C4        -5.5421    2.9354    8.1645 C.2       1 RES1    0.0000
     18 C5        -6.0593    0.6180    8.2656 C.3       1 RES1    0.0000
     19 H2        -6.8892    0.6026    7.8028 H         1 RES1    0.0000
     20 H3        -6.1692    0.7786    9.1828 H         1 RES1    0.0000
     21 C6        -5.2648   -0.6166    8.0526 C.3       1 RES1    0.0000
     22 H4        -4.4031   -0.5163    8.4012 H         1 RES1    0.0000
     23 H5        -5.2113   -0.7792    7.0510 H         1 RES1    0.0000
     24 H6        -5.7141   -1.3689    8.4702 H         1 RES1    0.0000
     25 C7        -2.1276    6.1485    6.0648 C.3       1 RES1    0.0000
     26 H7        -1.3812    5.6625    5.6995 H         1 RES1    0.0000
     27 H8        -1.7601    6.6874    6.7452 H         1 RES1    0.0000
     28 H9        -2.4240    6.7400    5.4128 H         1 RES1    0.0000
     29 C8        -2.3657    3.6116    8.3132 C.2       1 RES1    0.0000
     30 C9        -0.8994    3.8303    8.1240 C.3       1 RES1    0.0000
     31 H10       -0.7035    4.2400    7.2663 H         1 RES1    0.0000
     32 H11       -0.4029    2.9653    8.1062 H         1 RES1    0.0000
     33 H12       -0.5594    4.3212    8.8069 H         1 RES1    0.0000
     34 C10       -2.4769    1.4928   11.0981 C.ar      1 RES1    0.0000
     35 C11       -1.6440    0.8260   12.0320 C.ar      1 RES1    0.0000
     36 C12       -2.1648    0.0344   13.0420 C.ar      1 RES1    0.0000
     37 H13       -1.6116   -0.3621   13.6380 H         1 RES1    0.0000
     38 C13       -3.5288   -0.1300   13.1205 C.ar      1 RES1    0.0000
     39 C14       -4.3961    0.5007   12.2259 C.ar      1 RES1    0.0000
     40 H14       -5.3337    0.3681   12.2759 H         1 RES1    0.0000
     41 C15       -3.8778    1.3017   11.2433 C.ar      1 RES1    0.0000
     42 H15       -4.4841    1.7689   10.6330 H         1 RES1    0.0000
@<TRIPOS>BOND
     1    1    8 1
     2    2   17 2
     3    3   17 1
     4    4   12 2
     5    5   12 2
     6    6   13 2
     7    7   13 2
     8    8   16 2
     9    9   10 1
    10   10   11 1
    11   12   35 1
    12   13   38 1
    13   14    1 1
    14   15   14 2
    15   16   15 1
    16   17   16 1
    17   18    3 1
    18   19   18 1
    19   20   18 1
    20   21   18 1
    21   22   21 1
    22   23   21 1
    23   24   21 1
    24   25   14 1
    25   26   25 1
    26   27   25 1
    27   28   25 1
    28   29    9 2
    29   30   29 1
    30   31   30 1
    31   32   30 1
    32   33   30 1
    33   34   10 1
    34   35   34 ar
    35   36   35 ar
    36   37   36 1
    37   38   36 ar
    38   39   38 ar
    39   40   39 1
    40   41   34 ar
    41   42   41 1
    42   15   29 1
    43   39   41 ar
@<TRIPOS>SUBSTRUCTURE
     1 RES1 1

@<TRIPOS>CRYSIN
   8.3363    8.4930   12.2379  92.5680 102.2290 104.4490   2 1

