# MOL2 file generated by ConQuest
# Please check atom types

@<TRIPOS>MOLECULE
CUQWIW
    34    35     1
SMALL
NO_CHARGES
****
Generated from CSD

@<TRIPOS>ATOM
      1 O1        -2.1159   -4.4507    5.8469 O.3       1 RES1    0.0000
      2 O2         0.0194   -4.4940    7.3713 O.2       1 RES1    0.0000
      3 O3        -0.6034   -0.4917   12.2568 O.3       1 RES1    0.0000
      4 N1        -2.1561   -3.8745    7.1343 N.am      1 RES1    0.0000
      5 C1        -3.3110   -2.5427    8.7701 C.3       1 RES1    0.0000
      6 H1        -3.8849   -1.7718    8.9022 H         1 RES1    0.0000
      7 H2        -3.7384   -3.3051    9.1917 H         1 RES1    0.0000
      8 C2        -1.9945   -2.2899    9.4436 C.ar      1 RES1    0.0000
      9 C3        -1.8557   -1.4881   10.5557 C.ar      1 RES1    0.0000
     10 H3        -2.6021   -1.0555   10.9023 H         1 RES1    0.0000
     11 C4        -0.6202   -1.3138   11.1683 C.ar      1 RES1    0.0000
     12 C5         0.5013   -1.9540   10.6606 C.ar      1 RES1    0.0000
     13 H4         1.3320   -1.8405   11.0631 H         1 RES1    0.0000
     14 C6         0.3661   -2.7597    9.5534 C.ar      1 RES1    0.0000
     15 H5         1.1141   -3.1940    9.2113 H         1 RES1    0.0000
     16 C7        -0.8628   -2.9370    8.9377 C.ar      1 RES1    0.0000
     17 C8        -0.9361   -3.8248    7.7484 C.2       1 RES1    0.0000
     18 C9        -3.1830   -2.8137    7.2681 C.3       1 RES1    0.0000
     19 C10       -4.5124   -3.3444    6.7449 C.3       1 RES1    0.0000
     20 H6        -4.4376   -3.5244    5.8046 H         1 RES1    0.0000
     21 H7        -5.1988   -2.6891    6.8917 H         1 RES1    0.0000
     22 H8        -4.7389   -4.1545    7.2091 H         1 RES1    0.0000
     23 C11       -2.7707   -1.5703    6.4971 C.3       1 RES1    0.0000
     24 H9        -1.9397   -1.2392    6.8443 H         1 RES1    0.0000
     25 H10       -3.4482   -0.8958    6.5919 H         1 RES1    0.0000
     26 H11       -2.6662   -1.7893    5.5686 H         1 RES1    0.0000
     27 C12       -2.3319   -5.8673    5.9402 C.3       1 RES1    0.0000
     28 H12       -1.6873   -6.2501    6.5393 H         1 RES1    0.0000
     29 H13       -2.2364   -6.2630    5.0709 H         1 RES1    0.0000
     30 H14       -3.2175   -6.0347    6.2724 H         1 RES1    0.0000
     31 C13        0.6358   -0.3276   12.9436 C.3       1 RES1    0.0000
     32 H15        0.9524   -1.1843   13.2404 H         1 RES1    0.0000
     33 H16        0.5075    0.2465   13.7021 H         1 RES1    0.0000
     34 H17        1.2806    0.0644   12.3511 H         1 RES1    0.0000
@<TRIPOS>BOND
     1    1    4 1
     2    2   17 2
     3    3   11 1
     4    4   17 1
     5    5    6 1
     6    7    5 1
     7    8    5 1
     8    9    8 ar
     9   10    9 1
    10   11    9 ar
    11   12   11 ar
    12   13   12 1
    13   14   12 ar
    14   15   14 1
    15   16    8 ar
    16   17   16 1
    17   18    4 1
    18   19   18 1
    19   20   19 1
    20   21   19 1
    21   22   19 1
    22   23   18 1
    23   24   23 1
    24   25   23 1
    25   26   23 1
    26   27    1 1
    27   28   27 1
    28   29   27 1
    29   30   27 1
    30   31    3 1
    31   32   31 1
    32   33   31 1
    33   34   31 1
    34    5   18 1
    35   14   16 ar
@<TRIPOS>SUBSTRUCTURE
     1 RES1 1

@<TRIPOS>CRYSIN
   7.6086    7.9394   11.3140 108.2400 102.7400  98.4200   2 1

