# MOL2 file generated by ConQuest
# Please check atom types

@<TRIPOS>MOLECULE
CURFIF
    34    36     1
SMALL
NO_CHARGES
****
Generated from CSD

@<TRIPOS>ATOM
      1 O1         5.4711    2.3400   -0.6596 O.2       1 RES1    0.0000
      2 O2        -0.8213   -1.0260    5.7280 O.2       1 RES1    0.0000
      3 O3        -0.2993    0.9988    6.2881 O.2       1 RES1    0.0000
      4 O4         5.6015    0.5548    2.9331 O.3       1 RES1    0.0000
      5 N1        -0.0848   -0.0423    5.6801 N.pl3     1 RES1    0.0000
      6 C1         6.0697    1.2949   -0.5785 C.2       1 RES1    0.0000
      7 C2         1.1075   -0.1047    4.8308 C.ar      1 RES1    0.0000
      8 C3         1.4619   -1.3170    4.3094 C.ar      1 RES1    0.0000
      9 C4         6.4393    0.9606    1.8719 C.3       1 RES1    0.0000
     10 C5         3.3755   -0.2719    3.2813 C.ar      1 RES1    0.0000
     11 C6         1.8426    1.0391    4.5949 C.ar      1 RES1    0.0000
     12 C7         4.4878   -0.0030    0.9746 C.3       1 RES1    0.0000
     13 C8         2.6011   -1.3784    3.5135 C.ar      1 RES1    0.0000
     14 C9         4.6278   -0.3746    2.4504 C.3       1 RES1    0.0000
     15 C10        2.9748    0.9425    3.8119 C.ar      1 RES1    0.0000
     16 C11        5.9269    0.3021    0.5785 C.3       1 RES1    0.0000
     17 C12        7.0523    0.7562   -1.5513 C.3       1 RES1    0.0000
     18 C13        7.6792   -0.4289   -0.8696 C.3       1 RES1    0.0000
     19 C14        6.7337   -0.8982    0.1087 C.3       1 RES1    0.0000
     20 H1         0.9558   -2.0782    4.4807 H         1 RES1    0.0000
     21 H2         1.5812    1.8547    4.9561 H         1 RES1    0.0000
     22 H3         2.8438   -2.1910    3.1302 H         1 RES1    0.0000
     23 H4         3.4769    1.7057    3.6387 H         1 RES1    0.0000
     24 H5         7.3530    0.6857    2.0469 H         1 RES1    0.0000
     25 H6         6.4207    1.9262    1.7853 H         1 RES1    0.0000
     26 H7         4.1292   -0.7411    0.4569 H         1 RES1    0.0000
     27 H8         3.9189    0.7743    0.8586 H         1 RES1    0.0000
     28 H9         7.7240    1.4238   -1.7650 H         1 RES1    0.0000
     29 H10        6.6103    0.4853   -2.3712 H         1 RES1    0.0000
     30 H11        7.8709   -1.1267   -1.5163 H         1 RES1    0.0000
     31 H12        8.5094   -0.1712   -0.4385 H         1 RES1    0.0000
     32 H13        7.1992   -1.3029    0.8567 H         1 RES1    0.0000
     33 H14        6.1469   -1.5637   -0.2856 H         1 RES1    0.0000
     34 H15        4.9870   -1.2828    2.5222 H         1 RES1    0.0000
@<TRIPOS>BOND
     1    1    6 2
     2    2    5 2
     3    3    5 2
     4    4    9 1
     5    5    7 1
     6    6   16 1
     7    7    8 ar
     8    8   13 ar
     9    9   16 1
    10   10   13 ar
    11   11    7 ar
    12   12   14 1
    13   13   22 1
    14   14    4 1
    15   15   10 ar
    16   16   12 1
    17   17    6 1
    18   18   17 1
    19   19   16 1
    20   20    8 1
    21   21   11 1
    22   23   15 1
    23   24    9 1
    24   25    9 1
    25   26   12 1
    26   27   12 1
    27   28   17 1
    28   29   17 1
    29   30   18 1
    30   31   18 1
    31   32   19 1
    32   33   19 1
    33   34   14 1
    34   10   14 1
    35   11   15 ar
    36   18   19 1
@<TRIPOS>SUBSTRUCTURE
     1 RES1 1

@<TRIPOS>CRYSIN
   6.8958   10.0690   18.4240  90.0000  90.0000  90.0000  19 1

