# MOL2 file generated by ConQuest
# Please check atom types

@<TRIPOS>MOLECULE
CURFOL
    37    39     1
SMALL
NO_CHARGES
****
Generated from CSD

@<TRIPOS>ATOM
      1 O1         0.1374    0.5907    3.3741 O.3       1 RES1    0.0000
      2 O2         0.9992    2.5571    6.5508 O.2       1 RES1    0.0000
      3 O3         5.7914    2.1125   -0.8156 O.2       1 RES1    0.0000
      4 O4         4.2992    3.6253   -1.1171 O.2       1 RES1    0.0000
      5 N1         4.7124    2.6221   -0.5640 N.pl3     1 RES1    0.0000
      6 C1         3.5324    0.2493    2.0260 C.ar      1 RES1    0.0000
      7 C2        -0.4685    0.3154    4.6008 C.3       1 RES1    0.0000
      8 C3         0.6347    0.3524    5.7005 C.3       1 RES1    0.0000
      9 C4         1.8697    1.9273    1.7115 C.ar      1 RES1    0.0000
     10 C5         4.3286    0.8450    1.0716 C.ar      1 RES1    0.0000
     11 C6         1.4871    0.1472    3.4533 C.3       1 RES1    0.0000
     12 C7         0.6443   -0.9331    6.5205 C.3       1 RES1    0.0000
     13 C8         1.9086    0.5266    4.8524 C.3       1 RES1    0.0000
     14 C9         0.3677    1.5278    6.6159 C.2       1 RES1    0.0000
     15 C10        2.3011    0.7930    2.3600 C.ar      1 RES1    0.0000
     16 C11        3.8691    1.9794    0.4490 C.ar      1 RES1    0.0000
     17 C12       -0.7189    0.0661    8.3447 C.3       1 RES1    0.0000
     18 C13       -0.5902   -1.0913    7.3925 C.3       1 RES1    0.0000
     19 C14       -0.7656    1.3797    7.5812 C.3       1 RES1    0.0000
     20 C15        2.6480    2.5320    0.7418 C.ar      1 RES1    0.0000
     21 H1         3.8240   -0.5246    2.4511 H         1 RES1    0.0000
     22 H2        -0.8866   -0.5587    4.5769 H         1 RES1    0.0000
     23 H3        -1.1511    0.9782    4.7895 H         1 RES1    0.0000
     24 H4         1.0419    2.2917    1.9262 H         1 RES1    0.0000
     25 H5         5.1587    0.4866    0.8546 H         1 RES1    0.0000
     26 H6         1.5184   -0.8270    3.3557 H         1 RES1    0.0000
     27 H7         0.7049   -1.6910    5.9196 H         1 RES1    0.0000
     28 H8         1.4326   -0.9401    7.0866 H         1 RES1    0.0000
     29 H9         2.2204    1.4447    4.8806 H         1 RES1    0.0000
     30 H10        2.6165   -0.0561    5.1691 H         1 RES1    0.0000
     31 H11        0.0358    0.0711    8.9542 H         1 RES1    0.0000
     32 H12       -1.5287   -0.0340    8.8675 H         1 RES1    0.0000
     33 H13       -1.3793   -1.1384    6.8306 H         1 RES1    0.0000
     34 H14       -0.5287   -1.9183    7.8957 H         1 RES1    0.0000
     35 H15       -1.6038    1.4347    7.0974 H         1 RES1    0.0000
     36 H16       -0.7396    2.1145    8.2146 H         1 RES1    0.0000
     37 H17        2.3510    3.2949    0.2993 H         1 RES1    0.0000
@<TRIPOS>BOND
     1    1    7 1
     2    2   14 2
     3    3    5 2
     4    4    5 2
     5    5   16 1
     6    6   10 ar
     7    7    8 1
     8    8   12 1
     9    9   15 ar
    10   10   16 ar
    11   11    1 1
    12   12   18 1
    13   13    8 1
    14   14    8 1
    15   15    6 ar
    16   16   20 ar
    17   17   18 1
    18   18   33 1
    19   19   14 1
    20   20    9 ar
    21   21    6 1
    22   22    7 1
    23   23    7 1
    24   24    9 1
    25   25   10 1
    26   26   11 1
    27   27   12 1
    28   28   12 1
    29   29   13 1
    30   30   13 1
    31   31   17 1
    32   32   17 1
    33   34   18 1
    34   35   19 1
    35   36   19 1
    36   37   20 1
    37   11   13 1
    38   11   15 1
    39   17   19 1
@<TRIPOS>SUBSTRUCTURE
     1 RES1 1

@<TRIPOS>CRYSIN
   6.3966   10.0120   22.0030  90.0000  99.6530  90.0000  14 1

