# MOL2 file generated by ConQuest
# Please check atom types

@<TRIPOS>MOLECULE
CURNIO
    33    34     1
SMALL
NO_CHARGES
****
Generated from CSD

@<TRIPOS>ATOM
      1 C1         2.5100    2.3075    5.9858 C.ar      1 RES1    0.0000
      2 H1         2.6927    2.5794    6.8564 H         1 RES1    0.0000
      3 C2         3.4430    1.6139    5.2668 C.ar      1 RES1    0.0000
      4 C3         3.2344    1.1960    3.9728 C.ar      1 RES1    0.0000
      5 H2         3.8939    0.7383    3.5034 H         1 RES1    0.0000
      6 C4         2.0161    1.4784    3.3957 C.ar      1 RES1    0.0000
      7 H3         1.8440    1.2010    2.5245 H         1 RES1    0.0000
      8 C5         1.0481    2.1675    4.0977 C.ar      1 RES1    0.0000
      9 H4         0.2282    2.3434    3.6951 H         1 RES1    0.0000
     10 C6         1.2791    2.6030    5.3975 C.ar      1 RES1    0.0000
     11 C7         0.2048    3.3446    6.0539 C.2       1 RES1    0.0000
     12 H5        -0.5436    3.4979    5.5230 H         1 RES1    0.0000
     13 C8         0.1213    3.8385    7.2922 C.2       1 RES1    0.0000
     14 C9        -1.1353    4.5572    7.7187 C.2       1 RES1    0.0000
     15 C10       -2.3295    5.6372    9.5666 C.3       1 RES1    0.0000
     16 H6        -2.4074    5.4026   10.5041 H         1 RES1    0.0000
     17 H7        -3.1365    5.3364    9.1202 H         1 RES1    0.0000
     18 C11       -2.2435    7.1055    9.4511 C.2       1 RES1    0.0000
     19 C12       -1.8115    8.0453   10.2640 C.2       1 RES1    0.0000
     20 H8        -1.4620    7.9197   11.1161 H         1 RES1    0.0000
     21 C13       -1.9760    9.2778    9.6024 C.2       1 RES1    0.0000
     22 H9        -1.7679   10.1191    9.9384 H         1 RES1    0.0000
     23 C14       -2.4736    9.0129    8.4350 C.2       1 RES1    0.0000
     24 H10       -2.6720    9.6462    7.7827 H         1 RES1    0.0000
     25 C15        1.1739    3.7315    8.2560 C.1       1 RES1    0.0000
     26 N1         4.7227    1.3054    5.9276 N.pl3     1 RES1    0.0000
     27 N2         1.9850    3.6670    9.0529 N.1       1 RES1    0.0000
     28 N3        -1.1894    4.9299    9.0000 N.am      1 RES1    0.0000
     29 H11       -0.5231    4.7447    9.5118 H         1 RES1    0.0000
     30 O1         5.5971    0.7845    5.2734 O.2       1 RES1    0.0000
     31 O2         4.8364    1.5698    7.1136 O.2       1 RES1    0.0000
     32 O3        -2.0279    4.7683    6.9187 O.2       1 RES1    0.0000
     33 O4        -2.6604    7.6741    8.3045 O.3       1 RES1    0.0000
@<TRIPOS>BOND
     1    1    2 1
     2    3    1 ar
     3    4    3 ar
     4    5    4 1
     5    6    4 ar
     6    7    6 1
     7    8    6 ar
     8    9    8 1
     9   10    1 ar
    10   11   10 1
    11   12   11 1
    12   13   11 2
    13   14   13 1
    14   15   16 1
    15   17   15 1
    16   18   15 1
    17   19   18 2
    18   20   19 1
    19   21   19 1
    20   22   21 1
    21   23   21 2
    22   24   23 1
    23   25   13 1
    24   26    3 1
    25   27   25 3
    26   28   14 1
    27   29   28 1
    28   30   26 2
    29   31   26 2
    30   32   14 2
    31   33   18 1
    32    8   10 ar
    33   15   28 1
    34   23   33 1
@<TRIPOS>SUBSTRUCTURE
     1 RES1 1

@<TRIPOS>CRYSIN
   7.4358    9.4165   10.3934  90.9380  96.9100 105.8720   2 1

