# MOL2 file generated by ConQuest
# Please check atom types

@<TRIPOS>MOLECULE
CURSIT
    41    43     1
SMALL
NO_CHARGES
****
Generated from CSD

@<TRIPOS>ATOM
      1 O1         1.9261    5.3015   12.2061 O.2       1 RES1    0.0000
      2 N1         2.3066    4.9446   11.0983 N.pl3     1 RES1    0.0000
      3 O2         2.7673    5.7144   10.2613 O.2       1 RES1    0.0000
      4 N2         1.9189    6.5876    2.4007 N.3       1 RES1    0.0000
      5 N3         2.0490    0.3565   12.6759 N.pl3     1 RES1    0.0000
      6 N4         2.3926    3.5864    7.1221 N.2       1 RES1    0.0000
      7 C1         2.2606    4.4081    5.9779 C.ar      1 RES1    0.0000
      8 O3         2.1200    0.7945   13.8140 O.2       1 RES1    0.0000
      9 C2         2.3138    3.7559    4.7493 C.ar      1 RES1    0.0000
     10 H1         2.4308    2.8135    4.7290 H         1 RES1    0.0000
     11 C3         2.2080    3.5184   10.7651 C.ar      1 RES1    0.0000
     12 C4         2.0293    6.5024    4.7982 C.ar      1 RES1    0.0000
     13 H2         1.9452    7.4484    4.8177 H         1 RES1    0.0000
     14 O4         1.9149   -0.8261   12.3991 O.2       1 RES1    0.0000
     15 C5         2.0405    4.0055    8.2714 C.2       1 RES1    0.0000
     16 H3         1.7079    4.8893    8.3815 H         1 RES1    0.0000
     17 C6         2.0575    5.8375    3.5633 C.ar      1 RES1    0.0000
     18 C7         2.1219    5.8021    5.9875 C.ar      1 RES1    0.0000
     19 H4         2.0911    6.2682    6.8137 H         1 RES1    0.0000
     20 C8         2.1548    3.1020    9.4303 C.ar      1 RES1    0.0000
     21 C9         2.1108    1.3036   11.5519 C.ar      1 RES1    0.0000
     22 C10        2.1154    1.7161    9.2106 C.ar      1 RES1    0.0000
     23 H5         2.1022    1.3909    8.3184 H         1 RES1    0.0000
     24 C11        2.2008    4.4448    3.5638 C.ar      1 RES1    0.0000
     25 H6         2.2199    3.9726    2.7398 H         1 RES1    0.0000
     26 C12        2.1739    2.6482   11.8339 C.ar      1 RES1    0.0000
     27 H7         2.1923    2.9655   12.7300 H         1 RES1    0.0000
     28 C13        2.0661    6.0808    1.0992 C.ar      1 RES1    0.0000
     29 C14        2.0957    0.8156   10.2521 C.ar      1 RES1    0.0000
     30 H8         2.0720   -0.1189   10.0858 H         1 RES1    0.0000
     31 C15        3.2220    5.3755    0.7455 C.ar      1 RES1    0.0000
     32 H9         3.9087    5.2340    1.3870 H         1 RES1    0.0000
     33 C16        1.0850    6.3067    0.1448 C.ar      1 RES1    0.0000
     34 H10        0.2990    6.7890    0.3736 H         1 RES1    0.0000
     35 C17        3.3633    4.8827   -0.5463 C.ar      1 RES1    0.0000
     36 H11        4.1381    4.3865   -0.7813 H         1 RES1    0.0000
     37 C18        1.2584    5.8247   -1.1480 C.ar      1 RES1    0.0000
     38 H12        0.5914    5.9897   -1.8032 H         1 RES1    0.0000
     39 C19        2.3848    5.1116   -1.4881 C.ar      1 RES1    0.0000
     40 H13        2.4873    4.7779   -2.3713 H         1 RES1    0.0000
     41 H14        1.4326    7.2707    2.4498 H         1 RES1    0.0000
@<TRIPOS>BOND
     1    1    2 2
     2    2    3 2
     3    4   17 1
     4    5    8 2
     5    6    7 1
     6    7    9 ar
     7    9   10 1
     8   11    2 1
     9   12   13 1
    10   14    5 2
    11   15    6 2
    12   16   15 1
    13   17   12 ar
    14   18    7 ar
    15   19   18 1
    16   20   11 ar
    17   21    5 1
    18   22   20 ar
    19   23   22 1
    20   24    9 ar
    21   25   24 1
    22   26   11 ar
    23   27   26 1
    24   28    4 1
    25   29   21 ar
    26   30   29 1
    27   31   28 ar
    28   32   31 1
    29   33   28 ar
    30   34   33 1
    31   35   31 ar
    32   36   35 1
    33   37   33 ar
    34   38   37 1
    35   39   35 ar
    36   40   39 1
    37   41    4 1
    38   12   18 ar
    39   15   20 1
    40   17   24 ar
    41   21   26 ar
    42   22   29 ar
    43   37   39 ar
@<TRIPOS>SUBSTRUCTURE
     1 RES1 1

@<TRIPOS>CRYSIN
   6.5715   15.0533   17.0598  90.0000  90.0000  90.0000  19 1

