# MOL2 file generated by ConQuest
# Please check atom types

@<TRIPOS>MOLECULE
CUSKAD
    34    35     1
SMALL
NO_CHARGES
****
Generated from CSD

@<TRIPOS>ATOM
      1 C1         9.4133    1.0859    1.0190 C.2       1 RES1    0.0000
      2 O1         8.9944    0.5622    2.0259 O.2       1 RES1    0.0000
      3 O2        10.7189    0.9483    0.6376 O.3       1 RES1    0.0000
      4 C2        10.9347    1.6945   -0.5896 C.3       1 RES1    0.0000
      5 H1        11.1736    1.0537   -1.3200 H         1 RES1    0.0000
      6 C3         9.5861    2.2954   -0.8897 C.2       1 RES1    0.0000
      7 C4         8.7096    1.9272    0.0399 C.2       1 RES1    0.0000
      8 C5         7.2430    2.1848    0.1618 C.3       1 RES1    0.0000
      9 H2         7.0800    2.7955    0.9101 H         1 RES1    0.0000
     10 H3         6.7747    1.3380    0.3229 H         1 RES1    0.0000
     11 H4         6.9116    2.5876   -0.6677 H         1 RES1    0.0000
     12 C6        12.0777    2.6875   -0.4107 C.3       1 RES1    0.0000
     13 H5        12.2069    3.1491   -1.2874 H         1 RES1    0.0000
     14 C7        11.7620    3.7641    0.6230 C.3       1 RES1    0.0000
     15 H6        10.9517    4.2482    0.3546 H         1 RES1    0.0000
     16 H7        12.5124    4.3915    0.6815 H         1 RES1    0.0000
     17 H8        11.6171    3.3450    1.4973 H         1 RES1    0.0000
     18 C8        13.3927    1.9700   -0.0805 C.3       1 RES1    0.0000
     19 H9        13.3144    1.5268    0.7905 H         1 RES1    0.0000
     20 H10       14.1222    2.6235   -0.0504 H         1 RES1    0.0000
     21 H11       13.5816    1.2998   -0.7702 H         1 RES1    0.0000
     22 C9         9.3526    3.1610   -2.0657 C.ar      1 RES1    0.0000
     23 C10        8.7606    4.4188   -1.8982 C.ar      1 RES1    0.0000
     24 H12        8.5190    4.7117   -1.0272 H         1 RES1    0.0000
     25 C11        8.5234    5.2416   -2.9864 C.ar      1 RES1    0.0000
     26 H13        8.1374    6.1023   -2.8701 H         1 RES1    0.0000
     27 C12        8.8611    4.7846   -4.2429 C.ar      1 RES1    0.0000
     28 C13        9.4548    3.5555   -4.4405 C.ar      1 RES1    0.0000
     29 H14        9.6900    3.2686   -5.3148 H         1 RES1    0.0000
     30 C14        9.7009    2.7475   -3.3467 C.ar      1 RES1    0.0000
     31 H15       10.1114    1.8995   -3.4711 H         1 RES1    0.0000
     32 N1         8.5949    5.6517   -5.4035 N.pl3     1 RES1    0.0000
     33 O3         8.7246    5.1740   -6.5258 O.2       1 RES1    0.0000
     34 O4         8.2539    6.8100   -5.1912 O.2       1 RES1    0.0000
@<TRIPOS>BOND
     1    1    2 2
     2    3    1 1
     3    4    3 1
     4    5    4 1
     5    6    4 1
     6    7    1 1
     7    8    7 1
     8    9    8 1
     9   10    8 1
    10   11    8 1
    11   12    4 1
    12   13   12 1
    13   14   12 1
    14   15   14 1
    15   16   14 1
    16   17   14 1
    17   18   12 1
    18   19   18 1
    19   20   18 1
    20   21   18 1
    21   22    6 1
    22   23   22 ar
    23   24   23 1
    24   25   23 ar
    25   26   25 1
    26   27   25 ar
    27   28   27 ar
    28   29   28 1
    29   30   22 ar
    30   31   30 1
    31   32   27 1
    32   33   32 2
    33   34   32 2
    34    6    7 2
    35   28   30 ar
@<TRIPOS>SUBSTRUCTURE
     1 RES1 1

@<TRIPOS>CRYSIN
  13.2701   23.8930    8.1458  90.0000  93.2310  90.0000  15 1

