# MOL2 file generated by ConQuest
# Please check atom types

@<TRIPOS>MOLECULE
CUSMUA
    83    87     1
SMALL
NO_CHARGES
****
Generated from CSD

@<TRIPOS>ATOM
      1 C1         6.2828    1.6509    0.2307 C.2       1 RES1    0.0000
      2 C2         5.7180    1.4978    1.6293 C.3       1 RES1    0.0000
      3 H1         5.0237    0.7805    1.5775 H         1 RES1    0.0000
      4 C3         7.9700    1.5237    2.5562 C.2       1 RES1    0.0000
      5 C4         8.3278    2.3854    1.3419 C.3       1 RES1    0.0000
      6 H2         9.2939    2.2187    1.1421 H         1 RES1    0.0000
      7 C5         4.4105    7.1359    2.2928 C.3       1 RES1    0.0000
      8 C6         4.6958    8.6006    2.6578 C.3       1 RES1    0.0000
      9 H3         5.6017    8.8403    2.3396 H         1 RES1    0.0000
     10 H4         4.0476    9.1807    2.1872 H         1 RES1    0.0000
     11 C7         4.6090    8.8734    4.1476 C.3       1 RES1    0.0000
     12 H5         3.6849    8.7191    4.4656 H         1 RES1    0.0000
     13 H6         4.8484    9.8158    4.3328 H         1 RES1    0.0000
     14 C8         5.5682    7.9432    4.8689 C.3       1 RES1    0.0000
     15 H7         5.5194    8.1212    5.8410 H         1 RES1    0.0000
     16 H8         6.4918    8.1396    4.5719 H         1 RES1    0.0000
     17 C9         5.2670    6.4611    4.6172 C.3       1 RES1    0.0000
     18 C10        3.9837    6.0268    5.3323 C.3       1 RES1    0.0000
     19 H9         3.2623    6.6537    5.1181 H         1 RES1    0.0000
     20 H10        4.1351    6.0217    6.3006 H         1 RES1    0.0000
     21 H11        3.7329    5.1272    5.0361 H         1 RES1    0.0000
     22 C11        6.4255    5.6516    5.2013 C.3       1 RES1    0.0000
     23 H12        6.1915    4.7004    5.2024 H         1 RES1    0.0000
     24 H13        6.5996    5.9461    6.1193 H         1 RES1    0.0000
     25 H14        7.2284    5.7896    4.6562 H         1 RES1    0.0000
     26 C12        2.9106    6.8383    2.3976 C.3       1 RES1    0.0000
     27 H15        2.7635    5.8720    2.3316 H         1 RES1    0.0000
     28 H16        2.4363    7.2909    1.6699 H         1 RES1    0.0000
     29 H17        2.5725    7.1619    3.2589 H         1 RES1    0.0000
     30 C13        4.8332    6.9313    0.8406 C.3       1 RES1    0.0000
     31 H18        5.7954    7.0974    0.7541 H         1 RES1    0.0000
     32 H19        4.3409    7.5539    0.2656 H         1 RES1    0.0000
     33 H20        4.6352    6.0110    0.5693 H         1 RES1    0.0000
     34 C14        8.2197    2.2512   -1.1392 C.3       1 RES1    0.0000
     35 H21        8.6777    3.1288   -1.1179 H         1 RES1    0.0000
     36 H22        7.5198    2.2945   -1.8385 H         1 RES1    0.0000
     37 C15        9.2269    1.1792   -1.5161 C.ar      1 RES1    0.0000
     38 C16       10.0455    1.4010   -2.6163 C.ar      1 RES1    0.0000
     39 H23        9.9920    2.2262   -3.0833 H         1 RES1    0.0000
     40 C17       10.9374    0.4346   -3.0388 C.ar      1 RES1    0.0000
     41 H24       11.4737    0.5899   -3.8074 H         1 RES1    0.0000
     42 C18       11.0545   -0.7527   -2.3521 C.ar      1 RES1    0.0000
     43 H25       11.6763   -1.4119   -2.6353 H         1 RES1    0.0000
     44 C19       10.2604   -0.9727   -1.2511 C.ar      1 RES1    0.0000
     45 H26       10.3438   -1.7858   -0.7668 H         1 RES1    0.0000
     46 C20        9.3361   -0.0183   -0.8384 C.ar      1 RES1    0.0000
     47 H27        8.7785   -0.1909   -0.0889 H         1 RES1    0.0000
     48 C21        6.3058    0.0853    3.6255 C.3       1 RES1    0.0000
     49 H28        7.1108   -0.2732    4.0765 H         1 RES1    0.0000
     50 H29        5.8316   -0.6737    3.2023 H         1 RES1    0.0000
     51 C22        5.4043    0.7181    4.6562 C.ar      1 RES1    0.0000
     52 C23        4.0418    0.4976    4.6489 C.ar      1 RES1    0.0000
     53 H30        3.6610   -0.0838    4.0014 H         1 RES1    0.0000
     54 C24        3.2276    1.1197    5.5800 C.ar      1 RES1    0.0000
     55 H31        2.2887    0.9707    5.5673 H         1 RES1    0.0000
     56 C25        3.7796    1.9536    6.5237 C.ar      1 RES1    0.0000
     57 H32        3.2194    2.3813    7.1610 H         1 RES1    0.0000
     58 C26        5.1357    2.1720    6.5513 C.ar      1 RES1    0.0000
     59 H33        5.5140    2.7447    7.2083 H         1 RES1    0.0000
     60 C27        5.9480    1.5558    5.6187 C.ar      1 RES1    0.0000
     61 H34        6.8863    1.7066    5.6366 H         1 RES1    0.0000
     62 C28        4.9880    2.7806    2.0673 C.3       1 RES1    0.0000
     63 H35        4.4367    3.0945    1.3072 H         1 RES1    0.0000
     64 H36        4.3687    2.5462    2.8039 H         1 RES1    0.0000
     65 C29        5.8583    3.9443    2.5335 C.3       1 RES1    0.0000
     66 H37        6.3322    3.6839    3.3744 H         1 RES1    0.0000
     67 C30        6.8787    4.4671    1.5241 C.3       1 RES1    0.0000
     68 H38        6.5246    4.3283    0.6097 H         1 RES1    0.0000
     69 H39        6.9902    5.4411    1.6583 H         1 RES1    0.0000
     70 C31        9.2773    4.6153    1.8614 C.2       1 RES1    0.0000
     71 C32       11.6070    4.6590    2.1851 C.3       1 RES1    0.0000
     72 H40       11.7051    5.3804    1.5290 H         1 RES1    0.0000
     73 H41       12.3892    4.0703    2.1445 H         1 RES1    0.0000
     74 H42       11.5346    5.0429    3.0833 H         1 RES1    0.0000
     75 N1         7.5825    2.0180    0.1542 N.am      1 RES1    0.0000
     76 N2         6.7213    1.0349    2.5810 N.am      1 RES1    0.0000
     77 N3         5.2921    6.2623    3.1330 N.3       1 RES1    0.0000
     78 N4         8.1915    3.8219    1.6261 N.am      1 RES1    0.0000
     79 O1         5.5646    1.4738   -0.7462 O.2       1 RES1    0.0000
     80 O2         8.8266    1.3080    3.4025 O.2       1 RES1    0.0000
     81 O3         4.8329    4.9106    2.8478 O.3       1 RES1    0.0000
     82 O4         9.2363    5.8085    2.0396 O.2       1 RES1    0.0000
     83 O5        10.4194    3.9006    1.8897 O.3       1 RES1    0.0000
@<TRIPOS>BOND
     1    1    2 1
     2    2    3 1
     3    4    5 1
     4    5    6 1
     5    7    8 1
     6    8    9 1
     7   10    8 1
     8   11    8 1
     9   12   11 1
    10   13   11 1
    11   14   11 1
    12   15   14 1
    13   16   14 1
    14   17   14 1
    15   18   17 1
    16   19   18 1
    17   20   18 1
    18   21   18 1
    19   22   17 1
    20   23   22 1
    21   24   22 1
    22   25   22 1
    23   26    7 1
    24   27   26 1
    25   28   26 1
    26   29   26 1
    27   30    7 1
    28   31   30 1
    29   32   30 1
    30   33   30 1
    31   34   35 1
    32   36   34 1
    33   37   34 1
    34   38   37 ar
    35   39   38 1
    36   40   38 ar
    37   41   40 1
    38   42   40 ar
    39   43   42 1
    40   44   42 ar
    41   45   44 1
    42   46   37 ar
    43   47   46 1
    44   48   49 1
    45   50   48 1
    46   51   48 1
    47   52   51 ar
    48   53   52 1
    49   54   52 ar
    50   55   54 1
    51   56   54 ar
    52   57   56 1
    53   58   56 ar
    54   59   58 1
    55   60   51 ar
    56   61   60 1
    57   62    2 1
    58   63   62 1
    59   64   62 1
    60   65   62 1
    61   66   65 1
    62   67   65 1
    63   68   67 1
    64   69   67 1
    65   70   78 1
    66   71   72 1
    67   73   71 1
    68   74   71 1
    69   75    1 1
    70   76    2 1
    71   77    7 1
    72   78    5 1
    73   79    1 2
    74   80    4 2
    75   81   65 1
    76   82   70 2
    77   83   70 1
    78    4   76 1
    79    5   75 1
    80   17   77 1
    81   34   75 1
    82   44   46 ar
    83   48   76 1
    84   58   60 ar
    85   67   78 1
    86   71   83 1
    87   77   81 1
@<TRIPOS>SUBSTRUCTURE
     1 RES1 1

@<TRIPOS>CRYSIN
  11.5773   11.9927   12.0903  91.4480 105.3010 112.0820   2 1

