# MOL2 file generated by ConQuest
# Please check atom types

@<TRIPOS>MOLECULE
CUSXAQ
    27    28     1
SMALL
NO_CHARGES
****
Generated from CSD

@<TRIPOS>ATOM
      1 O1        -2.6173    2.0776    4.2138 O.3       1 RES1    0.0000
      2 O2         1.0994    4.6998    5.1377 O.2       1 RES1    0.0000
      3 N1        -1.5986    1.4234    4.8752 N.2       1 RES1    0.0000
      4 N2        -2.1350    3.2067    3.5857 N.2       1 RES1    0.0000
      5 N3        -0.0783    4.2132    3.2948 N.am      1 RES1    0.0000
      6 C1         0.8734    4.9031    3.9595 C.2       1 RES1    0.0000
      7 C2        -0.5301    2.1090    4.6656 C.2       1 RES1    0.0000
      8 C3        -0.8746    3.2305    3.8587 C.2       1 RES1    0.0000
      9 C4         0.7763    1.6672    5.1840 C.3       1 RES1    0.0000
     10 C5         1.6419    5.8870    3.1136 C.3       1 RES1    0.0000
     11 H1         2.0187    5.5869    2.4945 H         1 RES1    0.0000
     12 H2         1.0219    6.3304    2.5107 H         1 RES1    0.0000
     13 C6         3.7124    6.6907    4.2138 C.ar      1 RES1    0.0000
     14 H3         4.1458    5.9278    3.9026 H         1 RES1    0.0000
     15 C7         2.3900    6.9062    3.9099 C.ar      1 RES1    0.0000
     16 C8         1.8012    8.0474    4.3861 C.ar      1 RES1    0.0000
     17 H4         0.9089    8.2242    4.1935 H         1 RES1    0.0000
     18 C9         2.5266    8.9287    5.1450 C.ar      1 RES1    0.0000
     19 H5         2.1138    9.7010    5.4562 H         1 RES1    0.0000
     20 C10        3.7754    8.7172    5.4415 C.ar      1 RES1    0.0000
     21 H6         4.2404    9.3252    5.9689 H         1 RES1    0.0000
     22 C11        4.3918    7.6060    4.9800 C.ar      1 RES1    0.0000
     23 H7         5.2874    7.4622    5.1832 H         1 RES1    0.0000
     24 H8        -0.2959    4.5065    2.4864 H         1 RES1    0.0000
     25 H9         0.7254    0.8216    5.5415 H         1 RES1    0.0000
     26 H10        1.0644    2.2799    5.9153 H         1 RES1    0.0000
     27 H11        1.4546    1.6227    4.5339 H         1 RES1    0.0000
@<TRIPOS>BOND
     1    1    3 1
     2    2    6 2
     3    3    7 2
     4    4    1 1
     5    5    6 1
     6    6   10 1
     7    7    8 1
     8    8    4 2
     9    9    7 1
    10   10   11 1
    11   12   10 1
    12   13   14 1
    13   15   10 1
    14   16   15 ar
    15   17   16 1
    16   18   16 ar
    17   19   18 1
    18   20   18 ar
    19   21   20 1
    20   22   13 ar
    21   23   22 1
    22   24    5 1
    23   25    9 1
    24   26    9 1
    25   27    9 1
    26    5    8 1
    27   13   15 ar
    28   20   22 ar
@<TRIPOS>SUBSTRUCTURE
     1 RES1 1

@<TRIPOS>CRYSIN
   6.6190   20.5400    8.3640  90.0000 103.7200  90.0000 231 1

