# MOL2 file generated by ConQuest
# Please check atom types

@<TRIPOS>MOLECULE
CUTHEF
    52    53     1
SMALL
NO_CHARGES
****
Generated from CSD

@<TRIPOS>ATOM
      1 C1         4.5745    5.5246   13.2750 C.2       1 RES1    0.0000
      2 N1         5.3817    4.5221   13.1618 N.pl3     1 RES1    0.0000
      3 C2         6.8737    4.7008   12.9124 C.3       1 RES1    0.0000
      4 O1         4.9806    3.2803   13.1625 O.2       1 RES1    0.0000
      5 C3         7.1236    4.1134   11.5268 C.3       1 RES1    0.0000
      6 H1         8.0754    4.1863   11.3086 H         1 RES1    0.0000
      7 H2         6.5974    4.6062   10.8639 H         1 RES1    0.0000
      8 H3         6.8576    3.1699   11.5195 H         1 RES1    0.0000
      9 C4         7.2748    6.1627   12.9412 C.3       1 RES1    0.0000
     10 H4         8.2401    6.2396   12.7894 H         1 RES1    0.0000
     11 H5         7.0498    6.5461   13.8152 H         1 RES1    0.0000
     12 H6         6.7939    6.6469   12.2372 H         1 RES1    0.0000
     13 C5         7.6171    3.9510   14.0077 C.3       1 RES1    0.0000
     14 H7         7.4482    4.3823   14.8720 H         1 RES1    0.0000
     15 H8         8.5790    3.9641   13.8172 H         1 RES1    0.0000
     16 H9         7.3030    3.0229   14.0385 H         1 RES1    0.0000
     17 C6         3.0869    5.3662   13.2644 C.3       1 RES1    0.0000
     18 H10        2.8728    4.4330   12.9755 H         1 RES1    0.0000
     19 C7         2.5499    6.3381   12.1975 C.3       1 RES1    0.0000
     20 H11        2.6980    7.2759   12.5122 H         1 RES1    0.0000
     21 C8         3.2538    6.1507   10.8693 C.ar      1 RES1    0.0000
     22 C9         4.1268    7.1130   10.3789 C.ar      1 RES1    0.0000
     23 H12        4.2791    7.9071   10.8763 H         1 RES1    0.0000
     24 C10        4.7788    6.9267    9.1701 C.ar      1 RES1    0.0000
     25 H13        5.3743    7.5921    8.8475 H         1 RES1    0.0000
     26 C11        4.5660    5.7770    8.4341 C.ar      1 RES1    0.0000
     27 C12        3.7174    4.7931    8.9106 C.ar      1 RES1    0.0000
     28 H14        3.5778    3.9949    8.4153 H         1 RES1    0.0000
     29 C13        3.0731    4.9930   10.1279 C.ar      1 RES1    0.0000
     30 H15        2.4937    4.3179   10.4606 H         1 RES1    0.0000
     31 O2         1.1475    6.1006   12.1069 O.3       1 RES1    0.0000
     32 C14        0.4867    7.0936   11.3326 C.3       1 RES1    0.0000
     33 H16        0.8081    7.0543   10.4069 H         1 RES1    0.0000
     34 H17        0.6771    7.9795   11.7077 H         1 RES1    0.0000
     35 H18       -0.4800    6.9318   11.3499 H         1 RES1    0.0000
     36 C15        2.4422    5.6038   14.6215 C.ar      1 RES1    0.0000
     37 C16        2.7311    6.7483   15.3567 C.ar      1 RES1    0.0000
     38 H19        3.3503    7.3847   15.0188 H         1 RES1    0.0000
     39 C17        2.1184    6.9648   16.5848 C.ar      1 RES1    0.0000
     40 H20        2.3178    7.7493   17.0828 H         1 RES1    0.0000
     41 C18        1.2209    6.0442   17.0841 C.ar      1 RES1    0.0000
     42 H21        0.8076    6.1940   17.9266 H         1 RES1    0.0000
     43 C19        0.9214    4.9070   16.3641 C.ar      1 RES1    0.0000
     44 H22        0.3024    4.2729   16.7064 H         1 RES1    0.0000
     45 C20        1.5331    4.6939   15.1324 C.ar      1 RES1    0.0000
     46 H23        1.3237    3.9117   14.6341 H         1 RES1    0.0000
     47 O3         5.2259    5.7111    7.2306 O.3       1 RES1    0.0000
     48 C21        4.9486    4.5862    6.3891 C.3       1 RES1    0.0000
     49 H24        3.9787    4.4746    6.3016 H         1 RES1    0.0000
     50 H25        5.3367    3.7784    6.7856 H         1 RES1    0.0000
     51 H26        5.3414    4.7367    5.5033 H         1 RES1    0.0000
     52 H27        4.9599    6.4037   13.2940 H         1 RES1    0.0000
@<TRIPOS>BOND
     1    1    2 2
     2    2    3 1
     3    3    5 1
     4    4    2 1
     5    5    6 1
     6    7    5 1
     7    8    5 1
     8    9    3 1
     9   10    9 1
    10   11    9 1
    11   12    9 1
    12   13    3 1
    13   14   13 1
    14   15   13 1
    15   16   13 1
    16   17    1 1
    17   18   17 1
    18   19   17 1
    19   20   19 1
    20   21   19 1
    21   22   21 ar
    22   23   22 1
    23   24   22 ar
    24   25   24 1
    25   26   24 ar
    26   27   26 ar
    27   28   27 1
    28   29   21 ar
    29   30   29 1
    30   31   19 1
    31   32   31 1
    32   33   32 1
    33   34   32 1
    34   35   32 1
    35   36   17 1
    36   37   36 ar
    37   38   37 1
    38   39   37 ar
    39   40   39 1
    40   41   39 ar
    41   42   41 1
    42   43   41 ar
    43   44   43 1
    44   45   36 ar
    45   46   45 1
    46   47   26 1
    47   48   47 1
    48   49   48 1
    49   50   48 1
    50   51   48 1
    51   52    1 1
    52   27   29 ar
    53   43   45 ar
@<TRIPOS>SUBSTRUCTURE
     1 RES1 1

@<TRIPOS>CRYSIN
  16.1659    5.6972   20.6824  90.0000  90.5706  90.0000  14 1

