# MOL2 file generated by ConQuest
# Please check atom types

@<TRIPOS>MOLECULE
CUTTOB
    24    24     1
SMALL
USER_CHARGES
****
Generated from CSD

@<TRIPOS>ATOM
      1 N1         1.6108    2.8471    2.0870 N.pl3     1 RES1    1.0000
      2 O1         2.3315    3.3811    1.2026 O.2       1 RES1   -1.0000
      3 N2         1.9868    1.9440    2.8983 N.2       1 RES1    0.0000
      4 N3         0.3015    3.2801    2.3581 N.2       1 RES1    0.0000
      5 O2         3.3088    1.6599    2.6073 O.3       1 RES1    0.0000
      6 C1         3.7765    0.6757    3.5415 C.3       1 RES1    0.0000
      7 H1         4.6460    0.3691    3.2741 H         1 RES1    0.0000
      8 H2         3.1670   -0.0653    3.5575 H         1 RES1    0.0000
      9 H3         3.8295    1.0660    4.4166 H         1 RES1    0.0000
     10 C2        -0.4122    3.5539    1.2991 C.2       1 RES1    0.0000
     11 N4        -0.0614    3.4586    0.0202 N.3       1 RES1    0.0000
     12 H4         0.7655    3.2449   -0.1725 H         1 RES1    0.0000
     13 H5        -0.7164    3.4318   -0.5756 H         1 RES1    0.0000
     14 C3        -1.7838    4.0454    1.5902 C.ar      1 RES1    0.0000
     15 C4        -2.5462    3.4636    2.5938 C.ar      1 RES1    0.0000
     16 H6        -2.2003    2.7566    3.0893 H         1 RES1    0.0000
     17 C5        -3.8199    3.9346    2.8584 C.ar      1 RES1    0.0000
     18 H7        -4.3349    3.5361    3.5223 H         1 RES1    0.0000
     19 C6        -4.3259    4.9935    2.1389 C.ar      1 RES1    0.0000
     20 H8        -5.1818    5.3092    2.3183 H         1 RES1    0.0000
     21 C7        -3.5650    5.5874    1.1519 C.ar      1 RES1    0.0000
     22 H9        -3.9050    6.3110    0.6777 H         1 RES1    0.0000
     23 C8        -2.3034    5.1118    0.8671 C.ar      1 RES1    0.0000
     24 H10       -1.7999    5.5041    0.1919 H         1 RES1    0.0000
@<TRIPOS>BOND
     1    1    2 1
     2    3    1 2
     3    4    1 1
     4    5    3 1
     5    6    5 1
     6    7    6 1
     7    8    6 1
     8    9    6 1
     9   10    4 2
    10   11   10 1
    11   12   11 1
    12   13   11 1
    13   14   10 1
    14   15   14 ar
    15   16   15 1
    16   17   15 ar
    17   18   17 1
    18   19   17 ar
    19   20   19 1
    20   21   19 ar
    21   22   21 1
    22   23   14 ar
    23   24   23 1
    24   21   23 ar
@<TRIPOS>SUBSTRUCTURE
     1 RES1 1

@<TRIPOS>CRYSIN
   9.8141   11.4621   17.6029  90.0000  90.0000  90.0000  61 1

