# MOL2 file generated by ConQuest
# Please check atom types

@<TRIPOS>MOLECULE
CUTWOD
    39    39     1
SMALL
NO_CHARGES
****
Generated from CSD

@<TRIPOS>ATOM
      1 C1         1.2952    2.2091   12.8065 C.2       1 RES1    0.0000
      2 C2         0.9947    1.2228   11.9819 C.2       1 RES1    0.0000
      3 C3         3.1089    2.9323   11.2216 C.3       1 RES1    0.0000
      4 C4         2.0859    3.3923   12.2637 C.3       1 RES1    0.0000
      5 C5         1.4074    1.1065   10.5371 C.3       1 RES1    0.0000
      6 C6         2.3883    2.1900   10.0732 C.2       1 RES1    0.0000
      7 C7         0.9417    2.2104   14.2996 C.3       1 RES1    0.0000
      8 C8         4.1826    2.0533   11.8884 C.3       1 RES1    0.0000
      9 C9         2.2389    2.0226   15.0953 C.3       1 RES1    0.0000
     10 C10        0.2155    0.9851    9.5884 C.3       1 RES1    0.0000
     11 C11       -0.0208    1.0694   14.6282 C.3       1 RES1    0.0000
     12 C12        0.2937    3.5431   14.6975 C.3       1 RES1    0.0000
     13 N1         3.8199    4.1321   10.5902 N.pl3     1 RES1    0.0000
     14 N2         2.1820   -0.2402   10.4114 N.pl3     1 RES1    0.0000
     15 N3         1.0747    4.3697   11.6517 N.pl3     1 RES1    0.0000
     16 O1         2.5875    2.4302    8.9183 O.2       1 RES1    0.0000
     17 O2         0.8708    5.4238   12.2235 O.2       1 RES1    0.0000
     18 O3         0.5281    4.0145   10.6257 O.2       1 RES1    0.0000
     19 O4         4.8916    3.9238   10.0635 O.2       1 RES1    0.0000
     20 O5         3.2870    5.2168   10.6305 O.2       1 RES1    0.0000
     21 O6         1.6534   -1.2317   10.8463 O.2       1 RES1    0.0000
     22 O7         3.2717   -0.2377    9.8751 O.2       1 RES1    0.0000
     23 H1         3.7815    1.3007   12.3282 H         1 RES1    0.0000
     24 H2         4.6347    2.5988   12.5359 H         1 RES1    0.0000
     25 H3         4.8134    1.7441   11.2345 H         1 RES1    0.0000
     26 H4         1.9608    2.0009   16.0134 H         1 RES1    0.0000
     27 H5         2.8537    2.7483   14.9648 H         1 RES1    0.0000
     28 H6         2.6692    1.1946   14.8714 H         1 RES1    0.0000
     29 H7        -0.2980    1.7964    9.6270 H         1 RES1    0.0000
     30 H8        -0.3361    0.2440    9.8493 H         1 RES1    0.0000
     31 H9         0.5301    0.8497    8.6912 H         1 RES1    0.0000
     32 H10       -0.2484    1.1397   15.5592 H         1 RES1    0.0000
     33 H11        0.3933    0.2198   14.4639 H         1 RES1    0.0000
     34 H12       -0.8174    1.1448   14.0983 H         1 RES1    0.0000
     35 H13        0.9372    4.2369   14.5348 H         1 RES1    0.0000
     36 H14        0.0850    3.5124   15.6333 H         1 RES1    0.0000
     37 H15       -0.5054    3.7245   14.1965 H         1 RES1    0.0000
     38 H16        2.5028    3.8254   12.9628 H         1 RES1    0.0000
     39 H17        0.5278    0.4957   12.2170 H         1 RES1    0.0000
@<TRIPOS>BOND
     1    1    2 2
     2    2    5 1
     3    3    4 1
     4    4    1 1
     5    5    6 1
     6    6    3 1
     7    7    1 1
     8    8    3 1
     9    9    7 1
    10   10    5 1
    11   11    7 1
    12   12    7 1
    13   13    3 1
    14   14    5 1
    15   15    4 1
    16   16    6 2
    17   17   15 2
    18   18   15 2
    19   19   13 2
    20   20   13 2
    21   21   14 2
    22   22   14 2
    23   23    8 1
    24   24    8 1
    25   25    8 1
    26   26    9 1
    27   27    9 1
    28   28    9 1
    29   29   10 1
    30   30   10 1
    31   31   10 1
    32   32   11 1
    33   33   11 1
    34   34   11 1
    35   35   12 1
    36   36   12 1
    37   37   12 1
    38   38    4 1
    39   39    2 1
@<TRIPOS>SUBSTRUCTURE
     1 RES1 1

@<TRIPOS>CRYSIN
   7.3380   12.7770   16.3790  90.0000 100.4600  90.0000 231 1

