# MOL2 file generated by ConQuest
# Please check atom types

@<TRIPOS>MOLECULE
CUTWUJ
    39    39     1
SMALL
NO_CHARGES
****
Generated from CSD

@<TRIPOS>ATOM
      1 C1         1.3023    1.6848   10.5218 C.3       1 RES1    0.0000
      2 C2         1.8124    0.3514   11.0547 C.2       1 RES1    0.0000
      3 C3         2.6396    0.3688   12.0948 C.2       1 RES1    0.0000
      4 C4        -0.0880    2.1000   12.5840 C.3       1 RES1    0.0000
      5 C5         1.2869   -0.9307   10.3964 C.3       1 RES1    0.0000
      6 C6         2.3140    2.8839   12.5022 C.2       1 RES1    0.0000
      7 C7         3.0924    1.5863   12.8386 C.3       1 RES1    0.0000
      8 C8         1.0220    2.6377   11.6784 C.3       1 RES1    0.0000
      9 C9         3.0677    1.3865   14.3643 C.3       1 RES1    0.0000
     10 C10        2.0329   -2.1569   10.9128 C.3       1 RES1    0.0000
     11 C11        1.4373   -0.8738    8.8706 C.3       1 RES1    0.0000
     12 C12       -0.2136   -1.0707   10.7419 C.3       1 RES1    0.0000
     13 N1         4.5895    1.8171   12.4804 N.pl3     1 RES1    0.0000
     14 N2         2.3952    2.2660    9.6180 N.pl3     1 RES1    0.0000
     15 N3         0.5503    4.0030   11.1474 N.pl3     1 RES1    0.0000
     16 O1         3.3129    2.8531   10.1618 O.2       1 RES1    0.0000
     17 O2         2.2978    2.0787    8.4197 O.2       1 RES1    0.0000
     18 O3         5.1210    1.0070   11.7511 O.2       1 RES1    0.0000
     19 O4         2.5977    3.9508   12.9514 O.2       1 RES1    0.0000
     20 O5         5.1543    2.7604   12.9750 O.2       1 RES1    0.0000
     21 O6         0.7426    4.2588    9.9781 O.2       1 RES1    0.0000
     22 O7         0.0094    4.7474   11.9294 O.2       1 RES1    0.0000
     23 H1         0.1017    1.2542   12.9986 H         1 RES1    0.0000
     24 H2        -0.8955    2.0304   12.0694 H         1 RES1    0.0000
     25 H3        -0.1974    2.7700   13.2623 H         1 RES1    0.0000
     26 H4         2.1747    1.1499   14.6262 H         1 RES1    0.0000
     27 H5         3.3266    2.1965   14.8099 H         1 RES1    0.0000
     28 H6         3.6709    0.6807   14.6098 H         1 RES1    0.0000
     29 H7         1.7201   -2.9544   10.4782 H         1 RES1    0.0000
     30 H8         1.8910   -2.2303   11.8584 H         1 RES1    0.0000
     31 H9         2.9702   -2.0449   10.7382 H         1 RES1    0.0000
     32 H10        0.9400   -0.1525    8.4778 H         1 RES1    0.0000
     33 H11        1.1331   -1.7080    8.5069 H         1 RES1    0.0000
     34 H12        2.3712   -0.7608    8.6761 H         1 RES1    0.0000
     35 H13       -0.5665   -1.8847   10.3764 H         1 RES1    0.0000
     36 H14       -0.6939   -0.3215   10.3818 H         1 RES1    0.0000
     37 H15       -0.3093   -1.0814   11.6984 H         1 RES1    0.0000
     38 H16        0.6058    1.5998    9.9727 H         1 RES1    0.0000
     39 H17        2.9532   -0.4374   12.4531 H         1 RES1    0.0000
@<TRIPOS>BOND
     1    1    2 1
     2    2    3 2
     3    3    7 1
     4    4    8 1
     5    5    2 1
     6    6    7 1
     7    7    9 1
     8    8    1 1
     9    9   26 1
    10   10    5 1
    11   11    5 1
    12   12    5 1
    13   13    7 1
    14   14    1 1
    15   15    8 1
    16   16   14 2
    17   17   14 2
    18   18   13 2
    19   19    6 2
    20   20   13 2
    21   21   15 2
    22   22   15 2
    23   23    4 1
    24   24    4 1
    25   25    4 1
    26   27    9 1
    27   28    9 1
    28   29   10 1
    29   30   10 1
    30   31   10 1
    31   32   11 1
    32   33   11 1
    33   34   11 1
    34   35   12 1
    35   36   12 1
    36   37   12 1
    37   38    1 1
    38   39    3 1
    39    6    8 1
@<TRIPOS>SUBSTRUCTURE
     1 RES1 1

@<TRIPOS>CRYSIN
   8.5450    9.6550   18.1850  90.0000  90.0000  90.0000  19 1

