# MOL2 file generated by ConQuest
# Please check atom types

@<TRIPOS>MOLECULE
CUTWIX
    39    39     1
SMALL
NO_CHARGES
****
Generated from CSD

@<TRIPOS>ATOM
      1 C1         1.0564    1.8056   14.2936 C.3       1 RES1    0.0000
      2 C2         0.9615    0.8828   10.4608 C.3       1 RES1    0.0000
      3 C3         1.2829    1.7322   12.8089 C.2       1 RES1    0.0000
      4 C4         0.1746   -0.6467   13.9174 C.3       1 RES1    0.0000
      5 C5         0.7192    0.8774   11.9638 C.2       1 RES1    0.0000
      6 C6        -0.2243   -0.1480   12.5255 C.3       1 RES1    0.0000
      7 C7         1.5164   -0.4721   10.0018 C.3       1 RES1    0.0000
      8 C8         0.4770    0.5041   14.8752 C.2       1 RES1    0.0000
      9 C9         1.9434    1.9669   10.0532 C.3       1 RES1    0.0000
     10 C10        2.3040    2.2109   15.0707 C.3       1 RES1    0.0000
     11 C11       -0.7700   -1.6695   14.5139 C.3       1 RES1    0.0000
     12 C12       -0.3784    1.1321    9.7583 C.3       1 RES1    0.0000
     13 N1         1.5138   -1.3722   13.6937 N.pl3     1 RES1    0.0000
     14 N2         0.0367    2.9497   14.5587 N.pl3     1 RES1    0.0000
     15 N3        -1.6358    0.4054   12.6581 N.pl3     1 RES1    0.0000
     16 O1         0.3209    0.3640   16.0616 O.2       1 RES1    0.0000
     17 O2         1.5561   -2.2216   12.8370 O.2       1 RES1    0.0000
     18 O3         2.4497   -1.0655   14.3979 O.2       1 RES1    0.0000
     19 O4        -2.5045   -0.0427   11.9919 O.2       1 RES1    0.0000
     20 O5        -0.4973    3.0217   15.6291 O.2       1 RES1    0.0000
     21 O6        -1.8040    1.2695   13.4750 O.2       1 RES1    0.0000
     22 O7        -0.1220    3.7498   13.6887 O.2       1 RES1    0.0000
     23 H1         0.8759   -1.1655   10.1709 H         1 RES1    0.0000
     24 H2         2.3388   -0.6774   10.4526 H         1 RES1    0.0000
     25 H3         1.6765   -0.4081    9.0573 H         1 RES1    0.0000
     26 H4         1.5853    2.8337   10.2554 H         1 RES1    0.0000
     27 H5         2.0240    1.8682    9.1004 H         1 RES1    0.0000
     28 H6         2.8088    1.8749   10.4575 H         1 RES1    0.0000
     29 H7         2.9824    1.5402   14.9646 H         1 RES1    0.0000
     30 H8         2.0988    2.3150   16.0036 H         1 RES1    0.0000
     31 H9         2.6207    3.0457   14.7178 H         1 RES1    0.0000
     32 H10       -1.6189   -1.2642   14.7062 H         1 RES1    0.0000
     33 H11       -0.3875   -2.0123   15.3259 H         1 RES1    0.0000
     34 H12       -0.8935   -2.3896   13.8909 H         1 RES1    0.0000
     35 H13       -0.1989    1.2228    8.8204 H         1 RES1    0.0000
     36 H14       -0.7493    1.9522   10.0930 H         1 RES1    0.0000
     37 H15       -1.0051    0.4174    9.8974 H         1 RES1    0.0000
     38 H16        1.8692    2.3190   12.5156 H         1 RES1    0.0000
     39 H17       -0.2926   -0.8574   11.9737 H         1 RES1    0.0000
@<TRIPOS>BOND
     1    1    3 1
     2    2    5 1
     3    3    5 2
     4    4    6 1
     5    5    6 1
     6    6   15 1
     7    7    2 1
     8    8    1 1
     9    9    2 1
    10   10    1 1
    11   11    4 1
    12   12    2 1
    13   13    4 1
    14   14    1 1
    15   15   19 2
    16   16    8 2
    17   17   13 2
    18   18   13 2
    19   20   14 2
    20   21   15 2
    21   22   14 2
    22   23    7 1
    23   24    7 1
    24   25    7 1
    25   26    9 1
    26   27    9 1
    27   28    9 1
    28   29   10 1
    29   30   10 1
    30   31   10 1
    31   32   11 1
    32   33   11 1
    33   34   11 1
    34   35   12 1
    35   36   12 1
    36   37   12 1
    37   38    3 1
    38   39    6 1
    39    4    8 1
@<TRIPOS>SUBSTRUCTURE
     1 RES1 1

@<TRIPOS>CRYSIN
   6.8460   13.3350   16.6120  90.0000  94.0600  90.0000  14 1

