# MOL2 file generated by ConQuest
# Please check atom types

@<TRIPOS>MOLECULE
CUTYAS
    42    44     1
SMALL
NO_CHARGES
****
Generated from CSD

@<TRIPOS>ATOM
      1 N1         8.1749    7.3653    1.7544 N.am      1 RES1    0.0000
      2 N2         8.1369    4.5174    1.2667 N.pl3     1 RES1    0.0000
      3 O1         5.9087    7.4007    2.1221 O.2       1 RES1    0.0000
      4 O2        10.4488    7.6545    2.0052 O.2       1 RES1    0.0000
      5 O3         8.2183    6.3270   -2.3644 O.2       1 RES1    0.0000
      6 O4         7.4368    3.7098    1.8177 O.2       1 RES1    0.0000
      7 O5         9.3201    4.5420    1.3755 O.2       1 RES1    0.0000
      8 C1         8.1836    6.8322    0.3976 C.3       1 RES1    0.0000
      9 H1         9.1171    6.6812    0.1428 H         1 RES1    0.0000
     10 C2         7.4737    5.4867    0.3748 C.3       1 RES1    0.0000
     11 H2         6.5521    5.6036    0.6548 H         1 RES1    0.0000
     12 H3         7.4693    5.1405   -0.5313 H         1 RES1    0.0000
     13 C3         7.5822    7.8299   -0.5991 C.3       1 RES1    0.0000
     14 H4         6.6378    7.9549   -0.3707 H         1 RES1    0.0000
     15 C4         7.6560    7.3186   -2.0139 C.2       1 RES1    0.0000
     16 H5         7.2273    7.8184   -2.6701 H         1 RES1    0.0000
     17 C5         8.2617    9.2159   -0.5985 C.3       1 RES1    0.0000
     18 H6         9.2202    9.0795   -0.6535 H         1 RES1    0.0000
     19 H7         7.9915    9.6813   -1.4057 H         1 RES1    0.0000
     20 C6         7.9882   10.1170    0.5683 C.ar      1 RES1    0.0000
     21 C7         9.0183   10.7154    1.2753 C.ar      1 RES1    0.0000
     22 H8         9.9019   10.5331    1.0488 H         1 RES1    0.0000
     23 C8         8.7372   11.5901    2.3242 C.ar      1 RES1    0.0000
     24 H9         9.4330   11.9959    2.7882 H         1 RES1    0.0000
     25 C9         7.4541   11.8503    2.6701 C.ar      1 RES1    0.0000
     26 H10        7.2718   12.4235    3.3798 H         1 RES1    0.0000
     27 C10        6.4435   11.2829    1.9892 C.ar      1 RES1    0.0000
     28 H11        5.5643   11.4697    2.2267 H         1 RES1    0.0000
     29 C11        6.7019   10.4277    0.9472 C.ar      1 RES1    0.0000
     30 H12        5.9898   10.0493    0.4846 H         1 RES1    0.0000
     31 C12        7.0297    7.6385    2.4981 C.2       1 RES1    0.0000
     32 C13        9.3331    7.7439    2.4301 C.2       1 RES1    0.0000
     33 C14        8.8696    8.3068    3.7159 C.ar      1 RES1    0.0000
     34 C15        7.5051    8.2472    3.7515 C.ar      1 RES1    0.0000
     35 C16        6.7768    8.7379    4.8117 C.ar      1 RES1    0.0000
     36 H13        5.8487    8.6863    4.8391 H         1 RES1    0.0000
     37 C17        7.5138    9.3168    5.8371 C.ar      1 RES1    0.0000
     38 H14        7.0666    9.6676    6.5730 H         1 RES1    0.0000
     39 C18        8.8740    9.3833    5.7932 C.ar      1 RES1    0.0000
     40 H15        9.3288    9.7834    6.4988 H         1 RES1    0.0000
     41 C19        9.5936    8.8743    4.7375 C.ar      1 RES1    0.0000
     42 H16       10.5228    8.9133    4.7156 H         1 RES1    0.0000
@<TRIPOS>BOND
     1    1    8 1
     2    2    6 2
     3    3   31 2
     4    4   32 2
     5    5   15 2
     6    7    2 2
     7    8    9 1
     8   10    2 1
     9   11   10 1
    10   12   10 1
    11   13    8 1
    12   14   13 1
    13   15   13 1
    14   16   15 1
    15   17   13 1
    16   18   17 1
    17   19   17 1
    18   20   17 1
    19   21   20 ar
    20   22   21 1
    21   23   21 ar
    22   24   23 1
    23   25   23 ar
    24   26   25 1
    25   27   25 ar
    26   28   27 1
    27   29   20 ar
    28   30   29 1
    29   31    1 1
    30   32    1 1
    31   33   32 1
    32   34   31 1
    33   35   34 ar
    34   36   35 1
    35   37   35 ar
    36   38   37 1
    37   39   37 ar
    38   40   39 1
    39   41   33 ar
    40   42   41 1
    41    8   10 1
    42   27   29 ar
    43   33   34 ar
    44   39   41 ar
@<TRIPOS>SUBSTRUCTURE
     1 RES1 1

@<TRIPOS>CRYSIN
  10.8550   11.4640   13.7280  90.0000  90.0000  90.0000  19 1

