# MOL2 file generated by ConQuest
# Please check atom types

@<TRIPOS>MOLECULE
CUVJUY
    18    18     1
SMALL
NO_CHARGES
****
Generated from CSD

@<TRIPOS>ATOM
      1 N1         1.1347    0.4021    0.6618 N.pl3     1 RES1    0.0000
      2 C1        -0.1329    0.4665    1.3593 C.3       1 RES1    0.0000
      3 C2         1.0900    0.5565   -0.7817 C.3       1 RES1    0.0000
      4 N2         2.2190    0.2773    1.4319 N.2       1 RES1    0.0000
      5 O1         3.2492    0.2773    0.8122 O.2       1 RES1    0.0000
      6 H1        -0.4747    1.3994    1.2415 H         1 RES1    0.0000
      7 H2         0.0380    0.2562    2.2725 H         1 RES1    0.0000
      8 H3         2.0034    0.4073   -1.0942 H         1 RES1    0.0000
      9 H4         0.7311    1.4848   -0.9574 H         1 RES1    0.0000
     10 C2D       -1.0900   -0.5565    0.7817 C.3       1 RES1    0.0000
     11 C1D        0.1329   -0.4665   -1.3593 C.3       1 RES1    0.0000
     12 N1D       -1.1347   -0.4021   -0.6618 N.3       1 RES1    0.0000
     13 H3D       -2.0034   -0.4073    1.0942 H         1 RES1    0.0000
     14 H4D       -0.7311   -1.4848    0.9574 H         1 RES1    0.0000
     15 H1D        0.4747   -1.3994   -1.2415 H         1 RES1    0.0000
     16 H2D       -0.0380   -0.2562   -2.2725 H         1 RES1    0.0000
     17 N2D       -2.2190   -0.2773   -1.4319 N.2       1 RES1    0.0000
     18 O1D       -3.2492   -0.2773   -0.8122 O.2       1 RES1    0.0000
@<TRIPOS>BOND
     1    1    2 1
     2    2    6 1
     3    3    1 1
     4    4    1 1
     5    5    4 2
     6    7    2 1
     7    8    3 1
     8    9    3 1
     9   10    2 1
    10   11    3 1
    11   12   10 1
    12   13   10 1
    13   14   10 1
    14   15   11 1
    15   16   11 1
    16   17   12 1
    17   18   17 2
    18   11   12 1
@<TRIPOS>SUBSTRUCTURE
     1 RES1 1

@<TRIPOS>CRYSIN
   9.4950    6.5700   10.5210  90.0000  90.0000  90.0000  61 1

