# MOL2 file generated by ConQuest
# Please check atom types

@<TRIPOS>MOLECULE
CUWKOW
    39    40     1
SMALL
NO_CHARGES
****
Generated from CSD

@<TRIPOS>ATOM
      1 C1         5.9404   10.1290    1.9423 C.2       1 RES1    0.0000
      2 C2         5.6211   11.4647    2.3143 C.2       1 RES1    0.0000
      3 H1         6.1911   12.2233    2.2950 H         1 RES1    0.0000
      4 C3         4.3273   11.4141    2.7004 C.2       1 RES1    0.0000
      5 C4         3.3646   12.4303    3.1366 C.ar      1 RES1    0.0000
      6 C5         2.0347   12.3560    2.7056 C.ar      1 RES1    0.0000
      7 H2         1.7530   11.6209    2.1731 H         1 RES1    0.0000
      8 C6         1.1261   13.3419    3.0472 C.ar      1 RES1    0.0000
      9 H3         0.2257   13.2819    2.7510 H         1 RES1    0.0000
     10 C7         1.5330   14.4199    3.8247 C.ar      1 RES1    0.0000
     11 H4         0.9116   15.1009    4.0533 H         1 RES1    0.0000
     12 C8         2.8448   14.5024    4.2677 C.ar      1 RES1    0.0000
     13 H5         3.1130   15.2411    4.8022 H         1 RES1    0.0000
     14 C9         3.7784   13.5145    3.9380 C.ar      1 RES1    0.0000
     15 C10        5.1400   13.5590    4.4923 C.2       1 RES1    0.0000
     16 H6         5.5509   12.7289    4.7072 H         1 RES1    0.0000
     17 C11        5.8439   14.6667    4.7174 C.2       1 RES1    0.0000
     18 H7         5.4503   15.5018    4.4927 H         1 RES1    0.0000
     19 C12        7.2009   14.6687    5.2965 C.2       1 RES1    0.0000
     20 C13        7.8626   13.3660    5.6448 C.3       1 RES1    0.0000
     21 H8         8.7671   13.5386    5.9810 H         1 RES1    0.0000
     22 H9         7.9136   12.8019    4.8450 H         1 RES1    0.0000
     23 H10        7.3389   12.9086    6.3349 H         1 RES1    0.0000
     24 C14        7.2779    9.6465    1.4203 C.3       1 RES1    0.0000
     25 C15        7.2136    8.1729    1.0231 C.3       1 RES1    0.0000
     26 H11        7.0046    7.6314    1.8121 H         1 RES1    0.0000
     27 H12        8.0789    7.8961    0.6563 H         1 RES1    0.0000
     28 H13        6.5160    8.0481    0.3460 H         1 RES1    0.0000
     29 C16        7.6410   10.5082    0.2007 C.3       1 RES1    0.0000
     30 H14        6.9259   10.4478   -0.4671 H         1 RES1    0.0000
     31 H15        8.4804   10.1851   -0.1892 H         1 RES1    0.0000
     32 H16        7.7476   11.4412    0.4805 H         1 RES1    0.0000
     33 C17        8.3328    9.8547    2.5192 C.3       1 RES1    0.0000
     34 H17        8.3887   10.8072    2.7423 H         1 RES1    0.0000
     35 H18        9.2047    9.5432    2.1984 H         1 RES1    0.0000
     36 H19        8.0771    9.3477    3.3171 H         1 RES1    0.0000
     37 N1         4.9181    9.3281    2.0920 N.2       1 RES1    0.0000
     38 O1         3.8623   10.1428    2.5835 O.3       1 RES1    0.0000
     39 O2         7.7752   15.7297    5.4829 O.2       1 RES1    0.0000
@<TRIPOS>BOND
     1    1    2 1
     2    2    3 1
     3    4    2 2
     4    5    4 1
     5    6    5 ar
     6    7    6 1
     7    8    6 ar
     8    9    8 1
     9   10    8 ar
    10   11   10 1
    11   12   10 ar
    12   13   12 1
    13   14    5 ar
    14   15   14 1
    15   16   15 1
    16   17   15 2
    17   18   17 1
    18   19   17 1
    19   20   19 1
    20   21   20 1
    21   22   20 1
    22   23   20 1
    23   24    1 1
    24   25   24 1
    25   26   25 1
    26   27   25 1
    27   28   25 1
    28   29   24 1
    29   30   29 1
    30   31   29 1
    31   32   29 1
    32   33   24 1
    33   34   33 1
    34   35   33 1
    35   36   33 1
    36   37    1 2
    37   38    4 1
    38   39   19 2
    39   12   14 ar
    40   37   38 1
@<TRIPOS>SUBSTRUCTURE
     1 RES1 1

@<TRIPOS>CRYSIN
   9.5944   19.7500    7.9170  90.0000  90.5540  90.0000  14 1

