# MOL2 file generated by ConQuest
# Please check atom types

@<TRIPOS>MOLECULE
CUXNOY
    48    49     1
SMALL
NO_CHARGES
****
Generated from CSD

@<TRIPOS>ATOM
      1 N1         0.7278    1.6728    9.8353 N.pl3     1 RES1    0.0000
      2 O1         3.5135   -1.1101   13.7395 O.3       1 RES1    0.0000
      3 O2         1.2463   -0.9300   15.2075 O.3       1 RES1    0.0000
      4 O3         3.3141    0.6626   16.2978 O.3       1 RES1    0.0000
      5 O4         6.0423    1.6295   15.7850 O.3       1 RES1    0.0000
      6 O5         7.3452    1.3090   13.1989 O.3       1 RES1    0.0000
      7 O6         5.5603    0.8256   10.7609 O.3       1 RES1    0.0000
      8 O7        -0.4950    1.6502    9.8316 O.2       1 RES1    0.0000
      9 O8         1.3778    2.3246    9.0245 O.2       1 RES1    0.0000
     10 C1         2.7880   -0.4655   12.7880 C.ar      1 RES1    0.0000
     11 C2         3.5011    0.1440   11.7587 C.ar      1 RES1    0.0000
     12 C3         2.8191    0.8418   10.7850 C.ar      1 RES1    0.0000
     13 C4         1.4376    0.8967   10.8461 C.ar      1 RES1    0.0000
     14 C5         0.7239    0.2710   11.8439 C.ar      1 RES1    0.0000
     15 C6         1.3824   -0.4276   12.8287 C.ar      1 RES1    0.0000
     16 C7         0.6599   -1.1551   13.9320 C.3       1 RES1    0.0000
     17 C8         1.0470    0.3988   15.6814 C.3       1 RES1    0.0000
     18 C9         1.9910    0.6959   16.7865 C.3       1 RES1    0.0000
     19 C10        4.2302    1.1209   17.2715 C.3       1 RES1    0.0000
     20 C11        5.6258    0.8346   16.8717 C.3       1 RES1    0.0000
     21 C12        7.4338    1.4981   15.5333 C.3       1 RES1    0.0000
     22 C13        7.7880    2.1391   14.2504 C.3       1 RES1    0.0000
     23 C14        7.4143    1.9140   11.9179 C.3       1 RES1    0.0000
     24 C15        6.9755    0.9453   10.8627 C.3       1 RES1    0.0000
     25 C16        4.9966    0.0630   11.8087 C.3       1 RES1    0.0000
     26 H1         3.0090   -1.1929   14.5281 H         1 RES1    0.0000
     27 H2         3.2908    1.2955   10.0964 H         1 RES1    0.0000
     28 H3        -0.2250    0.3232   11.8457 H         1 RES1    0.0000
     29 H4         0.6936   -2.0860   13.7487 H         1 RES1    0.0000
     30 H5        -0.2458   -0.8679   13.9487 H         1 RES1    0.0000
     31 H6         1.2356    1.0083   14.9761 H         1 RES1    0.0000
     32 H7         0.1464    0.5087   15.9609 H         1 RES1    0.0000
     33 H8         1.8812    0.0216   17.4474 H         1 RES1    0.0000
     34 H9         1.8120    1.5467   17.1697 H         1 RES1    0.0000
     35 H10        4.1443    2.0644   17.3400 H         1 RES1    0.0000
     36 H11        4.0357    0.7238   18.1138 H         1 RES1    0.0000
     37 H12        5.6399   -0.0747   16.5977 H         1 RES1    0.0000
     38 H13        6.2245    0.9552   17.5992 H         1 RES1    0.0000
     39 H14        7.9186    1.9095   16.2386 H         1 RES1    0.0000
     40 H15        7.6596    0.5762   15.4889 H         1 RES1    0.0000
     41 H16        8.7294    2.2562   14.1893 H         1 RES1    0.0000
     42 H17        7.3602    2.9845   14.1875 H         1 RES1    0.0000
     43 H18        6.8085    2.6451   11.9068 H         1 RES1    0.0000
     44 H19        8.2940    2.2282   11.7421 H         1 RES1    0.0000
     45 H20        7.3452    0.0999   11.0904 H         1 RES1    0.0000
     46 H21        7.3187    1.2235   10.0223 H         1 RES1    0.0000
     47 H22        5.2541   -0.8463   11.7087 H         1 RES1    0.0000
     48 H23        5.3064    0.3898   12.6454 H         1 RES1    0.0000
@<TRIPOS>BOND
     1    1    8 2
     2    2   10 1
     3    3   16 1
     4    4   18 1
     5    5   20 1
     6    6   22 1
     7    7   24 1
     8    9    1 2
     9   10   11 ar
    10   11   12 ar
    11   12   13 ar
    12   13    1 1
    13   14   13 ar
    14   15   10 ar
    15   16   15 1
    16   17    3 1
    17   18   17 1
    18   19    4 1
    19   20   19 1
    20   21    5 1
    21   22   21 1
    22   23    6 1
    23   24   23 1
    24   25    7 1
    25   26    2 1
    26   27   12 1
    27   28   14 1
    28   29   16 1
    29   30   16 1
    30   31   17 1
    31   32   17 1
    32   33   18 1
    33   34   18 1
    34   35   19 1
    35   36   19 1
    36   37   20 1
    37   38   20 1
    38   39   21 1
    39   40   21 1
    40   41   22 1
    41   42   22 1
    42   43   23 1
    43   44   23 1
    44   45   24 1
    45   46   24 1
    46   47   25 1
    47   48   25 1
    48   11   25 1
    49   14   15 ar
@<TRIPOS>SUBSTRUCTURE
     1 RES1 1

@<TRIPOS>CRYSIN
  10.5030    9.0030   18.9240  90.0000 101.9800  90.0000  14 1

