# MOL2 file generated by ConQuest
# Please check atom types

@<TRIPOS>MOLECULE
CUXSIY
    64    67     1
SMALL
NO_CHARGES
****
Generated from CSD

@<TRIPOS>ATOM
      1 C1         5.0274    0.8237    0.2947 C.ar      1 RES1    0.0000
      2 C2         6.0127    1.8204    0.3150 C.ar      1 RES1    0.0000
      3 C3         6.9400    0.9620    2.3562 C.ar      1 RES1    0.0000
      4 H1         7.5857    1.0240    3.0503 H         1 RES1    0.0000
      5 C4         5.9947   -0.0468    2.3941 C.ar      1 RES1    0.0000
      6 H2         5.9841   -0.6838    3.0989 H         1 RES1    0.0000
      7 C5         6.9605    1.8932    1.3106 C.ar      1 RES1    0.0000
      8 H3         7.6254    2.5715    1.2890 H         1 RES1    0.0000
      9 O1         7.1348    3.2945   -1.0769 O.2       1 RES1    0.0000
     10 N1         6.0418    2.8593   -0.7180 N.pl3     1 RES1    0.0000
     11 N2         4.0582   -1.0447    1.1246 N.am      1 RES1    0.0000
     12 C6         3.4284   -0.7260   -0.0563 C.2       1 RES1    0.0000
     13 H4         2.7207   -1.2285   -0.4414 H         1 RES1    0.0000
     14 O2         4.9676    3.2696   -1.1544 O.2       1 RES1    0.0000
     15 C7         3.9567    0.4098   -0.6008 C.2       1 RES1    0.0000
     16 C8         5.0601   -0.0963    1.3658 C.ar      1 RES1    0.0000
     17 O3         3.0219   -3.0042    1.2382 O.3       1 RES1    0.0000
     18 O4         4.0775   -2.2063    3.0991 O.2       1 RES1    0.0000
     19 C9         2.4924   -4.2457    1.8726 C.3       1 RES1    0.0000
     20 C10        3.7379   -2.1369    1.9503 C.2       1 RES1    0.0000
     21 O5         2.9009    1.9987   -4.3854 O.2       1 RES1    0.0000
     22 N3         1.1640    0.5937   -1.5658 N.am      1 RES1    0.0000
     23 C11        2.2805    0.9723   -2.3400 C.2       1 RES1    0.0000
     24 C12        2.0246    1.4933   -3.7140 C.2       1 RES1    0.0000
     25 N4         0.6980    1.3731   -4.1484 N.am      1 RES1    0.0000
     26 O6        -0.9489   -0.2073   -1.3929 O.2       1 RES1    0.0000
     27 C13       -0.0218    0.2190   -2.0807 C.2       1 RES1    0.0000
     28 C14        1.3624   -1.6753   -4.1426 C.ar      1 RES1    0.0000
     29 C15        1.6732   -2.4502   -3.0165 C.ar      1 RES1    0.0000
     30 H5         1.0360   -2.5410   -2.3197 H         1 RES1    0.0000
     31 C16        3.5585   -2.1728   -5.0229 C.ar      1 RES1    0.0000
     32 H6         4.2111   -2.0676   -5.7055 H         1 RES1    0.0000
     33 C17        2.3197   -1.5415   -5.1385 C.ar      1 RES1    0.0000
     34 H7         2.1299   -1.0147   -5.9064 H         1 RES1    0.0000
     35 C18        2.9014   -3.0856   -2.9093 C.ar      1 RES1    0.0000
     36 H8         3.0984   -3.6125   -2.1432 H         1 RES1    0.0000
     37 C19        3.8372   -2.9516   -3.9140 C.ar      1 RES1    0.0000
     38 H9         4.6751   -3.3953   -3.8449 H         1 RES1    0.0000
     39 C20        0.1506    2.1217   -5.2184 C.2       1 RES1    0.0000
     40 C21        3.6293   -5.0666    2.4436 C.3       1 RES1    0.0000
     41 H10        4.3392   -5.1532    1.7724 H         1 RES1    0.0000
     42 H11        3.2993   -5.9575    2.6861 H         1 RES1    0.0000
     43 H12        3.9861   -4.6221    3.2401 H         1 RES1    0.0000
     44 C22        1.8553   -4.9521    0.6858 C.3       1 RES1    0.0000
     45 H13        1.1880   -4.3633    0.2759 H         1 RES1    0.0000
     46 H14        1.4207   -5.7759    0.9910 H         1 RES1    0.0000
     47 H15        2.5469   -5.1718    0.0265 H         1 RES1    0.0000
     48 C23        1.4617   -3.8416    2.9130 C.3       1 RES1    0.0000
     49 H16        1.8931   -3.3020    3.6087 H         1 RES1    0.0000
     50 H17        1.0733   -4.6450    3.3174 H         1 RES1    0.0000
     51 H18        0.7539   -3.3164    2.4853 H         1 RES1    0.0000
     52 C24        0.8872    3.3155   -5.7252 C.3       1 RES1    0.0000
     53 H19        1.5990    3.0262   -6.3324 H         1 RES1    0.0000
     54 H20        1.2793    3.8017   -4.9706 H         1 RES1    0.0000
     55 H21        0.2670    3.9035   -6.2044 H         1 RES1    0.0000
     56 C25        3.5396    0.9589   -1.8829 C.2       1 RES1    0.0000
     57 H22        4.2120    1.3371   -2.4389 H         1 RES1    0.0000
     58 O7        -0.9381    1.7892   -5.6524 O.2       1 RES1    0.0000
     59 C26       -0.1742    0.3313   -3.5825 C.3       1 RES1    0.0000
     60 H23       -1.1161    0.6227   -3.7522 H         1 RES1    0.0000
     61 C27       -0.0016   -1.0350   -4.2832 C.3       1 RES1    0.0000
     62 H24       -0.6789   -1.6595   -3.9199 H         1 RES1    0.0000
     63 H25       -0.1937   -0.9171   -5.2465 H         1 RES1    0.0000
     64 H26        1.2554    0.5090   -0.7306 H         1 RES1    0.0000
@<TRIPOS>BOND
     1    1    2 ar
     2    2    7 ar
     3    3    4 1
     4    5    3 ar
     5    6    5 1
     6    7    3 ar
     7    8    7 1
     8    9   10 2
     9   10    2 1
    10   11   12 1
    11   12   13 1
    12   14   10 2
    13   15    1 1
    14   16    1 ar
    15   17   19 1
    16   18   20 2
    17   19   40 1
    18   20   11 1
    19   21   24 2
    20   22   23 1
    21   23   24 1
    22   24   25 1
    23   25   39 1
    24   26   27 2
    25   27   22 1
    26   28   29 ar
    27   29   30 1
    28   31   32 1
    29   33   28 ar
    30   34   33 1
    31   35   29 ar
    32   36   35 1
    33   37   31 ar
    34   38   37 1
    35   39   52 1
    36   40   41 1
    37   42   40 1
    38   43   40 1
    39   44   19 1
    40   45   44 1
    41   46   44 1
    42   47   44 1
    43   48   19 1
    44   49   48 1
    45   50   48 1
    46   51   48 1
    47   52   53 1
    48   54   52 1
    49   55   52 1
    50   56   15 1
    51   57   56 1
    52   58   39 2
    53   59   25 1
    54   60   59 1
    55   61   28 1
    56   62   61 1
    57   63   61 1
    58   64   22 1
    59    5   16 ar
    60   11   16 1
    61   12   15 2
    62   17   20 1
    63   23   56 2
    64   27   59 1
    65   31   33 ar
    66   35   37 ar
    67   59   61 1
@<TRIPOS>SUBSTRUCTURE
     1 RES1 1

@<TRIPOS>CRYSIN
  13.3800    8.4840   22.9030  90.0000 105.4840  90.0000 231 1

