# MOL2 file generated by ConQuest
# Please check atom types

@<TRIPOS>MOLECULE
CUXVEW
    88    92     1
SMALL
NO_CHARGES
****
Generated from CSD

@<TRIPOS>ATOM
      1 O1        -0.6502   -0.8077    6.5325 O.2       1 RES1    0.0000
      2 N1        -1.3699    0.2398    7.1148 N.2       1 RES1    0.0000
      3 N2         0.9944    0.7526    5.3345 N.2       1 RES1    0.0000
      4 C1        -0.7412    1.2279    7.8159 C.2       1 RES1    0.0000
      5 C2         0.4999    1.7839    7.4846 C.2       1 RES1    0.0000
      6 C3         1.3174    1.5673    6.3794 C.2       1 RES1    0.0000
      7 C4         1.9964    0.7755    4.4012 C.2       1 RES1    0.0000
      8 C5         1.9914    0.0495    3.2074 C.2       1 RES1    0.0000
      9 C6        -2.5820   -0.0054    7.6961 C.2       1 RES1    0.0000
     10 C7        -2.7152    0.8528    8.8669 C.2       1 RES1    0.0000
     11 C8        -1.5878    1.6223    8.9274 C.2       1 RES1    0.0000
     12 C9         2.6038    2.1558    6.0919 C.2       1 RES1    0.0000
     13 C10        3.0264    1.6576    4.8918 C.2       1 RES1    0.0000
     14 C11       -3.8762    0.8501    9.8138 C.3       1 RES1    0.0000
     15 C12       -3.7142   -0.1415   10.9368 C.3       1 RES1    0.0000
     16 C13       -1.2478    2.6735    9.9378 C.3       1 RES1    0.0000
     17 C14       -0.2109    2.2320   10.9524 C.3       1 RES1    0.0000
     18 C15        3.2823    3.1956    6.9440 C.3       1 RES1    0.0000
     19 C16        2.8887    4.6052    6.5335 C.3       1 RES1    0.0000
     20 C17        4.3127    1.9465    4.1783 C.3       1 RES1    0.0000
     21 C18        4.1539    2.9933    3.0709 C.3       1 RES1    0.0000
     22 H1         0.2559    0.2297    5.2533 H         1 RES1    0.0000
     23 H2         0.8417    2.4148    8.1221 H         1 RES1    0.0000
     24 H3         2.7604    0.1701    2.6459 H         1 RES1    0.0000
     25 H4        -3.9653    1.7282   10.1920 H         1 RES1    0.0000
     26 H5        -4.6718    0.6306    9.3232 H         1 RES1    0.0000
     27 H6        -4.4826   -0.1524   11.5118 H         1 RES1    0.0000
     28 H7        -2.9424    0.1326   11.4378 H         1 RES1    0.0000
     29 H8        -3.5684   -1.0215   10.5816 H         1 RES1    0.0000
     30 H9        -0.9090    3.4425    9.4732 H         1 RES1    0.0000
     31 H10       -2.0498    2.9122   10.4086 H         1 RES1    0.0000
     32 H11       -0.0228    2.9099   11.6045 H         1 RES1    0.0000
     33 H12        0.5869    2.0351   10.4566 H         1 RES1    0.0000
     34 H13       -0.5166    1.4371   11.3951 H         1 RES1    0.0000
     35 H14        3.0336    3.0567    7.8607 H         1 RES1    0.0000
     36 H15        4.2336    3.0985    6.8523 H         1 RES1    0.0000
     37 H16        3.3053    5.2656    7.0929 H         1 RES1    0.0000
     38 H17        1.9347    4.7033    6.5783 H         1 RES1    0.0000
     39 H18        3.1806    4.7230    5.6273 H         1 RES1    0.0000
     40 H19        4.9525    2.2697    4.8168 H         1 RES1    0.0000
     41 H20        4.6361    1.1315    3.7855 H         1 RES1    0.0000
     42 H21        4.9690    3.1500    2.5897 H         1 RES1    0.0000
     43 H22        3.8692    3.8069    3.4928 H         1 RES1    0.0000
     44 H23        3.4741    2.6946    2.4615 H         1 RES1    0.0000
     45 C6A        1.0221   -0.8274    2.7209 C.2       1 RES1    0.0000
     46 C5A       -3.5513   -0.8822    7.2096 C.2       1 RES1    0.0000
     47 N1A       -0.1900   -1.0725    3.3022 N.2       1 RES1    0.0000
     48 C7A        1.1553   -1.6855    1.5500 C.2       1 RES1    0.0000
     49 C4A       -3.5563   -1.6082    6.0158 C.2       1 RES1    0.0000
     50 H3A       -4.3204   -1.0029    7.7711 H         1 RES1    0.0000
     51 O1A       -0.9098   -0.0250    3.8845 O.2       1 RES1    0.0000
     52 C1A       -0.8188   -2.0606    2.6011 C.2       1 RES1    0.0000
     53 C8A        0.0279   -2.4551    1.4896 C.2       1 RES1    0.0000
     54 C11A       2.3163   -1.6828    0.6031 C.3       1 RES1    0.0000
     55 N2A       -2.5543   -1.5854    5.0824 N.2       1 RES1    0.0000
     56 C10A      -4.5863   -2.4903    5.5252 C.2       1 RES1    0.0000
     57 C2A       -2.0598   -2.6166    2.9324 C.2       1 RES1    0.0000
     58 C13A      -0.3122   -3.5062    0.4792 C.3       1 RES1    0.0000
     59 C12A       2.1542   -0.6912   -0.5198 C.3       1 RES1    0.0000
     60 H4A        2.4054   -2.5610    0.2250 H         1 RES1    0.0000
     61 H5A        3.1119   -1.4633    1.0938 H         1 RES1    0.0000
     62 C3A       -2.8773   -2.4000    4.0376 C.2       1 RES1    0.0000
     63 H1A       -1.8158   -1.0624    5.1637 H         1 RES1    0.0000
     64 C9A       -4.1637   -2.9885    4.3251 C.2       1 RES1    0.0000
     65 C17A      -5.8726   -2.7793    6.2387 C.3       1 RES1    0.0000
     66 H2A       -2.4016   -3.2476    2.2949 H         1 RES1    0.0000
     67 C14A      -1.3490   -3.0648   -0.5354 C.3       1 RES1    0.0000
     68 H9A       -0.6509   -4.2752    0.9438 H         1 RES1    0.0000
     69 H10A       0.4898   -3.7449    0.0083 H         1 RES1    0.0000
     70 H6A        2.9227   -0.6804   -1.0948 H         1 RES1    0.0000
     71 H7A        1.3825   -0.9653   -1.0209 H         1 RES1    0.0000
     72 H8A        2.0084    0.1887   -0.1646 H         1 RES1    0.0000
     73 C15A      -4.8422   -4.0283    3.4730 C.3       1 RES1    0.0000
     74 C18A      -5.7138   -3.8260    7.3461 C.3       1 RES1    0.0000
     75 H19A      -6.5124   -3.1025    5.6002 H         1 RES1    0.0000
     76 H20A      -6.1960   -1.9642    6.6315 H         1 RES1    0.0000
     77 H11A      -1.5372   -3.7426   -1.1875 H         1 RES1    0.0000
     78 H12A      -2.1468   -2.8678   -0.0396 H         1 RES1    0.0000
     79 H13A      -1.0434   -2.2698   -0.9782 H         1 RES1    0.0000
     80 C16A      -4.4487   -5.4380    3.8835 C.3       1 RES1    0.0000
     81 H14A      -4.5936   -3.8894    2.5563 H         1 RES1    0.0000
     82 H15A      -5.7935   -3.9312    3.5647 H         1 RES1    0.0000
     83 H21A      -6.5290   -3.9828    7.8273 H         1 RES1    0.0000
     84 H22A      -5.4291   -4.6396    6.9242 H         1 RES1    0.0000
     85 H23A      -5.0340   -3.5273    7.9554 H         1 RES1    0.0000
     86 H16A      -4.8653   -6.0983    3.3241 H         1 RES1    0.0000
     87 H17A      -3.4946   -5.5360    3.8387 H         1 RES1    0.0000
     88 H18A      -4.7405   -5.5557    4.7897 H         1 RES1    0.0000
@<TRIPOS>BOND
     1    1    2 1
     2    2    4 1
     3    3    6 1
     4    4    5 1
     5    5    6 1
     6    6   12 1
     7    7    3 1
     8    8    7 1
     9    9    2 1
    10   10    9 1
    11   11    4 1
    12   12   13 1
    13   13    7 1
    14   14   10 1
    15   15   14 1
    16   16   11 1
    17   17   16 1
    18   18   12 1
    19   19   18 1
    20   20   13 1
    21   21   20 1
    22   22    3 1
    23   23    5 1
    24   24    8 1
    25   25   14 1
    26   26   14 1
    27   27   15 1
    28   28   15 1
    29   29   15 1
    30   30   16 1
    31   31   16 1
    32   32   17 1
    33   33   17 1
    34   34   17 1
    35   35   18 1
    36   36   18 1
    37   37   19 1
    38   38   19 1
    39   39   19 1
    40   40   20 1
    41   41   20 1
    42   42   21 1
    43   43   21 1
    44   44   21 1
    45   45    8 1
    46   46    9 1
    47   47   45 1
    48   48   45 1
    49   49   46 1
    50   50   46 1
    51   51   47 1
    52   52   47 1
    53   53   48 1
    54   54   48 1
    55   55   49 1
    56   56   49 1
    57   57   52 1
    58   58   53 1
    59   59   54 1
    60   60   54 1
    61   61   54 1
    62   62   55 1
    63   63   55 1
    64   64   56 1
    65   65   56 1
    66   66   57 1
    67   67   58 1
    68   68   58 1
    69   69   58 1
    70   70   59 1
    71   71   59 1
    72   72   59 1
    73   73   64 1
    74   74   65 1
    75   75   65 1
    76   76   65 1
    77   77   67 1
    78   78   67 1
    79   79   67 1
    80   80   73 1
    81   81   73 1
    82   82   73 1
    83   83   74 1
    84   84   74 1
    85   85   74 1
    86   86   80 1
    87   87   80 1
    88   88   80 1
    89   10   11 1
    90   52   53 1
    91   57   62 1
    92   62   64 1
@<TRIPOS>SUBSTRUCTURE
     1 RES1 1

@<TRIPOS>CRYSIN
   7.6120    9.7400   10.5660  91.6100  98.4900 108.4300   2 1

