# MOL2 file generated by ConQuest
# Please check atom types

@<TRIPOS>MOLECULE
CUYKOW
    40    40     1
SMALL
NO_CHARGES
****
Generated from CSD

@<TRIPOS>ATOM
      1 C1         4.6856    5.9516    3.5291 C.2       1 RES1    0.0000
      2 O1         5.1526    6.3244    4.5759 O.2       1 RES1    0.0000
      3 C2         4.6206    6.8042    2.2843 C.3       1 RES1    0.0000
      4 C3         3.3049    6.7342    1.5274 C.3       1 RES1    0.0000
      5 C4         2.0943    7.1509    2.3552 C.3       1 RES1    0.0000
      6 C5         0.7998    7.0344    1.5493 C.3       1 RES1    0.0000
      7 C6        -0.4937    7.2976    2.3239 C.3       1 RES1    0.0000
      8 C7        -0.7284    6.4080    3.5229 C.3       1 RES1    0.0000
      9 C8        -0.5966    4.9071    3.2747 C.3       1 RES1    0.0000
     10 N1        -1.6835    4.4644    2.3176 N.pl3     1 RES1    0.0000
     11 O2        -1.3803    4.2834    1.1885 O.2       1 RES1    0.0000
     12 O3        -2.7827    4.2492    2.7482 O.2       1 RES1    0.0000
     13 C9        -0.6953    4.0614    4.5508 C.3       1 RES1    0.0000
     14 C10        0.5590    4.1697    5.3995 C.3       1 RES1    0.0000
     15 C11        1.7979    3.5981    4.7489 C.2       1 RES1    0.0000
     16 O4         1.7325    2.8730    3.7679 O.2       1 RES1    0.0000
     17 C12        3.1241    3.9558    5.3755 C.3       1 RES1    0.0000
     18 C13        4.2916    3.7968    4.4424 C.3       1 RES1    0.0000
     19 O5         4.1797    4.7289    3.3289 O.3       1 RES1    0.0000
     20 H1         4.7473    7.7527    2.5470 H         1 RES1    0.0000
     21 H2         5.3261    6.5163    1.7494 H         1 RES1    0.0000
     22 H3         3.1903    5.7871    1.1072 H         1 RES1    0.0000
     23 H4         3.4570    7.2770    0.7663 H         1 RES1    0.0000
     24 H5         2.2932    7.9953    2.6533 H         1 RES1    0.0000
     25 H6         2.0656    6.6835    3.1465 H         1 RES1    0.0000
     26 H7         0.9749    6.0516    1.0801 H         1 RES1    0.0000
     27 H8         0.9242    7.7253    0.7329 H         1 RES1    0.0000
     28 H9        -1.3487    7.1811    1.7401 H         1 RES1    0.0000
     29 H10       -0.4044    8.2612    2.6335 H         1 RES1    0.0000
     30 H11       -0.1595    6.7027    4.3413 H         1 RES1    0.0000
     31 H12       -1.6752    6.4204    3.9242 H         1 RES1    0.0000
     32 H13        0.2301    4.7385    2.7816 H         1 RES1    0.0000
     33 H14       -0.7582    3.1389    4.4601 H         1 RES1    0.0000
     34 H15       -1.4985    4.4013    4.9053 H         1 RES1    0.0000
     35 H16        0.6758    5.1621    5.6414 H         1 RES1    0.0000
     36 H17        0.3518    3.7242    6.3076 H         1 RES1    0.0000
     37 H18        3.0609    4.8619    5.6831 H         1 RES1    0.0000
     38 H19        3.2541    3.5474    6.1543 H         1 RES1    0.0000
     39 H20        5.1839    4.1244    4.8375 H         1 RES1    0.0000
     40 H21        4.2733    2.9497    4.0129 H         1 RES1    0.0000
@<TRIPOS>BOND
     1    1    2 2
     2    3    1 1
     3    4    3 1
     4    5    4 1
     5    6    5 1
     6    7    6 1
     7    8    7 1
     8    9    8 1
     9   10    9 1
    10   11   10 2
    11   12   10 2
    12   13    9 1
    13   14   13 1
    14   15   14 1
    15   16   15 2
    16   17   15 1
    17   18   17 1
    18   19    1 1
    19   20    3 1
    20   21    3 1
    21   22    4 1
    22   23    4 1
    23   24    5 1
    24   25    5 1
    25   26    6 1
    26   27    6 1
    27   28    7 1
    28   29    7 1
    29   30    8 1
    30   31    8 1
    31   32    9 1
    32   33   13 1
    33   34   13 1
    34   35   14 1
    35   36   14 1
    36   37   17 1
    37   38   17 1
    38   39   18 1
    39   40   18 1
    40   18   19 1
@<TRIPOS>SUBSTRUCTURE
     1 RES1 1

@<TRIPOS>CRYSIN
   9.7580   13.7070   10.8140  90.0000 105.4000  90.0000  14 1

