# MOL2 file generated by ConQuest
# Please check atom types

@<TRIPOS>MOLECULE
CUZDEG
    18    18     1
SMALL
NO_CHARGES
****
Generated from CSD

@<TRIPOS>ATOM
      1 O1        -0.4368    3.3297    5.0638 O.2       1 RES1    0.0000
      2 O2         0.0561    1.2694    4.8025 O.2       1 RES1    0.0000
      3 O3         1.4872    6.4966    1.4240 O.2       1 RES1    0.0000
      4 O4         2.5170    5.5153   -0.1488 O.2       1 RES1    0.0000
      5 N1         0.5366    5.1398    3.4390 N.3       1 RES1    0.0000
      6 N2         0.0825    2.4266    4.4159 N.pl3     1 RES1    0.0000
      7 N3         1.8729    5.4754    0.8744 N.pl3     1 RES1    0.0000
      8 C1         0.9146    4.0737    2.7227 C.ar      1 RES1    0.0000
      9 C2         0.7249    2.7258    3.1485 C.ar      1 RES1    0.0000
     10 C3         1.1163    1.6274    2.3938 C.ar      1 RES1    0.0000
     11 C4         1.7376    1.7999    1.1770 C.ar      1 RES1    0.0000
     12 C5         1.9630    3.0788    0.7177 C.ar      1 RES1    0.0000
     13 C6         1.5711    4.1727    1.4575 C.ar      1 RES1    0.0000
     14 H1         0.9564    0.7487    2.7199 H         1 RES1    0.0000
     15 H2         2.0054    1.0537    0.6693 H         1 RES1    0.0000
     16 H3         2.4010    3.1888   -0.1139 H         1 RES1    0.0000
     17 H4        -0.0761    4.9358    4.1582 H         1 RES1    0.0000
     18 H5         0.6650    5.9063    2.9620 H         1 RES1    0.0000
@<TRIPOS>BOND
     1    1    6 2
     2    2    6 2
     3    3    7 2
     4    4    7 2
     5    5    8 1
     6    6    9 1
     7    7   13 1
     8    8    9 ar
     9    9   10 ar
    10   10   11 ar
    11   11   12 ar
    12   12   13 ar
    13   13    8 ar
    14   14   10 1
    15   15   11 1
    16   16   12 1
    17   17    5 1
    18   18    5 1
@<TRIPOS>SUBSTRUCTURE
     1 RES1 1

@<TRIPOS>CRYSIN
   3.7820   27.7290    7.1520  90.0000  95.4100  90.0000 231 1

