# MOL2 file generated by ConQuest
# Please check atom types

@<TRIPOS>MOLECULE
CUZMOZ
    14    14     1
SMALL
NO_CHARGES
****
Generated from CSD

@<TRIPOS>ATOM
      1 N1         1.4180    2.4278    1.5891 N.3       1 RES1    0.0000
      2 N2         0.3438    3.2210    1.5891 N.2       1 RES1    0.0000
      3 C1         0.8636    4.4328    1.5891 C.2       1 RES1    0.0000
      4 C2         2.2473    4.4457    1.5891 C.2       1 RES1    0.0000
      5 C3         2.5667    3.1256    1.5891 C.2       1 RES1    0.0000
      6 C4         1.2481    0.9883    1.5891 C.3       1 RES1    0.0000
      7 N3        -0.0179    5.5775    1.5891 N.pl3     1 RES1    0.0000
      8 O1        -1.2170    5.4056    1.5891 O.2       1 RES1    0.0000
      9 O2         0.5022    6.6767    1.5891 O.2       1 RES1    0.0000
     10 H1         2.8429    5.2123    1.5891 H         1 RES1    0.0000
     11 H2         3.3974    2.7212    1.5891 H         1 RES1    0.0000
     12 H3         2.1330    0.5835    1.5891 H         1 RES1    0.0000
     13 H4         0.7514    0.7072    0.8002 H         1 RES1    0.0000
     14 H4A        0.7514    0.7072    2.3779 H         1 RES1    0.0000
@<TRIPOS>BOND
     1    1    2 1
     2    2    3 2
     3    3    4 1
     4    4    5 2
     5    5    1 1
     6    6    1 1
     7    7    3 1
     8    8    7 2
     9    9    7 2
    10   10    4 1
    11   11    5 1
    12   12    6 1
    13   13    6 1
    14   14    6 1
@<TRIPOS>SUBSTRUCTURE
     1 RES1 1

@<TRIPOS>CRYSIN
  10.5062    8.5940    6.3562  90.0000  90.0000  90.0000  62 4

