# MOL2 file generated by ConQuest
# Please check atom types

@<TRIPOS>MOLECULE
CXBAXR
    16    17     1
SMALL
NO_CHARGES
****
Generated from CSD

@<TRIPOS>ATOM
      1 O1         5.6097    4.8156    4.9386 O.3       1 RES1    0.0000
      2 N1         4.4512    3.9342    4.9854 N.3       1 RES1    0.0000
      3 C1         4.3356    3.2660    3.6730 C.3       1 RES1    0.0000
      4 C2         4.0504    4.3092    2.6098 C.3       1 RES1    0.0000
      5 C3         5.1643    5.3466    2.6098 C.3       1 RES1    0.0000
      6 C4         5.3481    5.8924    4.0076 C.3       1 RES1    0.0000
      7 C5         4.7303    3.0025    6.1051 C.3       1 RES1    0.0000
      8 C6         5.9704    2.1418    5.9412 C.ar      1 RES1    0.0000
      9 C7         7.1917    2.6244    6.3750 C.ar      1 RES1    0.0000
     10 C8         8.3378    1.8783    6.1974 C.ar      1 RES1    0.0000
     11 C9         8.2815    0.6307    5.5790 C.ar      1 RES1    0.0000
     12 C10        7.0570    0.1323    5.1714 C.ar      1 RES1    0.0000
     13 C11        5.9079    0.8844    5.3532 C.ar      1 RES1    0.0000
     14 C12        9.5079   -0.1757    5.3311 C.2       1 RES1    0.0000
     15 O2        10.6263    0.4195    5.6892 O.co2     1 RES1    0.0000
     16 O3         9.4802   -1.2634    4.8023 O.co2     1 RES1    0.0000
@<TRIPOS>BOND
     1    1    2 1
     2    2    3 1
     3    3    4 1
     4    4    5 1
     5    5    6 1
     6    6    1 1
     7    7    2 1
     8    8    7 1
     9    9    8 ar
    10   10    9 ar
    11   11   10 ar
    12   12   11 ar
    13   13    8 ar
    14   14   11 1
    15   15   14 1
    16   16   14 2
    17   12   13 ar
@<TRIPOS>SUBSTRUCTURE
     1 RES1 1

@<TRIPOS>CRYSIN
  16.6500    9.8700   14.4300  90.0000 107.3700  90.0000  15 1

