# MOL2 file generated by ConQuest
# Please check atom types

@<TRIPOS>MOLECULE
CYCOXA
    25    25     1
SMALL
NO_CHARGES
****
Generated from CSD

@<TRIPOS>ATOM
      1 O1        15.0951    2.7686    4.4651 O.3       1 RES1    0.0000
      2 N1        15.7769    1.9092    3.5258 N.2       1 RES1    0.0000
      3 C1        15.4964    2.2278    2.3220 C.2       1 RES1    0.0000
      4 C2        14.5883    3.3392    1.9443 C.3       1 RES1    0.0000
      5 C3        13.0941    2.9999    2.0288 C.3       1 RES1    0.0000
      6 C4        12.5842    1.9224    1.0944 C.3       1 RES1    0.0000
      7 C5        13.1840    0.5346    1.3031 C.3       1 RES1    0.0000
      8 C6        14.2368    0.0651    0.2783 C.3       1 RES1    0.0000
      9 C7        15.3950    1.0478    0.0507 C.3       1 RES1    0.0000
     10 C8        16.2251    1.3940    1.2624 C.3       1 RES1    0.0000
     11 H1        14.7110    3.7049    1.0040 H         1 RES1    0.0000
     12 H2        14.8477    4.0927    2.5347 H         1 RES1    0.0000
     13 H3        12.6548    3.9265    1.9681 H         1 RES1    0.0000
     14 H4        12.8975    2.7423    2.9622 H         1 RES1    0.0000
     15 H5        12.7299    2.1467    0.2286 H         1 RES1    0.0000
     16 H6        11.5626    1.8490    1.0238 H         1 RES1    0.0000
     17 H7        12.4424   -0.1177    1.2425 H         1 RES1    0.0000
     18 H8        13.6060    0.4363    2.1868 H         1 RES1    0.0000
     19 H9        13.7314   -0.0346   -0.4970 H         1 RES1    0.0000
     20 H10       14.6439   -0.7756    0.4871 H         1 RES1    0.0000
     21 H11       15.0495    1.7728   -0.3081 H         1 RES1    0.0000
     22 H12       15.9508    0.6233   -0.5865 H         1 RES1    0.0000
     23 H13       16.9821    1.9459    0.9741 H         1 RES1    0.0000
     24 H14       16.4566    0.5956    1.6998 H         1 RES1    0.0000
     25 H15       15.6637    2.3268    5.1788 H         1 RES1    0.0000
@<TRIPOS>BOND
     1    1    2 1
     2    2    3 2
     3    3    4 1
     4    4    5 1
     5    5    6 1
     6    6    7 1
     7    7    8 1
     8    8    9 1
     9    9   10 1
    10   10    3 1
    11   11    4 1
    12   12    4 1
    13   13    5 1
    14   14    5 1
    15   15    6 1
    16   16    6 1
    17   17    7 1
    18   18    7 1
    19   19    8 1
    20   20    8 1
    21   21    9 1
    22   22    9 1
    23   23   10 1
    24   24   10 1
    25   25    1 1
@<TRIPOS>SUBSTRUCTURE
     1 RES1 1

@<TRIPOS>CRYSIN
  23.8020    6.9250   10.4690  90.0000 108.2900  90.0000  15 1

