# MOL2 file generated by ConQuest
# Please check atom types

@<TRIPOS>MOLECULE
CYNOAZ11
    23    24     1
SMALL
NO_CHARGES
****
Generated from CSD

@<TRIPOS>ATOM
      1 O1         5.1667    4.6642    5.0311 O.2       1 RES1    0.0000
      2 N1         5.3191    4.8971    3.7740 N.3       1 RES1    0.0000
      3 O2         2.9798    3.0370    1.0585 O.2       1 RES1    0.0000
      4 C1         4.8928    6.3655    1.8741 C.3       1 RES1    0.0000
      5 H1         5.5300    7.0591    2.1781 H         1 RES1    0.0000
      6 H2         4.1747    6.8170    1.3643 H         1 RES1    0.0000
      7 C2         4.2810    5.6829    3.0955 C.3       1 RES1    0.0000
      8 H3         3.9463    6.3858    3.7232 H         1 RES1    0.0000
      9 C3         3.1193    4.7268    2.7555 C.3       1 RES1    0.0000
     10 H4         2.6696    4.4522    3.5934 H         1 RES1    0.0000
     11 H5         2.4565    5.2084    2.1994 H         1 RES1    0.0000
     12 C4         5.9290    3.8473    2.9437 C.3       1 RES1    0.0000
     13 H6         6.6308    3.3775    3.4794 H         1 RES1    0.0000
     14 C5         3.5805    3.4963    2.0178 C.2       1 RES1    0.0000
     15 C6         5.6238    5.3882    0.9472 C.3       1 RES1    0.0000
     16 H7         4.9605    4.8225    0.4783 H         1 RES1    0.0000
     17 H8         6.1277    5.8983    0.2642 H         1 RES1    0.0000
     18 C7         4.8236    2.8338    2.5693 C.3       1 RES1    0.0000
     19 H9         5.1791    2.2034    1.8945 H         1 RES1    0.0000
     20 H10        4.5803    2.3107    3.3738 H         1 RES1    0.0000
     21 C8         6.5873    4.4978    1.7277 C.3       1 RES1    0.0000
     22 H11        7.3587    5.0414    2.0289 H         1 RES1    0.0000
     23 H12        6.9317    3.7888    1.1280 H         1 RES1    0.0000
@<TRIPOS>BOND
     1    1    2 1
     2    2    7 1
     3    3   14 2
     4    4    5 1
     5    6    4 1
     6    7    4 1
     7    8    7 1
     8    9    7 1
     9   10    9 1
    10   11    9 1
    11   12    2 1
    12   13   12 1
    13   14    9 1
    14   15    4 1
    15   16   15 1
    16   17   15 1
    17   18   12 1
    18   19   18 1
    19   20   18 1
    20   21   12 1
    21   22   21 1
    22   23   21 1
    23   14   18 1
    24   15   21 1
@<TRIPOS>SUBSTRUCTURE
     1 RES1 1

@<TRIPOS>CRYSIN
   7.3754   11.0558    9.6355  90.0000 105.8626  90.0000  14 1

