# MOL2 file generated by ConQuest
# Please check atom types

@<TRIPOS>MOLECULE
CYPYRO
    13    13     1
SMALL
NO_CHARGES
****
Generated from CSD

@<TRIPOS>ATOM
      1 C1         1.4077    0.0659    1.5622 C.ar      1 RES1    0.0000
      2 C2         2.0968   -0.8912    0.8682 C.ar      1 RES1    0.0000
      3 C3         2.4226   -0.6808   -0.4712 C.ar      1 RES1    0.0000
      4 C4         2.0317    0.5179   -1.0550 C.ar      1 RES1    0.0000
      5 C5         1.3245    1.4500   -0.3296 C.ar      1 RES1    0.0000
      6 C6         3.1726   -1.6580   -1.2222 C.1       1 RES1    0.0000
      7 H1         1.0228   -0.0817    2.4803 H         1 RES1    0.0000
      8 H2         2.3419   -1.7708    1.2872 H         1 RES1    0.0000
      9 H3         2.2327    0.6521   -2.0207 H         1 RES1    0.0000
     10 H4         1.0055    2.1887   -0.6442 H         1 RES1    0.0000
     11 N1         1.0366    1.2340    0.9819 N.pl3     1 RES1    0.0000
     12 N2         3.7627   -2.4363   -1.8048 N.1       1 RES1    0.0000
     13 O1         0.3945    2.1399    1.6655 O.2       1 RES1    0.0000
@<TRIPOS>BOND
     1    1    2 ar
     2    2    3 ar
     3    3    4 ar
     4    4    5 ar
     5    5   10 1
     6    6    3 1
     7    7    1 1
     8    8    2 1
     9    9    4 1
    10   11    1 ar
    11   12    6 3
    12   13   11 1
    13    5   11 ar
@<TRIPOS>SUBSTRUCTURE
     1 RES1 1

@<TRIPOS>CRYSIN
   7.8800    6.1000   11.6100  90.0000  88.6000  90.0000  14 1

