# MOL2 file generated by ConQuest
# Please check atom types

@<TRIPOS>MOLECULE
DABTEI
    33    35     1
SMALL
NO_CHARGES
****
Generated from CSD

@<TRIPOS>ATOM
      1 C1        -0.3650    1.6996    1.5325 C.2       1 RES1    0.0000
      2 H1        -0.2152    0.7846    1.5975 H         1 RES1    0.0000
      3 C2        -1.3650    2.2966    2.2239 C.2       1 RES1    0.0000
      4 C3        -1.6170    3.6818    2.1588 C.2       1 RES1    0.0000
      5 H2        -2.2965    4.0631    2.6653 H         1 RES1    0.0000
      6 C4        -0.8500    4.4486    1.3436 C.2       1 RES1    0.0000
      7 H3        -1.0120    5.3619    1.2727 H         1 RES1    0.0000
      8 C5         0.1898    3.8569    0.6080 C.2       1 RES1    0.0000
      9 C6         1.5280    2.1864   -0.0419 C.2       1 RES1    0.0000
     10 C7         2.1995    0.9210    0.0134 C.2       1 RES1    0.0000
     11 H4         3.0047    0.8377   -0.4437 H         1 RES1    0.0000
     12 C8         1.9029    3.4045   -0.6119 C.2       1 RES1    0.0000
     13 C9         3.0508    3.7058   -1.4697 C.ar      1 RES1    0.0000
     14 C10        3.7059    4.9402   -1.3237 C.ar      1 RES1    0.0000
     15 H5         3.4066    5.5466   -0.6845 H         1 RES1    0.0000
     16 C11        4.7802    5.2621   -2.1109 C.ar      1 RES1    0.0000
     17 H6         5.2095    6.0790   -1.9931 H         1 RES1    0.0000
     18 C12        5.2359    4.3788   -3.0857 C.ar      1 RES1    0.0000
     19 C13        4.6099    3.1527   -3.2349 C.ar      1 RES1    0.0000
     20 H7         4.9152    2.5482   -3.8724 H         1 RES1    0.0000
     21 C14        3.5284    2.8291   -2.4318 C.ar      1 RES1    0.0000
     22 H8         3.1132    2.0038   -2.5403 H         1 RES1    0.0000
     23 C15        6.7075    3.9716   -4.9125 C.3       1 RES1    0.0000
     24 H9         7.4428    4.3854   -5.3705 H         1 RES1    0.0000
     25 H10        6.9872    3.1240   -4.5589 H         1 RES1    0.0000
     26 H11        5.9822    3.8386   -5.5273 H         1 RES1    0.0000
     27 N1        -2.2135    1.4416    3.0467 N.pl3     1 RES1    0.0000
     28 N2         0.4118    2.4848    0.7393 N.pl3     1 RES1    0.0000
     29 N3         1.0734    4.4087   -0.2190 N.2       1 RES1    0.0000
     30 O1        -2.0865    0.2337    2.9499 O.2       1 RES1    0.0000
     31 O2        -3.0155    1.9788    3.7936 O.2       1 RES1    0.0000
     32 O3         1.7875   -0.0543    0.6188 O.2       1 RES1    0.0000
     33 O4         6.2774    4.8128   -3.8462 O.3       1 RES1    0.0000
@<TRIPOS>BOND
     1    1    2 1
     2    3    1 2
     3    4    3 1
     4    5    4 1
     5    6    4 2
     6    7    6 1
     7    8    6 1
     8    9   10 1
     9   10   11 1
    10   12    9 2
    11   13   12 1
    12   14   13 ar
    13   15   14 1
    14   16   14 ar
    15   17   16 1
    16   18   16 ar
    17   19   18 ar
    18   20   19 1
    19   21   13 ar
    20   22   21 1
    21   23   24 1
    22   25   23 1
    23   26   23 1
    24   27    3 1
    25   28    1 1
    26   29    8 2
    27   30   27 2
    28   31   27 2
    29   32   10 2
    30   33   18 1
    31    8   28 1
    32    9   28 1
    33   12   29 1
    34   19   21 ar
    35   23   33 1
@<TRIPOS>SUBSTRUCTURE
     1 RES1 1

@<TRIPOS>CRYSIN
  10.8516   12.0710   10.2631  90.0000  93.2000  90.0000  14 1

