# MOL2 file generated by ConQuest
# Please check atom types

@<TRIPOS>MOLECULE
DACMIF
    42    42     1
SMALL
NO_CHARGES
****
Generated from CSD

@<TRIPOS>ATOM
      1 C1         2.7203    7.4986    8.0135 C.2       1 RES1    0.0000
      2 C2         4.0908    6.9906    7.5088 C.3       1 RES1    0.0000
      3 C3         4.7735    6.0005    8.4790 C.2       1 RES1    0.0000
      4 C4         5.5269    6.4500    9.7551 C.3       1 RES1    0.0000
      5 C5         5.1570    7.8284   10.2546 C.2       1 RES1    0.0000
      6 C6         3.3403    9.2146   10.8682 C.3       1 RES1    0.0000
      7 H1         3.8480    9.4998   11.6569 H         1 RES1    0.0000
      8 H2         2.3920    9.1401   11.0994 H         1 RES1    0.0000
      9 H3         3.4512    9.8739   10.1516 H         1 RES1    0.0000
     10 C7         3.8250    6.2815    6.1610 C.3       1 RES1    0.0000
     11 H4         3.3799    6.9023    5.5474 H         1 RES1    0.0000
     12 H5         3.2512    5.5016    6.3093 H         1 RES1    0.0000
     13 H6         4.6763    5.9901    5.7719 H         1 RES1    0.0000
     14 C8         4.9966    8.1935    7.2223 C.3       1 RES1    0.0000
     15 H7         5.1143    8.7157    8.0423 H         1 RES1    0.0000
     16 H8         4.5858    8.7557    6.5339 H         1 RES1    0.0000
     17 H9         5.8700    7.8772    6.9071 H         1 RES1    0.0000
     18 C9         5.2089    5.4568   10.8868 C.3       1 RES1    0.0000
     19 H10        5.6938    5.7186   11.6972 H         1 RES1    0.0000
     20 H11        5.4838    4.5556   10.6178 H         1 RES1    0.0000
     21 H12        4.2454    5.4637   11.0669 H         1 RES1    0.0000
     22 C10        7.0286    6.3869    9.4446 C.3       1 RES1    0.0000
     23 H13        7.2388    7.0119    8.7206 H         1 RES1    0.0000
     24 H14        7.2667    5.4768    9.1697 H         1 RES1    0.0000
     25 H15        7.5384    6.6308   10.2445 H         1 RES1    0.0000
     26 C11        1.7040    6.5680    8.6241 C.ar      1 RES1    0.0000
     27 C12        1.7267    5.1850    8.4871 C.ar      1 RES1    0.0000
     28 H16        2.4470    4.7678    8.0315 H         1 RES1    0.0000
     29 C13        0.7050    4.4123    9.0101 C.ar      1 RES1    0.0000
     30 H17        0.7095    3.4684    8.9034 H         1 RES1    0.0000
     31 C14       -0.3182    5.0319    9.6873 C.ar      1 RES1    0.0000
     32 C15       -0.3664    6.3986    9.8604 C.ar      1 RES1    0.0000
     33 H18       -1.0791    6.8052   10.3405 H         1 RES1    0.0000
     34 C16        0.6452    7.1570    9.3192 C.ar      1 RES1    0.0000
     35 H19        0.6244    8.1011    9.4206 H         1 RES1    0.0000
     36 N1        -1.3968    4.2002   10.2476 N.pl3     1 RES1    0.0000
     37 O1         2.4138    8.6594    7.8434 O.2       1 RES1    0.0000
     38 O2         4.8175    4.8263    8.2048 O.2       1 RES1    0.0000
     39 O3         5.9224    8.7125   10.5237 O.2       1 RES1    0.0000
     40 O4         3.8286    7.9298   10.4197 O.3       1 RES1    0.0000
     41 O5        -2.3037    4.7582   10.8409 O.2       1 RES1    0.0000
     42 O6        -1.3313    2.9908   10.0892 O.2       1 RES1    0.0000
@<TRIPOS>BOND
     1    1    2 1
     2    2    3 1
     3    3    4 1
     4    4    5 1
     5    5   39 2
     6    6    7 1
     7    8    6 1
     8    9    6 1
     9   10    2 1
    10   11   10 1
    11   12   10 1
    12   13   10 1
    13   14    2 1
    14   15   14 1
    15   16   14 1
    16   17   14 1
    17   18    4 1
    18   19   18 1
    19   20   18 1
    20   21   18 1
    21   22    4 1
    22   23   22 1
    23   24   22 1
    24   25   22 1
    25   26    1 1
    26   27   26 ar
    27   28   27 1
    28   29   27 ar
    29   30   29 1
    30   31   29 ar
    31   32   31 ar
    32   33   32 1
    33   34   26 ar
    34   35   34 1
    35   36   31 1
    36   37    1 2
    37   38    3 2
    38   40    5 1
    39   41   36 2
    40   42   36 2
    41    6   40 1
    42   32   34 ar
@<TRIPOS>SUBSTRUCTURE
     1 RES1 1

@<TRIPOS>CRYSIN
  29.3136    6.8899   15.4908  90.0000  91.3010  90.0000  15 1

