# MOL2 file generated by ConQuest
# Please check atom types

@<TRIPOS>MOLECULE
DAFBOB
    20    20     1
SMALL
NO_CHARGES
****
Generated from CSD

@<TRIPOS>ATOM
      1 N1         2.8578   -2.4395    1.2790 N.3       1 RES1    0.0000
      2 C1         2.7219   -1.1730    1.6132 C.2       1 RES1    0.0000
      3 C2         3.8861   -0.7466    2.4718 C.3       1 RES1    0.0000
      4 C3         4.5501   -2.0812    2.8338 C.3       1 RES1    0.0000
      5 C4         4.0931   -3.0339    1.7628 C.3       1 RES1    0.0000
      6 C5         2.0532   -3.1623    0.3548 C.3       1 RES1    0.0000
      7 C6         1.7002   -0.4137    1.1401 C.2       1 RES1    0.0000
      8 N2         1.5639    0.9162    1.4700 N.pl3     1 RES1    0.0000
      9 O1         2.3734    1.5154    2.1854 O.2       1 RES1    0.0000
     10 O2         0.6036    1.5122    0.9769 O.2       1 RES1    0.0000
     11 H1         4.6412   -0.1902    1.7528 H         1 RES1    0.0000
     12 H2         3.5296   -0.2378    3.2706 H         1 RES1    0.0000
     13 H3         5.7345   -1.8070    2.7932 H         1 RES1    0.0000
     14 H4         4.2969   -2.4094    3.6197 H         1 RES1    0.0000
     15 H5         4.7912   -3.0909    0.9619 H         1 RES1    0.0000
     16 H6         4.0397   -3.8201    1.9880 H         1 RES1    0.0000
     17 H7         2.0780   -2.6788   -0.4560 H         1 RES1    0.0000
     18 H8         2.3912   -4.2164    0.1781 H         1 RES1    0.0000
     19 H9         1.1103   -3.1226    0.4917 H         1 RES1    0.0000
     20 H10        1.0278   -0.8401    0.6413 H         1 RES1    0.0000
@<TRIPOS>BOND
     1    1    2 1
     2    2    3 1
     3    3    4 1
     4    4    5 1
     5    5    1 1
     6    6    1 1
     7    7    2 2
     8    8    7 1
     9    9    8 2
    10   10    8 2
    11   11    3 1
    12   12    3 1
    13   13    4 1
    14   14    4 1
    15   15    5 1
    16   16    5 1
    17   17    6 1
    18   18    6 1
    19   19    6 1
    20   20    7 1
@<TRIPOS>SUBSTRUCTURE
     1 RES1 1

@<TRIPOS>CRYSIN
   6.0230   15.8510    7.4470  90.0000 106.9000  90.0000  14 1

