# MOL2 file generated by ConQuest
# Please check atom types

@<TRIPOS>MOLECULE
DAFMII
    45    38     2
SMALL
NO_CHARGES
****
Generated from CSD

@<TRIPOS>ATOM
      1 C1         0.7052   11.5774   15.8676 C.3       1 RES1    0.0000
      2 H1         0.0989   11.0425   16.3859 H         1 RES1    0.0000
      3 H2         0.6124   12.4994   16.1200 H         1 RES1    0.0000
      4 H3         1.6058   11.2891   16.0304 H         1 RES1    0.0000
      5 C2         0.5127   10.1887   13.9377 C.ar      1 RES1    0.0000
      6 C3         0.2312   10.1063   12.5784 C.ar      1 RES1    0.0000
      7 H4        -0.0353   10.8681   12.1169 H         1 RES1    0.0000
      8 C4         0.3434    8.8988   11.9000 C.ar      1 RES1    0.0000
      9 C5         0.7190    7.7713   12.6253 C.ar      1 RES1    0.0000
     10 C6         0.9934    7.8460   13.9694 C.ar      1 RES1    0.0000
     11 H5         1.2402    7.0798   14.4351 H         1 RES1    0.0000
     12 C7         0.9029    9.0559   14.6311 C.ar      1 RES1    0.0000
     13 H6         1.1038    9.1084   15.5375 H         1 RES1    0.0000
     14 C8        -0.1817    5.7017   11.9287 C.2       1 RES1    0.0000
     15 C9         0.1525    4.4372   11.2234 C.3       1 RES1    0.0000
     16 H7        -0.6454    3.9182   11.1012 H         1 RES1    0.0000
     17 H8         0.7841    3.9366   11.7465 H         1 RES1    0.0000
     18 H9         0.5358    4.6407   10.3663 H         1 RES1    0.0000
     19 C10        0.1343    8.8394   10.4332 C.2       1 RES1    0.0000
     20 C11        0.9075    7.8196    9.6239 C.2       1 RES1    0.0000
     21 C12        3.0821    7.0470    9.1892 C.3       1 RES1    0.0000
     22 H10        2.9687    6.9762    8.2273 H         1 RES1    0.0000
     23 H11        2.8897    6.1841    9.5896 H         1 RES1    0.0000
     24 C13        4.4626    7.4850    9.5238 C.3       1 RES1    0.0000
     25 H12        4.5883    8.3937    9.2400 H         1 RES1    0.0000
     26 H13        5.0958    6.9198    9.0757 H         1 RES1    0.0000
     27 H14        4.5968    7.4246   10.4708 H         1 RES1    0.0000
     28 C14       -1.4541   10.5672    7.9094 C.3       1 RES1    0.0000
     29 H15       -2.3294   10.5272    8.3020 H         1 RES1    0.0000
     30 H16       -1.5192   10.4144    6.9636 H         1 RES1    0.0000
     31 H17       -1.0716   11.4333    8.0690 H         1 RES1    0.0000
     32 N1        -0.6345    9.6994    9.8907 N.2       1 RES1    0.0000
     33 O1         0.4048   11.4319   14.4856 O.3       1 RES1    0.0000
     34 O2        -1.2245    5.9838   12.4103 O.2       1 RES1    0.0000
     35 O3         0.8913    6.5385   11.9678 O.3       1 RES1    0.0000
     36 O4         2.1974    8.0844    9.7407 O.3       1 RES1    0.0000
     37 O5         0.4223    6.9199    9.0016 O.2       1 RES1    0.0000
     38 O6        -0.6283    9.5723    8.4941 O.3       1 RES1    0.0000
     39 C15        3.2385    7.2896    9.0936 Du        2 SUP2    0.0000
     40 C16        4.2741    7.0640   10.1303 Du        2 SUP2    0.0000
     41 H18        3.6118    7.7682    8.3348 Du        2 SUP2    0.0000
     42 H19        2.8782    6.4451    8.7800 Du        2 SUP2    0.0000
     43 H20        4.6742    7.9033   10.3693 Du        2 SUP2    0.0000
     44 H21        4.9486    6.4752    9.7837 Du        2 SUP2    0.0000
     45 H22        3.8693    6.6680   10.9040 Du        2 SUP2    0.0000
@<TRIPOS>BOND
     1    1    2 1
     2    3    1 1
     3    4    1 1
     4    5    6 ar
     5    6    7 1
     6    8    6 ar
     7    9    8 ar
     8   10    9 ar
     9   11   10 1
    10   12    5 ar
    11   13   12 1
    12   14   15 1
    13   15   16 1
    14   17   15 1
    15   18   15 1
    16   19    8 1
    17   20   19 1
    18   21   22 1
    19   23   21 1
    20   24   21 1
    21   25   24 1
    22   26   24 1
    23   27   24 1
    24   28   29 1
    25   30   28 1
    26   31   28 1
    27   32   19 2
    28   33    1 1
    29   34   14 2
    30   35    9 1
    31   36   20 1
    32   37   20 2
    33   38   28 1
    34    5   33 1
    35   10   12 ar
    36   14   35 1
    37   21   36 1
    38   32   38 1
@<TRIPOS>SUBSTRUCTURE
     1 RES1 1
     2 SUP2 39

@<TRIPOS>CRYSIN
   7.6651   13.1131   29.8740  90.0000  90.0000  90.0000  61 1

