# MOL2 file generated by ConQuest
# Please check atom types

@<TRIPOS>MOLECULE
DAFSUZ
    27    28     1
SMALL
NO_CHARGES
****
Generated from CSD

@<TRIPOS>ATOM
      1 O1         2.7795    3.8443    4.2785 O.3       1 RES1    0.0000
      2 H1         2.2965    4.0827    5.0095 H         1 RES1    0.0000
      3 O2         2.3941    8.6935    1.3094 O.3       1 RES1    0.0000
      4 H2         1.9451    8.6525    0.4712 H         1 RES1    0.0000
      5 N1         3.3372    5.0972    3.8921 N.2       1 RES1    0.0000
      6 N2         3.1800    7.5117    1.2193 N.2       1 RES1    0.0000
      7 C1         4.8829    6.1853    2.3363 C.3       1 RES1    0.0000
      8 C2         4.1740    4.9671    2.9363 C.2       1 RES1    0.0000
      9 C3         4.5964    3.7003    2.2331 C.3       1 RES1    0.0000
     10 H3         3.8553    3.3329    1.6883 H         1 RES1    0.0000
     11 H4         4.8885    3.0138    2.8838 H         1 RES1    0.0000
     12 C4         5.7674    4.1480    1.3400 C.3       1 RES1    0.0000
     13 H5         6.6292    4.0777    1.8225 H         1 RES1    0.0000
     14 H6         5.8142    3.6024    0.5153 H         1 RES1    0.0000
     15 C5         5.4365    5.6137    1.0143 C.3       1 RES1    0.0000
     16 H7         4.7587    5.6707    0.2940 H         1 RES1    0.0000
     17 H8         6.2484    6.1042    0.7304 H         1 RES1    0.0000
     18 C6         3.9542    7.3830    2.2237 C.2       1 RES1    0.0000
     19 C7         4.1345    8.3298    3.3847 C.3       1 RES1    0.0000
     20 H9         3.2889    8.4351    3.8878 H         1 RES1    0.0000
     21 H10        4.4341    9.2193    3.0703 H         1 RES1    0.0000
     22 C8         5.2151    7.6637    4.2596 C.3       1 RES1    0.0000
     23 H11        5.8274    8.3430    4.6397 H         1 RES1    0.0000
     24 H12        4.8015    7.1559    5.0023 H         1 RES1    0.0000
     25 C9         5.9711    6.7202    3.3084 C.3       1 RES1    0.0000
     26 H13        6.3904    5.9769    3.8099 H         1 RES1    0.0000
     27 H14        6.6750    7.2095    2.8131 H         1 RES1    0.0000
@<TRIPOS>BOND
     1    1    2 1
     2    3    4 1
     3    5    1 1
     4    6    3 1
     5    7    8 1
     6    8    5 2
     7    9    8 1
     8   10    9 1
     9   11    9 1
    10   12    9 1
    11   13   12 1
    12   14   12 1
    13   15    7 1
    14   16   15 1
    15   17   15 1
    16   18    6 2
    17   19   18 1
    18   20   19 1
    19   21   19 1
    20   22   19 1
    21   23   22 1
    22   24   22 1
    23   25    7 1
    24   26   25 1
    25   27   25 1
    26    7   18 1
    27   12   15 1
    28   22   25 1
@<TRIPOS>SUBSTRUCTURE
     1 RES1 1

@<TRIPOS>CRYSIN
   5.8893    8.0712   10.9270  71.9810  76.0290  73.2890   2 1

