# MOL2 file generated by ConQuest
# Please check atom types

@<TRIPOS>MOLECULE
DAFXAM
    18    18     1
SMALL
USER_CHARGES
****
Generated from CSD

@<TRIPOS>ATOM
      1 C1         1.5336    0.8386   12.1501 C.ar      1 RES1    0.0000
      2 C2         1.1388    0.6218   10.8499 C.ar      1 RES1    0.0000
      3 H1         1.6472    0.0727   10.2978 H         1 RES1    0.0000
      4 C3        -0.7426    2.0095   11.1513 C.ar      1 RES1    0.0000
      5 H2        -1.5103    2.4025   10.8036 H         1 RES1    0.0000
      6 C4        -0.3805    2.2501   12.4579 C.ar      1 RES1    0.0000
      7 C5         0.7713    1.6688   12.9702 C.ar      1 RES1    0.0000
      8 H3         1.0311    1.8320   13.8484 H         1 RES1    0.0000
      9 C6         2.7891    0.1477   12.6193 C.2       1 RES1    0.0000
     10 C7        -1.2172    3.1113   13.3609 C.2       1 RES1    0.0000
     11 O1         3.4521   -0.5503   11.8939 O.2       1 RES1    0.0000
     12 O2         3.0392    0.3931   13.8915 O.3       1 RES1    0.0000
     13 H4         3.8122   -0.0953   14.1853 H         1 RES1    0.0000
     14 O3        -0.8989    3.3245   14.5157 O.2       1 RES1    0.0000
     15 O4        -2.2976    3.5770   12.7657 O.3       1 RES1    0.0000
     16 H5        -2.7638    4.0261   13.3889 H         1 RES1    0.0000
     17 O5        -0.3289    0.9887    9.0967 O.2       1 RES1   -1.0000
     18 N1         0.0163    1.2019   10.3699 N.pl3     1 RES1    1.0000
@<TRIPOS>BOND
     1    1    2 ar
     2    2    3 1
     3    4    5 1
     4    6    4 ar
     5    7    1 ar
     6    8    7 1
     7    9    1 1
     8   10    6 1
     9   11    9 2
    10   12    9 1
    11   13   12 1
    12   14   10 2
    13   15   10 1
    14   16   15 1
    15   17   18 1
    16   18    2 ar
    17    4   18 ar
    18    6    7 ar
@<TRIPOS>SUBSTRUCTURE
     1 RES1 1

@<TRIPOS>CRYSIN
   5.8725   11.9115   10.7932  90.0000  94.3050  90.0000   9 1

