# MOL2 file generated by ConQuest
# Please check atom types

@<TRIPOS>MOLECULE
DAGKUS
    51    52     1
SMALL
NO_CHARGES
****
Generated from CSD

@<TRIPOS>ATOM
      1 O1         0.7948   -0.3548    5.9057 O.2       1 RES1    0.0000
      2 O2         2.1556    0.6263    7.2384 O.2       1 RES1    0.0000
      3 O3        -0.5211    1.8146    1.9219 O.2       1 RES1    0.0000
      4 O4         0.4932    3.5495    1.1579 O.2       1 RES1    0.0000
      5 O5         8.2406    6.9777    0.7412 O.2       1 RES1    0.0000
      6 O6         6.5691    7.0973   -0.5513 O.2       1 RES1    0.0000
      7 N1         1.5415    0.5601    6.1727 N.pl3     1 RES1    0.0000
      8 N2         0.3089    2.7020    2.0283 N.pl3     1 RES1    0.0000
      9 N3         2.2187    4.8602    2.6620 N.pl3     1 RES1    0.0000
     10 H1         1.8646    4.8770    1.8785 H         1 RES1    0.0000
     11 N4         3.0159    5.8990    3.0853 N.2       1 RES1    0.0000
     12 N5         7.0627    7.0783    0.5513 N.pl3     1 RES1    0.0000
     13 C1         1.6950    1.6716    5.2600 C.ar      1 RES1    0.0000
     14 C2         2.5418    2.7228    5.5726 C.ar      1 RES1    0.0000
     15 H2         3.0070    2.7166    6.3778 H         1 RES1    0.0000
     16 C3         2.6970    3.7576    4.7163 C.ar      1 RES1    0.0000
     17 H3         3.2782    4.4491    4.9410 H         1 RES1    0.0000
     18 C4         1.9958    3.8165    3.4835 C.ar      1 RES1    0.0000
     19 C5         1.1241    2.7408    3.2177 C.ar      1 RES1    0.0000
     20 C6         0.9818    1.6818    4.0999 C.ar      1 RES1    0.0000
     21 H4         0.4024    0.9827    3.9013 H         1 RES1    0.0000
     22 C7         3.2302    6.8293    2.2724 C.2       1 RES1    0.0000
     23 H5         2.9149    6.7524    1.4021 H         1 RES1    0.0000
     24 C8         3.9843    8.0660    2.6718 C.3       1 RES1    0.0000
     25 C9         3.0119    9.2379    2.5676 C.3       1 RES1    0.0000
     26 H6         3.4976   10.0586    2.7445 H         1 RES1    0.0000
     27 H7         2.6817    9.2844    1.6560 H         1 RES1    0.0000
     28 C10        1.8429    9.1668    3.4933 C.3       1 RES1    0.0000
     29 H8         1.3094    9.9591    3.3967 H         1 RES1    0.0000
     30 H9         2.1554    9.0991    4.3984 H         1 RES1    0.0000
     31 H10        1.3119    8.3959    3.2806 H         1 RES1    0.0000
     32 C11        4.5158    7.9328    4.1282 C.3       1 RES1    0.0000
     33 H11        3.7857    7.7289    4.7174 H         1 RES1    0.0000
     34 H12        4.9232    8.7591    4.3973 H         1 RES1    0.0000
     35 H13        5.1657    7.2268    4.1672 H         1 RES1    0.0000
     36 C12        5.1634    8.2791    1.6647 C.3       1 RES1    0.0000
     37 H14        4.7664    8.2243    0.7705 H         1 RES1    0.0000
     38 C13        5.8072    9.6590    1.7515 C.ar      1 RES1    0.0000
     39 C14        6.7097    9.9910    2.7391 C.ar      1 RES1    0.0000
     40 H15        6.9599    9.3549    3.3707 H         1 RES1    0.0000
     41 C15        7.2539   11.2884    2.7944 C.ar      1 RES1    0.0000
     42 H16        7.8546   11.5103    3.4694 H         1 RES1    0.0000
     43 C16        6.9051   12.2229    1.8633 C.ar      1 RES1    0.0000
     44 H17        7.2830   13.0730    1.8926 H         1 RES1    0.0000
     45 C17        6.0127   11.9143    0.8986 C.ar      1 RES1    0.0000
     46 H18        5.7553   12.5584    0.2789 H         1 RES1    0.0000
     47 C18        5.4843   10.6402    0.8334 C.ar      1 RES1    0.0000
     48 H19        4.8901   10.4349    0.1487 H         1 RES1    0.0000
     49 C19        6.1634    7.1489    1.7439 C.3       1 RES1    0.0000
     50 H20        6.7049    7.2606    2.5405 H         1 RES1    0.0000
     51 H21        5.6839    6.3083    1.8264 H         1 RES1    0.0000
@<TRIPOS>BOND
     1    1    7 2
     2    2    7 2
     3    3    8 2
     4    4    8 2
     5    5   12 2
     6    6   12 2
     7    7   13 1
     8    8   19 1
     9    9   10 1
    10   11    9 1
    11   12   49 1
    12   13   14 ar
    13   14   15 1
    14   16   14 ar
    15   17   16 1
    16   18    9 1
    17   19   18 ar
    18   20   13 ar
    19   21   20 1
    20   22   11 2
    21   23   22 1
    22   24   22 1
    23   25   24 1
    24   26   25 1
    25   27   25 1
    26   28   25 1
    27   29   28 1
    28   30   28 1
    29   31   28 1
    30   32   24 1
    31   33   32 1
    32   34   32 1
    33   35   32 1
    34   36   24 1
    35   37   36 1
    36   38   36 1
    37   39   38 ar
    38   40   39 1
    39   41   39 ar
    40   42   41 1
    41   43   41 ar
    42   44   43 1
    43   45   43 ar
    44   46   45 1
    45   47   38 ar
    46   48   47 1
    47   49   36 1
    48   50   49 1
    49   51   49 1
    50   16   18 ar
    51   19   20 ar
    52   45   47 ar
@<TRIPOS>SUBSTRUCTURE
     1 RES1 1

@<TRIPOS>CRYSIN
   8.2921   11.6390   12.0660  64.6500  88.2200  74.2900   2 1

