# MOL2 file generated by ConQuest
# Please check atom types

@<TRIPOS>MOLECULE
DAHBAP
    23    23     1
SMALL
NO_CHARGES
****
Generated from CSD

@<TRIPOS>ATOM
      1 O1         7.2358    1.0554    4.1093 O.3       1 RES1    0.0000
      2 O2         9.8232    0.5963    3.8593 O.2       1 RES1    0.0000
      3 O3         5.7155    3.9897    3.6113 O.2       1 RES1    0.0000
      4 N1         8.0067    1.7927    3.2373 N.am      1 RES1    0.0000
      5 N2         4.9652    2.2564    2.3622 N.am      1 RES1    0.0000
      6 C1         7.3492    2.7247    2.5035 C.2       1 RES1    0.0000
      7 C2         8.0374    3.4332    1.5742 C.2       1 RES1    0.0000
      8 C3         9.4001    3.1717    1.4052 C.2       1 RES1    0.0000
      9 C4        10.0338    2.2462    2.1592 C.2       1 RES1    0.0000
     10 C5         9.3510    1.4838    3.1325 C.2       1 RES1    0.0000
     11 C6         5.9179    3.0215    2.8800 C.2       1 RES1    0.0000
     12 C7         3.5712    2.5170    2.7017 C.3       1 RES1    0.0000
     13 C8         5.2133    1.0915    1.5346 C.3       1 RES1    0.0000
     14 H1         7.6084    4.0889    1.0312 H         1 RES1    0.0000
     15 H2         9.8861    3.6410    0.7258 H         1 RES1    0.0000
     16 H3        10.9741    2.1182    2.0519 H         1 RES1    0.0000
     17 H4         7.9626    0.5073    4.5258 H         1 RES1    0.0000
     18 H5         3.0846    1.7936    3.0880 H         1 RES1    0.0000
     19 H6         3.3939    3.3331    3.2906 H         1 RES1    0.0000
     20 H7         3.2166    3.0790    1.8528 H         1 RES1    0.0000
     21 H8         6.0889    0.7605    1.4378 H         1 RES1    0.0000
     22 H9         4.7744    0.2532    2.0554 H         1 RES1    0.0000
     23 H10        4.9281    1.2863    0.6176 H         1 RES1    0.0000
@<TRIPOS>BOND
     1    1    4 1
     2    2   10 2
     3    3   11 2
     4    4    6 1
     5    5   11 1
     6    6    7 2
     7    7    8 1
     8    8    9 2
     9    9   10 1
    10   10    4 1
    11   11    6 1
    12   12    5 1
    13   13    5 1
    14   14    7 1
    15   15    8 1
    16   16    9 1
    17   17    1 1
    18   18   12 1
    19   19   12 1
    20   20   12 1
    21   21   13 1
    22   22   13 1
    23   23   13 1
@<TRIPOS>SUBSTRUCTURE
     1 RES1 1

@<TRIPOS>CRYSIN
  18.8030    9.2740    4.9690  90.0000  96.1000  90.0000 231 1

