# MOL2 file generated by ConQuest
# Please check atom types

@<TRIPOS>MOLECULE
DAHKIH
    57    58     1
SMALL
NO_CHARGES
****
Generated from CSD

@<TRIPOS>ATOM
      1 O1        -6.4462    1.5982    3.4435 O.3       1 RES1    0.0000
      2 O2        -5.7696   -3.1194   -4.7784 O.2       1 RES1    0.0000
      3 O3        -7.4506   -1.5339   -7.3356 O.3       1 RES1    0.0000
      4 N1        -6.5685   -2.4085   -6.7312 N.am      1 RES1    0.0000
      5 C1        -7.6275    3.8722    2.0721 C.3       1 RES1    0.0000
      6 C2        -7.7092    2.4294    1.6411 C.3       1 RES1    0.0000
      7 C3        -6.4762    1.6296    2.0341 C.3       1 RES1    0.0000
      8 C4        -6.4792    0.2317    1.4162 C.3       1 RES1    0.0000
      9 C5        -5.3037   -0.5980    1.9067 C.3       1 RES1    0.0000
     10 C6        -6.4660    0.3065   -0.0691 C.2       1 RES1    0.0000
     11 C7        -7.3583   -0.1271   -0.9622 C.2       1 RES1    0.0000
     12 C8        -8.6449   -0.8148   -0.6383 C.3       1 RES1    0.0000
     13 C9        -8.5172    2.3921   -2.5220 C.3       1 RES1    0.0000
     14 C10       -8.2316    1.0316   -3.0437 C.2       1 RES1    0.0000
     15 C11       -7.1405    0.1570   -2.4366 C.3       1 RES1    0.0000
     16 C12       -7.1512   -1.0764   -3.3188 C.3       1 RES1    0.0000
     17 C13       -8.2658   -0.9344   -4.3529 C.3       1 RES1    0.0000
     18 C14       -8.8207    0.4261   -4.0805 C.2       1 RES1    0.0000
     19 C15       -9.1733   -2.0557   -4.7526 C.3       1 RES1    0.0000
     20 C16       -6.7724   -0.9344   -4.7838 C.3       1 RES1    0.0000
     21 C17       -6.0707    0.3065   -5.2703 C.3       1 RES1    0.0000
     22 C18       -6.3317   -2.2276   -5.4113 C.2       1 RES1    0.0000
     23 C19       -6.8256   -0.9269   -8.4658 C.3       1 RES1    0.0000
     24 C20       -6.6156   -3.7825   -7.2746 C.3       1 RES1    0.0000
     25 H1        -6.8731    4.2810    1.6655 H         1 RES1    0.0000
     26 H2        -7.5413    3.9148    3.0166 H         1 RES1    0.0000
     27 H3        -8.4181    4.3259    1.8051 H         1 RES1    0.0000
     28 H4        -7.8024    2.4003    0.6966 H         1 RES1    0.0000
     29 H5        -8.4715    2.0340    2.0463 H         1 RES1    0.0000
     30 H6        -5.7052    2.0908    1.7279 H         1 RES1    0.0000
     31 H7        -7.2786   -0.2063    1.6831 H         1 RES1    0.0000
     32 H8        -5.3611   -1.4711    1.5476 H         1 RES1    0.0000
     33 H9        -5.3229   -0.6399    2.8567 H         1 RES1    0.0000
     34 H10       -4.4926   -0.1884    1.6262 H         1 RES1    0.0000
     35 H11       -5.7018    0.7296   -0.4418 H         1 RES1    0.0000
     36 H12       -9.1053   -1.0204   -1.4433 H         1 RES1    0.0000
     37 H13       -9.1831   -0.2437   -0.1030 H         1 RES1    0.0000
     38 H14       -8.4636   -1.6176   -0.1640 H         1 RES1    0.0000
     39 H15       -8.3586    3.0364   -3.2050 H         1 RES1    0.0000
     40 H16       -7.9497    2.5752   -1.7807 H         1 RES1    0.0000
     41 H17       -9.4242    2.4444   -2.2455 H         1 RES1    0.0000
     42 H18       -6.3044    0.5995   -2.5410 H         1 RES1    0.0000
     43 H19       -7.0297   -1.9196   -2.9055 H         1 RES1    0.0000
     44 H20       -9.5223    0.8155   -4.5887 H         1 RES1    0.0000
     45 H21       -9.6217   -1.8292   -5.5590 H         1 RES1    0.0000
     46 H22       -9.8138   -2.2052   -4.0669 H         1 RES1    0.0000
     47 H23       -8.6616   -2.8451   -4.8854 H         1 RES1    0.0000
     48 H24       -5.1407    0.2317   -5.0928 H         1 RES1    0.0000
     49 H25       -6.4203    1.0652   -4.8190 H         1 RES1    0.0000
     50 H26       -6.2090    0.4014   -6.2054 H         1 RES1    0.0000
     51 H27       -6.5870   -1.5960   -9.0946 H         1 RES1    0.0000
     52 H28       -6.0437   -0.4635   -8.1853 H         1 RES1    0.0000
     53 H29       -7.4274   -0.3117   -8.8697 H         1 RES1    0.0000
     54 H30       -7.4891   -4.1390   -7.1581 H         1 RES1    0.0000
     55 H31       -5.9874   -4.3274   -6.8152 H         1 RES1    0.0000
     56 H32       -6.4026   -3.7645   -8.2002 H         1 RES1    0.0000
     57 H33       -5.7309    0.9172    3.5641 H         1 RES1    0.0000
@<TRIPOS>BOND
     1    1    7 1
     2    2   22 2
     3    3    4 1
     4    4   22 1
     5    5    6 1
     6    6    7 1
     7    7    8 1
     8    8    9 1
     9    9   32 1
    10   10    8 1
    11   11   10 2
    12   12   11 1
    13   13   14 1
    14   14   15 1
    15   15   11 1
    16   16   15 1
    17   17   16 1
    18   18   14 2
    19   19   17 1
    20   20   16 1
    21   21   20 1
    22   22   20 1
    23   23    3 1
    24   24    4 1
    25   25    5 1
    26   26    5 1
    27   27    5 1
    28   28    6 1
    29   29    6 1
    30   30    7 1
    31   31    8 1
    32   33    9 1
    33   34    9 1
    34   35   10 1
    35   36   12 1
    36   37   12 1
    37   38   12 1
    38   39   13 1
    39   40   13 1
    40   41   13 1
    41   42   15 1
    42   43   16 1
    43   44   18 1
    44   45   19 1
    45   46   19 1
    46   47   19 1
    47   48   21 1
    48   49   21 1
    49   50   21 1
    50   51   23 1
    51   52   23 1
    52   53   23 1
    53   54   24 1
    54   55   24 1
    55   56   24 1
    56   57    1 1
    57   17   18 1
    58   17   20 1
@<TRIPOS>SUBSTRUCTURE
     1 RES1 1

@<TRIPOS>CRYSIN
   9.9130    7.4752   13.5770  90.0000  93.4880  90.0000   4 1

