# MOL2 file generated by ConQuest
# Please check atom types

@<TRIPOS>MOLECULE
DAHKEC
    71    72     1
SMALL
NO_CHARGES
****
Generated from CSD

@<TRIPOS>ATOM
      1 O1         1.1995    4.7812   22.3639 O.3       1 RES1    0.0000
      2 O2         2.8549    6.2872   22.2879 O.2       1 RES1    0.0000
      3 O3         1.1509    8.3663   22.5159 O.3       1 RES1    0.0000
      4 O4        -0.6950    9.0065   20.6254 O.2       1 RES1    0.0000
      5 O5         1.1671    5.8603   17.4127 O.3       1 RES1    0.0000
      6 O6         2.8758    7.1908   18.0236 O.2       1 RES1    0.0000
      7 N1         1.4559    8.5917   21.1694 N.am      1 RES1    0.0000
      8 N2         0.7102    7.8620   18.1756 N.am      1 RES1    0.0000
      9 C1         1.7128    6.0170   22.4460 C.2       1 RES1    0.0000
     10 C2         0.6277    7.0376   22.6982 C.3       1 RES1    0.0000
     11 C3         0.4752    8.9170   20.3184 C.2       1 RES1    0.0000
     12 C4         0.9608    9.0995   18.8990 C.3       1 RES1    0.0000
     13 C5         1.6867    6.9963   17.8990 C.2       1 RES1    0.0000
     14 C6         2.0731    3.6143   22.1451 C.3       1 RES1    0.0000
     15 C7         1.1071    2.4440   22.0569 C.3       1 RES1    0.0000
     16 C8         2.8303    3.7606   20.8564 C.3       1 RES1    0.0000
     17 C9         2.9922    3.4198   23.3244 C.3       1 RES1    0.0000
     18 C10        0.0836    6.9773   24.1298 C.3       1 RES1    0.0000
     19 C11        1.1280    6.9773   25.2179 C.ar      1 RES1    0.0000
     20 C12        1.3838    5.8328   25.9200 C.ar      1 RES1    0.0000
     21 C13        2.3603    5.8483   26.9382 C.ar      1 RES1    0.0000
     22 C14        3.0131    6.9584   27.2239 C.ar      1 RES1    0.0000
     23 C15        2.7885    8.1012   26.5370 C.ar      1 RES1    0.0000
     24 C16        1.8329    8.1115   25.5431 C.ar      1 RES1    0.0000
     25 C17        0.2977   10.3094   18.2638 C.3       1 RES1    0.0000
     26 C18        0.8773   10.7982   16.9902 C.3       1 RES1    0.0000
     27 C19        0.1462   12.0511   16.4979 C.3       1 RES1    0.0000
     28 C20        1.6658   10.2801   16.1757 C.3       1 RES1    0.0000
     29 C21        2.0940    4.8208   17.0450 C.3       1 RES1    0.0000
     30 C22        1.3368    3.5317   16.9325 C.ar      1 RES1    0.0000
     31 C23        0.2768    3.2580   17.7592 C.ar      1 RES1    0.0000
     32 C24       -0.4021    2.0636   17.6620 C.ar      1 RES1    0.0000
     33 C25       -0.0313    1.1222   16.7532 C.ar      1 RES1    0.0000
     34 C26        1.0183    1.3717   15.9113 C.ar      1 RES1    0.0000
     35 C27        1.7180    2.5903   15.9994 C.ar      1 RES1    0.0000
     36 H1         2.4021    8.3301   20.9111 H         1 RES1    0.0000
     37 H2        -0.0522    7.6073   18.1756 H         1 RES1    0.0000
     38 H3        -0.0851    6.8947   22.0843 H         1 RES1    0.0000
     39 H4         1.8951    9.2492   18.9233 H         1 RES1    0.0000
     40 H5         0.6157    2.3751   22.8654 H         1 RES1    0.0000
     41 H6         0.5097    2.5851   21.3305 H         1 RES1    0.0000
     42 H7         1.5964    1.6419   21.9110 H         1 RES1    0.0000
     43 H8         3.3859    2.9982   20.7317 H         1 RES1    0.0000
     44 H9         2.2194    3.8312   20.1360 H         1 RES1    0.0000
     45 H10        3.3703    4.5403   20.8959 H         1 RES1    0.0000
     46 H11        2.4679    3.2770   24.1116 H         1 RES1    0.0000
     47 H12        3.5442    2.6660   23.1754 H         1 RES1    0.0000
     48 H13        3.5249    4.1943   23.4429 H         1 RES1    0.0000
     49 H14       -0.4747    7.7312   24.2635 H         1 RES1    0.0000
     50 H15       -0.4272    6.1822   24.2149 H         1 RES1    0.0000
     51 H16        0.9165    5.0359   25.7255 H         1 RES1    0.0000
     52 H17        2.5572    5.0497   27.4215 H         1 RES1    0.0000
     53 H18        3.6382    6.9532   27.9290 H         1 RES1    0.0000
     54 H19        3.2841    8.8843   26.7406 H         1 RES1    0.0000
     55 H20        1.6596    8.9170   25.0751 H         1 RES1    0.0000
     56 H21       -0.6282   10.1235   18.1847 H         1 RES1    0.0000
     57 H22        0.4277   11.0460   18.8504 H         1 RES1    0.0000
     58 H23        0.0898   10.2268   16.5039 H         1 RES1    0.0000
     59 H24        0.8413   12.7103   16.4280 H         1 RES1    0.0000
     60 H25       -0.2695   11.9462   15.6590 H         1 RES1    0.0000
     61 H26       -0.4778   12.3282   17.1483 H         1 RES1    0.0000
     62 H27        1.9431    9.4437   16.5222 H         1 RES1    0.0000
     63 H28        1.2178   10.1132   15.3247 H         1 RES1    0.0000
     64 H29        2.3290   10.8825   16.0875 H         1 RES1    0.0000
     65 H30        2.4977    5.0377   16.2122 H         1 RES1    0.0000
     66 H31        2.7661    4.7468   17.7136 H         1 RES1    0.0000
     67 H32        0.0052    3.9000   18.4005 H         1 RES1    0.0000
     68 H33       -1.1321    1.8915   18.2334 H         1 RES1    0.0000
     69 H34       -0.5029    0.2995   16.6985 H         1 RES1    0.0000
     70 H35        1.2736    0.7143   15.2730 H         1 RES1    0.0000
     71 H36        2.4429    2.7641   15.4128 H         1 RES1    0.0000
@<TRIPOS>BOND
     1    1    9 1
     2    2    9 2
     3    3    7 1
     4    4   11 2
     5    5   13 1
     6    6   13 2
     7    7   11 1
     8    8   12 1
     9    9   10 1
    10   10    3 1
    11   11   12 1
    12   12   25 1
    13   13    8 1
    14   14    1 1
    15   15   14 1
    16   16   14 1
    17   17   14 1
    18   18   10 1
    19   19   18 1
    20   20   19 ar
    21   21   20 ar
    22   22   21 ar
    23   23   22 ar
    24   24   19 ar
    25   25   26 1
    26   26   27 1
    27   27   59 1
    28   28   26 1
    29   29    5 1
    30   30   29 1
    31   31   30 ar
    32   32   31 ar
    33   33   32 ar
    34   34   33 ar
    35   35   30 ar
    36   36    7 1
    37   37    8 1
    38   38   10 1
    39   39   12 1
    40   40   15 1
    41   41   15 1
    42   42   15 1
    43   43   16 1
    44   44   16 1
    45   45   16 1
    46   46   17 1
    47   47   17 1
    48   48   17 1
    49   49   18 1
    50   50   18 1
    51   51   20 1
    52   52   21 1
    53   53   22 1
    54   54   23 1
    55   55   24 1
    56   56   25 1
    57   57   25 1
    58   58   26 1
    59   60   27 1
    60   61   27 1
    61   62   28 1
    62   63   28 1
    63   64   28 1
    64   65   29 1
    65   66   29 1
    66   67   31 1
    67   68   32 1
    68   69   33 1
    69   70   34 1
    70   71   35 1
    71   23   24 ar
    72   34   35 ar
@<TRIPOS>SUBSTRUCTURE
     1 RES1 1

@<TRIPOS>CRYSIN
   5.2220   17.2110   30.3940  90.0000  90.0000  90.0000  19 1

