# MOL2 file generated by ConQuest
# Please check atom types

@<TRIPOS>MOLECULE
DAHLAZ
    29    30     1
SMALL
NO_CHARGES
****
Generated from CSD

@<TRIPOS>ATOM
      1 C1         0.3703    0.6996    0.3235 C.ar      1 RES1    0.0000
      2 C2         0.1222    2.0498    0.1419 C.ar      1 RES1    0.0000
      3 C3        -0.9523    2.6561    0.6968 C.ar      1 RES1    0.0000
      4 C4        -1.8362    1.9006    1.4891 C.ar      1 RES1    0.0000
      5 C5        -1.5814    0.5480    1.7011 C.ar      1 RES1    0.0000
      6 C6        -0.5095   -0.0536    1.1174 C.ar      1 RES1    0.0000
      7 N1         1.4770    0.0793   -0.2981 N.pl3     1 RES1    0.0000
      8 O1         1.6265   -1.1427   -0.1765 O.2       1 RES1    0.0000
      9 O2         2.2519    0.7626   -0.9527 O.2       1 RES1    0.0000
     10 N2        -2.9260    2.4719    2.0803 N.3       1 RES1    0.0000
     11 N3        -3.2202    3.7708    1.8185 N.2       1 RES1    0.0000
     12 C7        -4.3068    4.2372    2.3024 C.2       1 RES1    0.0000
     13 C8        -4.7146    5.6038    2.0347 C.ar      1 RES1    0.0000
     14 C9        -3.8363    6.5109    1.4004 C.ar      1 RES1    0.0000
     15 C10       -4.2227    7.7912    1.0946 C.ar      1 RES1    0.0000
     16 C11       -5.4523    8.2273    1.4587 C.ar      1 RES1    0.0000
     17 C12       -6.3043    7.4134    2.0803 C.ar      1 RES1    0.0000
     18 C13       -5.9440    6.0609    2.4012 C.ar      1 RES1    0.0000
     19 H1         0.7226    2.5652   -0.3835 H         1 RES1    0.0000
     20 H2        -1.1098    3.5820    0.5515 H         1 RES1    0.0000
     21 H3        -2.1592    0.0420    2.2602 H         1 RES1    0.0000
     22 H4        -0.3590   -0.9841    1.2450 H         1 RES1    0.0000
     23 H5        -3.5424    2.0708    2.3142 H         1 RES1    0.0000
     24 H6        -4.8554    3.6822    2.8447 H         1 RES1    0.0000
     25 H7        -2.9561    6.2288    1.1816 H         1 RES1    0.0000
     26 H8        -3.6310    8.3695    0.6276 H         1 RES1    0.0000
     27 H9        -5.7095    9.1228    1.2720 H         1 RES1    0.0000
     28 H10       -7.1670    7.7352    2.3142 H         1 RES1    0.0000
     29 H11       -6.5534    5.4942    2.8607 H         1 RES1    0.0000
@<TRIPOS>BOND
     1    1    2 ar
     2    2    3 ar
     3    3    4 ar
     4    4    5 ar
     5    5    6 ar
     6    6    1 ar
     7    7    1 1
     8    8    7 2
     9    9    7 2
    10   10    4 1
    11   11   10 1
    12   12   11 2
    13   13   12 1
    14   14   13 ar
    15   15   14 ar
    16   16   15 ar
    17   17   16 ar
    18   18   13 ar
    19   19    2 1
    20   20    3 1
    21   21    5 1
    22   22    6 1
    23   23   10 1
    24   24   12 1
    25   25   14 1
    26   26   15 1
    27   27   16 1
    28   28   17 1
    29   29   18 1
    30   17   18 ar
@<TRIPOS>SUBSTRUCTURE
     1 RES1 1

@<TRIPOS>CRYSIN
   6.0490   23.3200    8.5060  90.0000  96.8000  90.0000   9 1

