# MOL2 file generated by ConQuest
# Please check atom types

@<TRIPOS>MOLECULE
DAJJEF
    42    44     1
SMALL
NO_CHARGES
****
Generated from CSD

@<TRIPOS>ATOM
      1 O1         0.3447    9.7543    2.1626 O.3       1 RES1    0.0000
      2 O2        -1.3472   10.2307    0.7653 O.2       1 RES1    0.0000
      3 O3        -2.5589    3.4681    0.1619 O.2       1 RES1    0.0000
      4 O4        -0.8258    3.0317    1.3816 O.2       1 RES1    0.0000
      5 N1         1.4938   10.4151    5.4771 N.1       1 RES1    0.0000
      6 N2        -1.5978    3.8138    0.8500 N.pl3     1 RES1    0.0000
      7 C1         1.8766   11.3603    3.0667 C.3       1 RES1    0.0000
      8 C2         3.1066   10.7258    2.2961 C.3       1 RES1    0.0000
      9 H1         2.7583   10.1739    1.5454 H         1 RES1    0.0000
     10 C3         3.8261   11.9506    1.7815 C.2       1 RES1    0.0000
     11 H2         4.5867   11.8752    1.2130 H         1 RES1    0.0000
     12 C4         3.3401   13.0839    2.2603 C.2       1 RES1    0.0000
     13 H3         3.6603   13.9623    2.0808 H         1 RES1    0.0000
     14 C5         2.1770   12.8895    3.1738 C.3       1 RES1    0.0000
     15 H4         2.3941   13.1555    4.1173 H         1 RES1    0.0000
     16 C6         1.6783   10.7928    4.4134 C.1       1 RES1    0.0000
     17 C7         3.9888    9.8258    3.1391 C.ar      1 RES1    0.0000
     18 C8         3.8512    8.4419    3.0880 C.ar      1 RES1    0.0000
     19 H5         3.2074    8.0617    2.4796 H         1 RES1    0.0000
     20 C9         4.6504    7.6244    3.8786 C.ar      1 RES1    0.0000
     21 H6         4.5607    6.6730    3.8053 H         1 RES1    0.0000
     22 C10        5.5977    8.1774    4.7196 C.ar      1 RES1    0.0000
     23 H7         6.1671    7.6121    5.2823 H         1 RES1    0.0000
     24 C11        5.7548    9.5492    4.7698 C.ar      1 RES1    0.0000
     25 H8         6.4434    9.9297    5.3543 H         1 RES1    0.0000
     26 C12        4.9513   10.3621    3.9904 C.ar      1 RES1    0.0000
     27 H9         5.0608   11.3275    4.0545 H         1 RES1    0.0000
     28 C13        0.5976   11.1782    2.2545 C.3       1 RES1    0.0000
     29 H10        0.7249   11.5432    1.3478 H         1 RES1    0.0000
     30 H11       -0.1829   11.6139    2.6864 H         1 RES1    0.0000
     31 C14       -0.6859    9.4244    1.3644 C.2       1 RES1    0.0000
     32 C15       -0.9014    7.9480    1.2943 C.ar      1 RES1    0.0000
     33 C16       -1.9031    7.4985    0.4287 C.ar      1 RES1    0.0000
     34 H12       -2.4251    8.1370   -0.0646 H         1 RES1    0.0000
     35 C17       -2.1371    6.1446    0.2867 C.ar      1 RES1    0.0000
     36 H13       -2.7805    5.8127   -0.3250 H         1 RES1    0.0000
     37 C18       -1.3695    5.2612    1.0242 C.ar      1 RES1    0.0000
     38 C19       -0.3723    5.6724    1.8932 C.ar      1 RES1    0.0000
     39 H14        0.1423    5.0299    2.3891 H         1 RES1    0.0000
     40 C20       -0.1450    7.0377    2.0250 C.ar      1 RES1    0.0000
     41 H15        0.5508    7.3451    2.6162 H         1 RES1    0.0000
     42 H16        1.3636   13.4088    2.9190 H         1 RES1    0.0000
@<TRIPOS>BOND
     1    1   28 1
     2    2   31 2
     3    3    6 2
     4    4    6 2
     5    5   16 3
     6    6   37 1
     7    7    8 1
     8    8    9 1
     9   10    8 1
    10   11   10 1
    11   12   10 2
    12   13   12 1
    13   14    7 1
    14   15   14 1
    15   16    7 1
    16   17    8 1
    17   18   17 ar
    18   19   18 1
    19   20   18 ar
    20   21   20 1
    21   22   20 ar
    22   23   22 1
    23   24   22 ar
    24   25   24 1
    25   26   17 ar
    26   27   26 1
    27   28    7 1
    28   29   28 1
    29   30   28 1
    30   31    1 1
    31   32   31 1
    32   33   32 ar
    33   34   33 1
    34   35   33 ar
    35   36   35 1
    36   37   35 ar
    37   38   37 ar
    38   39   38 1
    39   40   32 ar
    40   41   40 1
    41   42   14 1
    42   12   14 1
    43   24   26 ar
    44   38   40 ar
@<TRIPOS>SUBSTRUCTURE
     1 RES1 1

@<TRIPOS>CRYSIN
   7.9028   11.4108   18.4633  90.0000  90.2260  90.0000 231 1

