# MOL2 file generated by ConQuest
# Please check atom types

@<TRIPOS>MOLECULE
DAJSUC
    34    36     1
SMALL
USER_CHARGES
****
Generated from CSD

@<TRIPOS>ATOM
      1 C1        -3.2272    2.7895   13.0727 C.3       1 RES1    0.0000
      2 N1        -2.3975    3.7747   12.3122 N.pl3     1 RES1    1.0000
      3 N2        -1.8525    3.4813   11.1926 N.2       1 RES1    0.0000
      4 C2        -1.9424    2.1628   10.7241 C.2       1 RES1    0.0000
      5 C3        -1.7900    1.0342   11.4628 C.2       1 RES1    0.0000
      6 C4        -1.6599    0.9509   12.8957 C.2       1 RES1    0.0000
      7 C5        -0.7914   -0.1569   13.4475 C.3       1 RES1    0.0000
      8 C6        -0.9193   -0.2930   14.9587 C.3       1 RES1    0.0000
      9 C7        -0.8495    1.0697   15.6127 C.3       1 RES1    0.0000
     10 C8        -2.0181    1.9368   15.1697 C.3       1 RES1    0.0000
     11 C9        -2.2761    1.8309   13.6994 C.2       1 RES1    0.0000
     12 C10       -1.9470    2.1115    9.2357 C.ar      1 RES1    0.0000
     13 C11       -1.3426    3.1046    8.4754 C.ar      1 RES1    0.0000
     14 C12       -1.3360    3.0412    7.0928 C.ar      1 RES1    0.0000
     15 C13       -1.9409    1.9898    6.4453 C.ar      1 RES1    0.0000
     16 C14       -2.5439    1.0044    7.1843 C.ar      1 RES1    0.0000
     17 C15       -2.5513    1.0533    8.5619 C.ar      1 RES1    0.0000
     18 O1        -2.2045    4.9064   12.8502 O.2       1 RES1   -1.0000
     19 H1        -3.8472    2.3713   12.4024 H         1 RES1    0.0000
     20 H2        -3.6825    3.3416   13.7177 H         1 RES1    0.0000
     21 H3        -1.6326    0.2405   10.9958 H         1 RES1    0.0000
     22 H4        -1.0344   -0.9855   13.0435 H         1 RES1    0.0000
     23 H5         0.1205    0.0250   13.2089 H         1 RES1    0.0000
     24 H6        -0.2154   -0.8785   15.2874 H         1 RES1    0.0000
     25 H7        -1.8559   -0.7214   15.2258 H         1 RES1    0.0000
     26 H8        -0.0024    1.4915   15.2771 H         1 RES1    0.0000
     27 H9        -0.8393    1.0230   16.5981 H         1 RES1    0.0000
     28 H10       -2.8564    1.7445   15.6946 H         1 RES1    0.0000
     29 H11       -1.8403    2.8801   15.3501 H         1 RES1    0.0000
     30 H12       -0.9654    3.8197    8.9299 H         1 RES1    0.0000
     31 H13       -0.9067    3.7335    6.6153 H         1 RES1    0.0000
     32 H14       -1.9352    1.9557    5.4757 H         1 RES1    0.0000
     33 H15       -2.9372    0.2558    6.7590 H         1 RES1    0.0000
     34 H16       -2.9355    0.3725    9.0862 H         1 RES1    0.0000
@<TRIPOS>BOND
     1    1    2 1
     2    2    3 2
     3    3    4 1
     4    4    5 2
     5    5    6 1
     6    6    7 1
     7    7    8 1
     8    8    9 1
     9    9   10 1
    10   10   11 1
    11   11    1 1
    12   12    4 1
    13   13   12 ar
    14   14   13 ar
    15   15   14 ar
    16   16   15 ar
    17   17   12 ar
    18   18    2 1
    19   19    1 1
    20   20    1 1
    21   21    5 1
    22   22    7 1
    23   23    7 1
    24   24    8 1
    25   25    8 1
    26   26    9 1
    27   27    9 1
    28   28   10 1
    29   29   10 1
    30   30   13 1
    31   31   14 1
    32   32   15 1
    33   33   16 1
    34   34   17 1
    35    6   11 2
    36   16   17 ar
@<TRIPOS>SUBSTRUCTURE
     1 RES1 1

@<TRIPOS>CRYSIN
   8.0620   13.9000   12.0070  90.0000 108.1800  90.0000  14 2

