# MOL2 file generated by ConQuest
# Please check atom types

@<TRIPOS>MOLECULE
DAJVEP
    52    55     1
SMALL
NO_CHARGES
****
Generated from CSD

@<TRIPOS>ATOM
      1 C1         9.9867    3.7250    6.8277 C.3       1 RES1    0.0000
      2 N1         9.9145    3.5485    5.3628 N.3       1 RES1    0.0000
      3 O1        10.3023    4.8475    4.8524 O.3       1 RES1    0.0000
      4 C2        11.3507    5.3319    5.6959 C.3       1 RES1    0.0000
      5 C3        10.9659    4.8922    7.1038 C.3       1 RES1    0.0000
      6 C4        10.1129    5.8925    7.8814 C.3       1 RES1    0.0000
      7 N2         9.0488    5.0837    8.4955 N.3       1 RES1    0.0000
      8 C5         8.6407    4.1414    7.4262 C.3       1 RES1    0.0000
      9 C6         7.8306    2.9610    7.9649 C.3       1 RES1    0.0000
     10 O2         6.5020    3.4085    8.2135 O.3       1 RES1    0.0000
     11 C7         7.8261    1.7569    7.0442 C.ar      1 RES1    0.0000
     12 C8         7.1017    1.7707    5.8556 C.ar      1 RES1    0.0000
     13 C9         7.0333    0.6365    5.0617 C.ar      1 RES1    0.0000
     14 C10        7.7096   -0.5101    5.4166 C.ar      1 RES1    0.0000
     15 C11        8.4619   -0.5278    6.5758 C.ar      1 RES1    0.0000
     16 C12        8.5047    0.5987    7.3821 C.ar      1 RES1    0.0000
     17 C13       10.8937    2.5424    4.9172 C.3       1 RES1    0.0000
     18 C14       11.0072    2.4792    3.4143 C.ar      1 RES1    0.0000
     19 C15       12.2096    2.7900    2.8056 C.ar      1 RES1    0.0000
     20 C16       12.3471    2.6943    1.4197 C.ar      1 RES1    0.0000
     21 C17       11.2898    2.2969    0.6577 C.ar      1 RES1    0.0000
     22 C18       10.0896    2.0045    1.2466 C.ar      1 RES1    0.0000
     23 C19        9.9476    2.0924    2.6373 C.ar      1 RES1    0.0000
     24 C20        7.9757    5.9163    9.0575 C.3       1 RES1    0.0000
     25 C21        8.3867    6.5533   10.3420 C.2       1 RES1    0.0000
     26 C22        8.2673    7.8159   10.6539 C.2       1 RES1    0.0000
     27 H1        10.3091    2.9036    7.2545 H         1 RES1    0.0000
     28 H2        11.4138    6.2980    5.6445 H         1 RES1    0.0000
     29 H3        12.2036    4.9479    5.4372 H         1 RES1    0.0000
     30 H4        11.7459    4.6001    7.6206 H         1 RES1    0.0000
     31 H5        10.6405    6.3406    8.5601 H         1 RES1    0.0000
     32 H6         9.7372    6.5605    7.2863 H         1 RES1    0.0000
     33 H7         8.1147    4.6193    6.7502 H         1 RES1    0.0000
     34 H8         8.2237    2.6877    8.8198 H         1 RES1    0.0000
     35 H9         6.1172    2.8458    8.7264 H         1 RES1    0.0000
     36 H10        6.6613    2.5461    5.5922 H         1 RES1    0.0000
     37 H11        6.5260    0.6489    4.2829 H         1 RES1    0.0000
     38 H12        7.6600   -1.2676    4.8787 H         1 RES1    0.0000
     39 H13        8.9376   -1.2909    6.8137 H         1 RES1    0.0000
     40 H14        9.0000    0.5760    8.1679 H         1 RES1    0.0000
     41 H15       10.6292    1.6718    5.2523 H         1 RES1    0.0000
     42 H16       11.7617    2.7551    5.2933 H         1 RES1    0.0000
     43 H17       12.9318    3.0644    3.3228 H         1 RES1    0.0000
     44 H18       13.1595    2.9008    1.0180 H         1 RES1    0.0000
     45 H19       11.3837    2.2244   -0.2652 H         1 RES1    0.0000
     46 H20        9.3667    1.7460    0.7228 H         1 RES1    0.0000
     47 H21        9.1322    1.8876    3.0333 H         1 RES1    0.0000
     48 H22        7.1904    5.3672    9.2101 H         1 RES1    0.0000
     49 H23        7.7389    6.6073    8.4200 H         1 RES1    0.0000
     50 H24        8.7655    5.9969   10.9845 H         1 RES1    0.0000
     51 H25        7.8945    8.4124   10.0450 H         1 RES1    0.0000
     52 H26        8.5551    8.1182   11.4851 H         1 RES1    0.0000
@<TRIPOS>BOND
     1    1    2 1
     2    2    3 1
     3    3    4 1
     4    4    5 1
     5    5    1 1
     6    6    5 1
     7    7    6 1
     8    8    1 1
     9    9    8 1
    10   10    9 1
    11   11    9 1
    12   12   11 ar
    13   13   12 ar
    14   14   13 ar
    15   15   14 ar
    16   16   11 ar
    17   17    2 1
    18   18   17 1
    19   19   18 ar
    20   20   19 ar
    21   21   20 ar
    22   22   21 ar
    23   23   18 ar
    24   24    7 1
    25   25   24 1
    26   26   25 2
    27   27    1 1
    28   28    4 1
    29   29    4 1
    30   30    5 1
    31   31    6 1
    32   32    6 1
    33   33    8 1
    34   34    9 1
    35   35   10 1
    36   36   12 1
    37   37   13 1
    38   38   14 1
    39   39   15 1
    40   40   16 1
    41   41   17 1
    42   42   17 1
    43   43   19 1
    44   44   20 1
    45   45   21 1
    46   46   22 1
    47   47   23 1
    48   48   24 1
    49   49   24 1
    50   50   25 1
    51   51   26 1
    52   52   26 1
    53    7    8 1
    54   15   16 ar
    55   22   23 ar
@<TRIPOS>SUBSTRUCTURE
     1 RES1 1

@<TRIPOS>CRYSIN
   7.5150   13.7480   18.6780  90.0000  90.0000  90.0000  19 1

