# MOL2 file generated by ConQuest
# Please check atom types

@<TRIPOS>MOLECULE
DAJVUG01
    22    22     2
SMALL
NO_CHARGES
****
Generated from CSD

@<TRIPOS>ATOM
      1 C1         9.7649    0.9231    2.2355 C.2       1 RES1    0.0000
      2 N1        10.9457    1.0716    2.7103 N.2       1 RES1    0.0000
      3 O1        10.8191    2.0272    3.6756 O.3       1 RES1    0.0000
      4 C2         8.8782    1.8126    2.8780 C.2       1 RES1    0.0000
      5 O2         3.7671    2.0190    0.8766 O.3       1 RES1    0.0000
      6 N2         9.5344    2.4794    3.7829 N.2       1 RES1    0.0000
      7 C3         5.7806    1.8312    1.3872 C.2       1 RES1    0.0000
      8 O3         6.1476   -0.2578    0.1140 O.3       1 RES1    0.0000
      9 N3         4.7732    2.6000    1.5780 N.2       1 RES1    0.0000
     10 O4         9.6000    0.0777    1.2374 O.3       1 RES1    0.0000
     11 C4         5.4391    0.7735    0.5404 C.2       1 RES1    0.0000
     12 N4         4.1934    0.8686    0.2288 N.2       1 RES1    0.0000
     13 C5         7.5786   -0.1264   -0.0999 C.3       1 RES1    0.0000
     14 H1         7.7980    0.8106   -0.2266 H         1 RES1    0.0000
     15 H2         7.8250   -0.6030   -0.9079 H         1 RES1    0.0000
     16 C6         8.3793   -0.6726    1.0644 C.3       1 RES1    0.0000
     17 H3         7.8499   -0.6193    1.8754 H         1 RES1    0.0000
     18 H4         8.5926   -1.6050    0.9034 H         1 RES1    0.0000
     19 N5         7.5974    2.2452    2.7781 N.2       1 RES1    0.0000
     20 N6         7.2255    1.7465    1.7129 N.2       1 RES1    0.0000
     21 N7         7.4641    1.4450    2.2601 Du        2 SUP2    0.0000
     22 N8         6.6923    2.4180    2.2235 Du        2 SUP2    0.0000
@<TRIPOS>BOND
     1    1    2 2
     2    2    3 1
     3    3    6 1
     4    4    1 1
     5    5    9 1
     6    6    4 2
     7    7    9 2
     8    8   11 1
     9   10    1 1
    10   11    7 1
    11   12    5 1
    12   13    8 1
    13   14   13 1
    14   15   13 1
    15   16   10 1
    16   17   16 1
    17   18   16 1
    18   19    4 1
    19   20    7 1
    20   11   12 2
    21   13   16 1
    22   19   20 2
@<TRIPOS>SUBSTRUCTURE
     1 RES1 1
     2 SUP2 21

@<TRIPOS>CRYSIN
  20.7450   11.5970    7.4540  90.0000  90.0000  90.0000  61 1

