# MOL2 file generated by ConQuest
# Please check atom types

@<TRIPOS>MOLECULE
DAJXUH
    19    19     1
SMALL
NO_CHARGES
****
Generated from CSD

@<TRIPOS>ATOM
      1 C1         1.3116    4.7296    6.1576 C.ar      1 RES1    0.0000
      2 C2         0.2236    4.8425    5.2947 C.ar      1 RES1    0.0000
      3 C3        -0.9917    4.2495    5.5491 C.ar      1 RES1    0.0000
      4 C4        -1.1480    3.5080    6.7069 C.ar      1 RES1    0.0000
      5 C5        -0.0946    3.4212    7.5830 C.ar      1 RES1    0.0000
      6 C6         1.1239    4.0071    7.3341 C.ar      1 RES1    0.0000
      7 C7         2.6562    5.2893    5.8594 C.2       1 RES1    0.0000
      8 N1         0.3144    5.6327    4.0568 N.pl3     1 RES1    0.0000
      9 N2        -0.2635    2.6583    8.8362 N.pl3     1 RES1    0.0000
     10 O1         2.8341    5.9060    4.7925 O.2       1 RES1    0.0000
     11 O2         3.5660    5.0659    6.7004 O.3       1 RES1    0.0000
     12 O3         0.5782    5.0504    3.0251 O.2       1 RES1    0.0000
     13 O4         0.0621    6.8163    4.1413 O.2       1 RES1    0.0000
     14 O5         0.5772    2.8009    9.7068 O.2       1 RES1    0.0000
     15 O6        -1.2432    1.9322    8.9228 O.2       1 RES1    0.0000
     16 H1         4.6315    5.4616    6.4986 H         1 RES1    0.0000
     17 H2        -1.6679    4.3279    4.8912 H         1 RES1    0.0000
     18 H3        -1.9887    3.0350    6.8824 H         1 RES1    0.0000
     19 H4         1.8045    3.9275    7.9349 H         1 RES1    0.0000
@<TRIPOS>BOND
     1    1    2 ar
     2    2    3 ar
     3    3    4 ar
     4    4    5 ar
     5    5    6 ar
     6    6    1 ar
     7    7    1 1
     8    8    2 1
     9    9    5 1
    10   10    7 2
    11   11    7 1
    12   12    8 2
    13   13    8 2
    14   14    9 2
    15   15    9 2
    16   16   11 1
    17   17    3 1
    18   18    4 1
    19   19    6 1
@<TRIPOS>SUBSTRUCTURE
     1 RES1 1

@<TRIPOS>CRYSIN
  12.5512   11.8834   11.5880  90.0000 108.8820  90.0000  15 1

