# MOL2 file generated by ConQuest
# Please check atom types

@<TRIPOS>MOLECULE
DAKDEB
    31    20     2
SMALL
USER_CHARGES
****
Generated from CSD

@<TRIPOS>ATOM
      1 O1        10.1117    1.7282   -2.9947 O.2       1 RES1   -1.0000
      2 O2         9.8045   -0.1612   -1.8609 O.3       1 RES1    0.0000
      3 O3         9.0239    3.8236   -1.5663 O.2       1 RES1    0.0000
      4 O4         7.7176    3.2773    0.1997 O.2       1 RES1    0.0000
      5 O5         6.3884   -0.9750    3.8731 O.2       1 RES1   -1.0000
      6 O6         7.7960    0.7373    3.3307 O.3       1 RES1    0.0000
      7 N1         9.6543    1.2536   -1.9783 N.pl3     1 RES1    1.0000
      8 N2         9.5041   -0.3492   -0.5520 N.2       1 RES1    0.0000
      9 N3         8.4982    3.0306   -0.7518 N.pl3     1 RES1    0.0000
     10 N4         7.0922   -0.4567    2.8876 N.pl3     1 RES1    1.0000
     11 N5         8.4669    1.2387    2.2543 N.2       1 RES1    0.0000
     12 C1         9.0071    1.7063   -0.9031 C.2       1 RES1    0.0000
     13 C2         8.8433    0.6208   -0.0505 C.2       1 RES1    0.0000
     14 C3         8.2096    0.4398    1.2522 C.2       1 RES1    0.0000
     15 C4         7.3640   -0.6318    1.6127 C.2       1 RES1    0.0000
     16 C5         6.6838   -1.6606    0.7827 C.3       1 RES1    0.0000
     17 H1         6.8450   -2.5490    1.1616 H         1 RES1    0.0000
     18 H2         7.0407   -1.6297   -0.1339 H         1 RES1    0.0000
     19 H3         5.7217   -1.4825    0.7600 H         1 RES1    0.0000
     20 O7        10.0375    2.2297   -2.9123 Du        2 SUP2    0.0000
     21 O8        10.0248    0.1910   -1.7723 Du        2 SUP2    0.0000
     22 O9         8.9446    4.1390   -1.2976 Du        2 SUP2    0.0000
     23 O10        6.4137   -1.1143    3.5693 Du        2 SUP2    0.0000
     24 N6         9.7134    1.5790   -1.9360 Du        2 SUP2    0.0000
     25 N7         9.2611   -0.4915   -0.7157 Du        2 SUP2    0.0000
     26 N8         8.6163    3.1838   -0.6179 Du        2 SUP2    0.0000
     27 C6         9.0408    1.8725   -0.7888 Du        2 SUP2    0.0000
     28 C7         6.8104   -1.8307    0.9062 Du        2 SUP2    0.0000
     29 H4         6.1454   -2.2665    1.4778 Du        2 SUP2    0.0000
     30 H5         7.5403   -2.4605    0.7167 Du        2 SUP2    0.0000
     31 H6         6.3943   -1.5521    0.0669 Du        2 SUP2    0.0000
@<TRIPOS>BOND
     1    1    7 1
     2    2    7 1
     3    3    9 2
     4    4    9 2
     5    5   10 1
     6    6   10 1
     7    7   12 2
     8    8    2 1
     9    9   12 1
    10   10   15 2
    11   11    6 1
    12   12   13 1
    13   13    8 2
    14   14   11 2
    15   15   14 1
    16   16   15 1
    17   17   16 1
    18   18   16 1
    19   19   16 1
    20   13   14 1
@<TRIPOS>SUBSTRUCTURE
     1 RES1 1
     2 SUP2 20

@<TRIPOS>CRYSIN
   8.4391    9.9494   10.2981  90.0000  90.0000  90.0000  19 1

