# MOL2 file generated by ConQuest
# Please check atom types

@<TRIPOS>MOLECULE
DALTUG
    36    40     1
SMALL
NO_CHARGES
****
Generated from CSD

@<TRIPOS>ATOM
      1 O1         5.2300    0.5024    0.9599 O.3       1 RES1    0.0000
      2 N1         6.5605    0.5453    1.3792 N.2       1 RES1    0.0000
      3 C1         6.7255    0.6898    2.6534 C.2       1 RES1    0.0000
      4 C2         5.7875    0.6537    3.8040 C.ar      1 RES1    0.0000
      5 C3         4.4077    0.9883    3.9668 C.ar      1 RES1    0.0000
      6 C4         3.6233    1.6800    3.0035 C.ar      1 RES1    0.0000
      7 H1         4.0153    1.9412    2.1782 H         1 RES1    0.0000
      8 C5         2.3054    1.9743    3.2538 C.ar      1 RES1    0.0000
      9 H2         1.7966    2.4384    2.5986 H         1 RES1    0.0000
     10 C6         1.6979    1.5953    4.4730 C.ar      1 RES1    0.0000
     11 H3         0.7782    1.7820    4.6245 H         1 RES1    0.0000
     12 C7         2.4346    0.9578    5.4388 C.ar      1 RES1    0.0000
     13 H4         2.0213    0.7105    6.2582 H         1 RES1    0.0000
     14 C8         3.8118    0.6624    5.2266 C.ar      1 RES1    0.0000
     15 C9         4.5771    0.0779    6.2681 C.ar      1 RES1    0.0000
     16 H5         4.1515   -0.1637    7.0821 H         1 RES1    0.0000
     17 C10        5.9225   -0.1441    6.1194 C.ar      1 RES1    0.0000
     18 H6         6.4371   -0.4998    6.8338 H         1 RES1    0.0000
     19 C11        6.5232    0.1645    4.8906 C.ar      1 RES1    0.0000
     20 C12        7.9462    0.0681    4.5145 C.ar      1 RES1    0.0000
     21 C13        9.0546   -0.3583    5.2752 C.ar      1 RES1    0.0000
     22 H7         8.9425   -0.6575    6.1707 H         1 RES1    0.0000
     23 C14       10.3028   -0.3319    4.6950 C.ar      1 RES1    0.0000
     24 H8        11.0537   -0.6308    5.1945 H         1 RES1    0.0000
     25 C15       10.4923    0.1329    3.3650 C.ar      1 RES1    0.0000
     26 C16       11.7831    0.1972    2.7888 C.ar      1 RES1    0.0000
     27 H9        12.5316   -0.1035    3.2899 H         1 RES1    0.0000
     28 C17       11.9749    0.6835    1.5248 C.ar      1 RES1    0.0000
     29 H10       12.8489    0.7064    1.1540 H         1 RES1    0.0000
     30 C18       10.8724    1.1535    0.7697 C.ar      1 RES1    0.0000
     31 H11       11.0131    1.5133   -0.0988 H         1 RES1    0.0000
     32 C19        9.6001    1.0918    1.2849 C.ar      1 RES1    0.0000
     33 H12        8.8668    1.4019    0.7675 H         1 RES1    0.0000
     34 C20        9.3736    0.5683    2.5851 C.ar      1 RES1    0.0000
     35 C21        8.0936    0.4780    3.1974 C.ar      1 RES1    0.0000
     36 H13        5.4092    0.1355    0.0818 H         1 RES1    0.0000
@<TRIPOS>BOND
     1    1    2 1
     2    2    3 2
     3    3    4 1
     4    4    5 ar
     5    5    6 ar
     6    6    7 1
     7    8    6 ar
     8    9    8 1
     9   10    8 ar
    10   11   10 1
    11   12   10 ar
    12   13   12 1
    13   14    5 ar
    14   15   14 ar
    15   16   15 1
    16   17   15 ar
    17   18   17 1
    18   19    4 ar
    19   20   19 1
    20   21   20 ar
    21   22   21 1
    22   23   21 ar
    23   24   23 1
    24   25   23 ar
    25   26   25 ar
    26   27   26 1
    27   28   26 ar
    28   29   28 1
    29   30   28 ar
    30   31   30 1
    31   32   30 ar
    32   33   32 1
    33   34   25 ar
    34   35    3 1
    35   36    1 1
    36   12   14 ar
    37   17   19 ar
    38   20   35 ar
    39   32   34 ar
    40   34   35 ar
@<TRIPOS>SUBSTRUCTURE
     1 RES1 1

@<TRIPOS>CRYSIN
  12.8820    3.7635   28.6330  90.0000  99.7970  90.0000 231 1

