# MOL2 file generated by ConQuest
# Please check atom types

@<TRIPOS>MOLECULE
DAMTUH
    41    39     2
SMALL
NO_CHARGES
****
Generated from CSD

@<TRIPOS>ATOM
      1 O1        12.6084    3.6400   18.3184 O.3       1 RES1    0.0000
      2 O2         9.5267    0.2970   18.2139 O.3       1 RES1    0.0000
      3 O3        13.1229    2.1255   14.4697 O.2       1 RES1    0.0000
      4 O4        11.2480    1.0477   14.9570 O.3       1 RES1    0.0000
      5 O5        11.8618   -0.6289   21.9643 O.2       1 RES1    0.0000
      6 O6         9.8178   -1.4618   21.8915 O.3       1 RES1    0.0000
      7 N1        12.9320    3.2765   17.0153 N.2       1 RES1    0.0000
      8 N2         9.4696   -0.3721   19.4474 N.2       1 RES1    0.0000
      9 C1        12.0143    2.5168   16.5531 C.2       1 RES1    0.0000
     10 C2        10.8900    2.2203   17.5025 C.3       1 RES1    0.0000
     11 H1        10.0185    2.4724   17.1313 H         1 RES1    0.0000
     12 C3        11.2884    3.1012   18.6880 C.3       1 RES1    0.0000
     13 H2        10.6382    3.8225   18.8248 H         1 RES1    0.0000
     14 C4        10.5605   -0.1680   20.0784 C.2       1 RES1    0.0000
     15 C5        11.5097    0.7717   19.3905 C.3       1 RES1    0.0000
     16 H3        12.4343    0.4453   19.3989 H         1 RES1    0.0000
     17 C6        10.9077    0.7765   18.0020 C.3       1 RES1    0.0000
     18 H4        11.4025    0.1908   17.3920 H         1 RES1    0.0000
     19 C7        11.3897    2.2215   19.9100 C.3       1 RES1    0.0000
     20 H5        10.5988    2.3187   20.4633 H         1 RES1    0.0000
     21 H6        12.1687    2.4591   20.4370 H         1 RES1    0.0000
     22 C8        12.1992    1.9359   15.2081 C.2       1 RES1    0.0000
     23 C9        11.4261    0.2076   13.7993 C.3       1 RES1    0.0000
     24 H7        11.4133    0.7393   12.9884 H         1 RES1    0.0000
     25 H8        12.2730   -0.2640   13.8471 H         1 RES1    0.0000
     26 C10       10.3293   -0.7249   13.8065 C.3       1 RES1    0.0000
     27 H9        10.4021   -1.3118   13.0506 H         1 RES1    0.0000
     28 H10        9.5001   -0.2436   13.7610 H         1 RES1    0.0000
     29 H11       10.3539   -1.2410   14.6173 H         1 RES1    0.0000
     30 C11       10.8211   -0.7741   21.3964 C.2       1 RES1    0.0000
     31 C12       10.0332   -2.1051   23.1925 C.3       1 RES1    0.0000
     32 H12       10.4198   -2.9848   23.0634 H         1 RES1    0.0000
     33 H13       10.6500   -1.5770   23.7212 H         1 RES1    0.0000
     34 C13        8.7673   -2.2227   23.8857 C.3       1 RES1    0.0000
     35 H14        8.9079   -2.6416   24.7378 H         1 RES1    0.0000
     36 H15        8.1643   -2.7556   23.3624 H         1 RES1    0.0000
     37 H16        8.3925   -1.3490   24.0178 H         1 RES1    0.0000
     38 O7        11.0149    1.4174   14.9163 Du        2 SUP2    0.0000
     39 C14       10.6037    0.6853   13.7419 Du        2 SUP2    0.0000
     40 H17        9.8099    1.1186   13.3974 Du        2 SUP2    0.0000
     41 H18       11.3012    0.8077   13.0745 Du        2 SUP2    0.0000
@<TRIPOS>BOND
     1    1    7 1
     2    2    8 1
     3    3   22 2
     4    4   22 1
     5    5   30 2
     6    6   30 1
     7    7    9 2
     8    8   14 2
     9    9   10 1
    10   10   11 1
    11   12    1 1
    12   13   12 1
    13   14   15 1
    14   15   16 1
    15   17    2 1
    16   18   17 1
    17   19   12 1
    18   20   19 1
    19   21   19 1
    20   22    9 1
    21   23    4 1
    22   24   23 1
    23   25   23 1
    24   26   23 1
    25   27   26 1
    26   28   26 1
    27   29   26 1
    28   30   14 1
    29   31    6 1
    30   32   31 1
    31   33   31 1
    32   34   31 1
    33   35   34 1
    34   36   34 1
    35   37   34 1
    36   10   12 1
    37   10   17 1
    38   15   17 1
    39   15   19 1
@<TRIPOS>SUBSTRUCTURE
     1 RES1 1
     2 SUP2 38

@<TRIPOS>CRYSIN
   9.8365   12.0017   23.9197  90.0000  90.0000  90.0000  61 1

