# MOL2 file generated by ConQuest
# Please check atom types

@<TRIPOS>MOLECULE
DANREP10
    46    48     1
SMALL
NO_CHARGES
****
Generated from CSD

@<TRIPOS>ATOM
      1 C1         5.8620   11.2986    0.0967 C.3       1 RES1    0.0000
      2 C2         5.9240   12.7313    0.5849 C.3       1 RES1    0.0000
      3 C3         4.8083   11.1738   -1.0080 C.3       1 RES1    0.0000
      4 C4         7.1938   10.7871   -0.3929 C.ar      1 RES1    0.0000
      5 C5         8.0865   11.4153   -1.2544 C.ar      1 RES1    0.0000
      6 C6         9.2622   10.7518   -1.5612 C.ar      1 RES1    0.0000
      7 C7         9.5356    9.5132   -1.0458 C.ar      1 RES1    0.0000
      8 C8         8.6407    8.8782   -0.1965 C.ar      1 RES1    0.0000
      9 C9         7.4649    9.5376    0.1164 C.ar      1 RES1    0.0000
     10 C10        6.3443    9.0668    1.0247 C.3       1 RES1    0.0000
     11 C11        6.8582    8.5282    2.3531 C.3       1 RES1    0.0000
     12 C12        5.4791    8.0113    0.3461 C.3       1 RES1    0.0000
     13 N1         5.6562   10.3842    1.2680 N.3       1 RES1    0.0000
     14 O1         4.2447   10.1725    1.4478 O.3       1 RES1    0.0000
     15 C13        3.8489   10.3408    2.8065 C.3       1 RES1    0.0000
     16 N2         3.8028   11.7137    3.2372 N.am      1 RES1    0.0000
     17 C14        4.8343   12.3880    3.8493 C.2       1 RES1    0.0000
     18 C15        5.7769   12.4301    4.1788 C.2       1 RES1    0.0000
     19 C16        2.5705   12.2768    3.0317 C.2       1 RES1    0.0000
     20 O2         2.3378   13.4517    3.2644 O.2       1 RES1    0.0000
     21 C17        1.6573   11.2280    2.5345 C.3       1 RES1    0.0000
     22 C18        2.3770    9.9405    2.8246 C.3       1 RES1    0.0000
     23 H1         5.1340   12.9565    1.0730 H         1 RES1    0.0000
     24 H2         6.6734   12.8208    1.1486 H         1 RES1    0.0000
     25 H3         6.0065   13.3228   -0.1662 H         1 RES1    0.0000
     26 H4         4.8231   10.2974   -1.3602 H         1 RES1    0.0000
     27 H5         3.9142   11.3420   -0.6348 H         1 RES1    0.0000
     28 H6         4.8615   11.7762   -1.7682 H         1 RES1    0.0000
     29 H7         7.8787   12.3188   -1.6473 H         1 RES1    0.0000
     30 H8         9.8995   11.1656   -2.1612 H         1 RES1    0.0000
     31 H9        10.4426    9.1306   -1.2242 H         1 RES1    0.0000
     32 H10        8.8331    7.9367    0.0605 H         1 RES1    0.0000
     33 H11        7.5209    9.1306    2.6901 H         1 RES1    0.0000
     34 H12        6.1587    8.4522    3.0226 H         1 RES1    0.0000
     35 H13        7.2571    7.6654    2.2519 H         1 RES1    0.0000
     36 H14        4.6334    7.8282    0.7708 H         1 RES1    0.0000
     37 H15        5.2463    8.3166   -0.5592 H         1 RES1    0.0000
     38 H16        5.8471    7.1091    0.1662 H         1 RES1    0.0000
     39 H17        4.3511    9.7682    3.4458 H         1 RES1    0.0000
     40 H18        0.7787   11.2470    2.9471 H         1 RES1    0.0000
     41 H19        1.4732   11.3149    1.5718 H         1 RES1    0.0000
     42 H20        2.2076    9.2934    2.1310 H         1 RES1    0.0000
     43 H21        2.0869    9.5647    3.6574 H         1 RES1    0.0000
     44 H22        4.6830   13.4449    4.2468 H         1 RES1    0.0000
     45 H23        6.4955   12.8751    4.5944 H         1 RES1    0.0000
     46 H24        6.1377   11.5184    3.9596 H         1 RES1    0.0000
@<TRIPOS>BOND
     1    1    2 1
     2    2   23 1
     3    3    1 1
     4    4    1 1
     5    5    4 ar
     6    6    5 ar
     7    7    6 ar
     8    8    7 ar
     9    9    4 ar
    10   10    9 1
    11   11   10 1
    12   12   10 1
    13   13    1 1
    14   14   13 1
    15   15   14 1
    16   16   15 1
    17   17   16 1
    18   18   17 2
    19   19   16 1
    20   20   19 2
    21   21   19 1
    22   22   15 1
    23   24    2 1
    24   25    2 1
    25   26    3 1
    26   27    3 1
    27   28    3 1
    28   29    5 1
    29   30    6 1
    30   31    7 1
    31   32    8 1
    32   33   11 1
    33   34   11 1
    34   35   11 1
    35   36   12 1
    36   37   12 1
    37   38   12 1
    38   39   15 1
    39   40   21 1
    40   41   21 1
    41   42   22 1
    42   43   22 1
    43   44   17 1
    44   45   18 1
    45   46   18 1
    46    8    9 ar
    47   10   13 1
    48   21   22 1
@<TRIPOS>SUBSTRUCTURE
     1 RES1 1

@<TRIPOS>CRYSIN
   8.2950   13.5670   15.2940  90.0000  98.8200  90.0000  14 1

