# MOL2 file generated by ConQuest
# Please check atom types

@<TRIPOS>MOLECULE
DAPHEI
    34    36     1
SMALL
NO_CHARGES
****
Generated from CSD

@<TRIPOS>ATOM
      1 C1         0.7210    2.8565    5.6853 C.3       1 RES1    0.0000
      2 H1         1.2971    2.9915    4.8792 H         1 RES1    0.0000
      3 C2         1.5870    2.4881    6.8468 C.3       1 RES1    0.0000
      4 H2         1.1381    2.4982    7.7402 H         1 RES1    0.0000
      5 C3         2.6091    1.4107    6.6451 C.3       1 RES1    0.0000
      6 H3         2.7552    0.7702    7.3855 H         1 RES1    0.0000
      7 H4         2.7012    1.0270    5.7372 H         1 RES1    0.0000
      8 C4         3.0515    2.8248    6.8507 C.3       1 RES1    0.0000
      9 H5         3.4151    3.3118    6.0702 H         1 RES1    0.0000
     10 H6         3.4692    3.0550    7.7185 H         1 RES1    0.0000
     11 C5        -0.3319    1.8376    5.3693 C.3       1 RES1    0.0000
     12 H7        -0.8502    1.4857    6.1491 H         1 RES1    0.0000
     13 C6        -0.0641    0.8591    4.2649 C.3       1 RES1    0.0000
     14 H8         0.7923    0.9404    3.7742 H         1 RES1    0.0000
     15 H9        -0.3923   -0.0664    4.3799 H         1 RES1    0.0000
     16 C7        -1.0803    1.9418    4.0777 C.3       1 RES1    0.0000
     17 H10       -0.8518    2.6886    3.4713 H         1 RES1    0.0000
     18 H11       -2.0360    1.6818    4.0764 H         1 RES1    0.0000
     19 C8         0.6086    5.2639    5.7339 C.2       1 RES1    0.0000
     20 C9        -0.3279    6.4242    5.8287 C.ar      1 RES1    0.0000
     21 C10       -1.7052    6.2615    5.9881 C.ar      1 RES1    0.0000
     22 H12       -2.0738    5.3888    6.0637 H         1 RES1    0.0000
     23 C11       -2.5365    7.3684    6.0374 C.ar      1 RES1    0.0000
     24 H13       -3.4760    7.2668    6.1340 H         1 RES1    0.0000
     25 C12       -1.9658    8.6209    5.9415 C.ar      1 RES1    0.0000
     26 C13       -0.6070    8.8174    5.7871 C.ar      1 RES1    0.0000
     27 H14       -0.2446    9.6929    5.7280 H         1 RES1    0.0000
     28 C14        0.2105    7.7059    5.7214 C.ar      1 RES1    0.0000
     29 H15        1.1474    7.8149    5.6012 H         1 RES1    0.0000
     30 N1        -2.8463    9.8011    5.9877 N.pl3     1 RES1    0.0000
     31 O1        -0.0198    4.1036    5.9590 O.3       1 RES1    0.0000
     32 O2         1.7831    5.3732    5.4644 O.2       1 RES1    0.0000
     33 O3        -2.3283   10.9031    6.1521 O.2       1 RES1    0.0000
     34 O4        -4.0552    9.6321    5.8693 O.2       1 RES1    0.0000
@<TRIPOS>BOND
     1    1    2 1
     2    3    1 1
     3    4    3 1
     4    5    3 1
     5    6    5 1
     6    7    5 1
     7    8    3 1
     8    9    8 1
     9   10    8 1
    10   11    1 1
    11   12   11 1
    12   13   11 1
    13   14   13 1
    14   15   13 1
    15   16   11 1
    16   17   16 1
    17   18   16 1
    18   19   20 1
    19   20   21 ar
    20   21   22 1
    21   23   21 ar
    22   24   23 1
    23   25   23 ar
    24   26   25 ar
    25   27   26 1
    26   28   20 ar
    27   29   28 1
    28   30   25 1
    29   31    1 1
    30   32   19 2
    31   33   30 2
    32   34   30 2
    33    5    8 1
    34   13   16 1
    35   19   31 1
    36   26   28 ar
@<TRIPOS>SUBSTRUCTURE
     1 RES1 1

@<TRIPOS>CRYSIN
   6.9505   28.8480    7.3706  90.0000 116.9610  90.0000 231 1

