# MOL2 file generated by ConQuest
# Please check atom types

@<TRIPOS>MOLECULE
DAPJEK
    36    38     1
SMALL
NO_CHARGES
****
Generated from CSD

@<TRIPOS>ATOM
      1 C1         3.8960    1.9052    8.7990 C.3       1 RES1    0.0000
      2 C2         3.0579    1.5167    7.6420 C.3       1 RES1    0.0000
      3 C3         2.5653    2.5898    6.7104 C.3       1 RES1    0.0000
      4 C4         1.6134    1.8707    7.6123 C.3       1 RES1    0.0000
      5 C5         5.3842    1.9068    8.5906 C.3       1 RES1    0.0000
      6 C6         5.9645    1.9131    7.2113 C.3       1 RES1    0.0000
      7 C7         6.0769    0.6869    8.0631 C.3       1 RES1    0.0000
      8 C8         2.7925    1.2236   10.8399 C.2       1 RES1    0.0000
      9 C9         2.5908    0.0583   11.7636 C.ar      1 RES1    0.0000
     10 C10        2.4025   -1.2645   11.3400 C.ar      1 RES1    0.0000
     11 C11        2.3376   -2.3281   12.2146 C.ar      1 RES1    0.0000
     12 C12        2.4307   -2.0323   13.5591 C.ar      1 RES1    0.0000
     13 C13        2.5871   -0.7464   14.0375 C.ar      1 RES1    0.0000
     14 C14        2.6731    0.2916   13.1310 C.ar      1 RES1    0.0000
     15 N1         2.1876   -1.5535    9.9152 N.pl3     1 RES1    0.0000
     16 N2         2.3478   -3.1354   14.5309 N.pl3     1 RES1    0.0000
     17 O1         3.6446    0.9021    9.8750 O.3       1 RES1    0.0000
     18 O2         2.2992    2.3051   11.0251 O.2       1 RES1    0.0000
     19 O3         1.4012   -0.8435    9.3130 O.2       1 RES1    0.0000
     20 O4         2.7968   -2.4940    9.4299 O.2       1 RES1    0.0000
     21 O5         2.2595   -4.2796   14.1019 O.2       1 RES1    0.0000
     22 O6         2.3576   -2.8459   15.7160 O.2       1 RES1    0.0000
     23 H1         3.6479    2.7633    9.1834 H         1 RES1    0.0000
     24 H2         3.3137    0.5888    7.2270 H         1 RES1    0.0000
     25 H3         2.5644    2.4022    5.7775 H         1 RES1    0.0000
     26 H4         2.7823    3.5012    6.9562 H         1 RES1    0.0000
     27 H5         1.0409    1.1854    7.1122 H         1 RES1    0.0000
     28 H6         1.3052    2.3943    8.3941 H         1 RES1    0.0000
     29 H7         5.9211    2.3394    9.2827 H         1 RES1    0.0000
     30 H8         6.7701    2.4493    7.0710 H         1 RES1    0.0000
     31 H9         5.2816    1.8605    6.4262 H         1 RES1    0.0000
     32 H10        6.9368    0.4789    8.5140 H         1 RES1    0.0000
     33 H11        5.4564   -0.0942    7.8460 H         1 RES1    0.0000
     34 H12        2.2167   -3.1636   11.9135 H         1 RES1    0.0000
     35 H13        2.6271   -0.6029   14.9802 H         1 RES1    0.0000
     36 H14        2.7896    1.1540   13.4120 H         1 RES1    0.0000
@<TRIPOS>BOND
     1    1    2 1
     2    2    3 1
     3    3    4 1
     4    4    2 1
     5    5    1 1
     6    6    5 1
     7    7    5 1
     8    8    9 1
     9    9   10 ar
    10   10   11 ar
    11   11   12 ar
    12   12   13 ar
    13   13   14 ar
    14   14    9 ar
    15   15   10 1
    16   16   12 1
    17   17    1 1
    18   18    8 2
    19   19   15 2
    20   20   15 2
    21   21   16 2
    22   22   16 2
    23   23    1 1
    24   24    2 1
    25   25    3 1
    26   26    3 1
    27   27    4 1
    28   28    4 1
    29   29    5 1
    30   30    6 1
    31   31    6 1
    32   32    7 1
    33   33    7 1
    34   34   11 1
    35   35   13 1
    36   36   14 1
    37    6    7 1
    38    8   17 1
@<TRIPOS>SUBSTRUCTURE
     1 RES1 1

@<TRIPOS>CRYSIN
  14.0459    7.8502   14.2790  90.0000 115.4240  90.0000 231 1

