# MOL2 file generated by ConQuest
# Please check atom types

@<TRIPOS>MOLECULE
DAPJAG
    25    26     1
SMALL
NO_CHARGES
****
Generated from CSD

@<TRIPOS>ATOM
      1 C1         2.1410    0.6357    0.2233 C.3       1 RES1    0.0000
      2 H1         1.8182    1.5133    0.4827 H         1 RES1    0.0000
      3 H2         1.6644   -0.0311    0.7425 H         1 RES1    0.0000
      4 C2         1.9023    0.4153   -1.2295 C.3       1 RES1    0.0000
      5 H3         2.0071   -0.5042   -1.5520 H         1 RES1    0.0000
      6 C3         0.8135    1.2280   -1.8756 C.3       1 RES1    0.0000
      7 H4         0.2689    0.7975   -2.5532 H         1 RES1    0.0000
      8 H5         0.3452    1.8745   -1.3257 H         1 RES1    0.0000
      9 C4         2.2441    1.4989   -2.2008 C.3       1 RES1    0.0000
     10 H6         2.6398    2.3115   -1.8488 H         1 RES1    0.0000
     11 H7         2.5664    1.2345   -3.0775 H         1 RES1    0.0000
     12 C5         3.9913    0.6313    1.7644 C.ar      1 RES1    0.0000
     13 C6         3.1556    0.7346    2.8679 C.ar      1 RES1    0.0000
     14 H8         2.2337    0.7599    2.7530 H         1 RES1    0.0000
     15 C7         3.6949    0.7989    4.1303 C.ar      1 RES1    0.0000
     16 H9         3.1401    0.8762    4.8720 H         1 RES1    0.0000
     17 C8         5.0639    0.7476    4.2908 C.ar      1 RES1    0.0000
     18 C9         5.9092    0.6638    3.1977 C.ar      1 RES1    0.0000
     19 H10        6.8314    0.6494    3.3188 H         1 RES1    0.0000
     20 C10        5.3785    0.6003    1.9368 C.ar      1 RES1    0.0000
     21 H11        5.9395    0.5374    1.1975 H         1 RES1    0.0000
     22 N1         5.6201    0.7782    5.6302 N.pl3     1 RES1    0.0000
     23 O1         3.5618    0.5372    0.4754 O.3       1 RES1    0.0000
     24 O2         4.8516    0.8608    6.5906 O.2       1 RES1    0.0000
     25 O3         6.8445    0.6997    5.7667 O.2       1 RES1    0.0000
@<TRIPOS>BOND
     1    1    2 1
     2    3    1 1
     3    4    1 1
     4    5    4 1
     5    6    4 1
     6    7    6 1
     7    8    6 1
     8    9    4 1
     9   10    9 1
    10   11    9 1
    11   12   13 ar
    12   13   14 1
    13   15   13 ar
    14   16   15 1
    15   17   15 ar
    16   18   17 ar
    17   19   18 1
    18   20   12 ar
    19   21   20 1
    20   22   17 1
    21   23    1 1
    22   24   22 2
    23   25   22 2
    24    6    9 1
    25   12   23 1
    26   18   20 ar
@<TRIPOS>SUBSTRUCTURE
     1 RES1 1

@<TRIPOS>CRYSIN
  11.1796    7.2234   12.7450  90.0000 115.0330  90.0000  14 1

