# MOL2 file generated by ConQuest
# Please check atom types

@<TRIPOS>MOLECULE
DAPPAO
    23    23     1
SMALL
NO_CHARGES
****
Generated from CSD

@<TRIPOS>ATOM
      1 O1         3.8046    3.7617    2.9269 O.3       1 RES1    0.0000
      2 O2         6.4835    1.1032    0.8063 O.2       1 RES1    0.0000
      3 O3         4.5680    1.3726   -0.1887 O.2       1 RES1    0.0000
      4 O4         5.6153   -0.1263    3.2538 O.2       1 RES1    0.0000
      5 O5         7.5983   -0.0790    4.1548 O.2       1 RES1    0.0000
      6 O6         7.6897    3.7778    2.1210 O.2       1 RES1    0.0000
      7 O7         9.8597    3.7151    1.9753 O.2       1 RES1    0.0000
      8 N1         3.8771    3.1097    1.7278 N.2       1 RES1    0.0000
      9 N2         4.7811    3.3262    3.8063 N.2       1 RES1    0.0000
     10 N3         5.3381    1.5266    0.7376 N.pl3     1 RES1    0.0000
     11 N4         6.5687    1.8207    3.7068 N.pl3     1 RES1    0.0000
     12 N5         6.5949    0.4362    3.7058 N.pl3     1 RES1    0.0000
     13 N6         8.8404    2.6332    3.6163 N.3       1 RES1    0.0000
     14 N7         8.8023    3.4285    2.5231 N.pl3     1 RES1    0.0000
     15 C1         4.8879    2.3209    1.8606 C.2       1 RES1    0.0000
     16 C2         5.4593    2.4368    3.1470 C.2       1 RES1    0.0000
     17 C3         7.6182    2.5597    4.3848 C.3       1 RES1    0.0000
     18 C4        10.1352    2.3849    4.2300 C.3       1 RES1    0.0000
     19 H1         7.8215    2.1080    5.1989 H         1 RES1    0.0000
     20 H2         7.2535    3.4490    4.5463 H         1 RES1    0.0000
     21 H3         9.9915    1.7482    4.8948 H         1 RES1    0.0000
     22 H4        10.5031    3.1497    4.6237 H         1 RES1    0.0000
     23 H5        10.7241    2.0777    3.5950 H         1 RES1    0.0000
@<TRIPOS>BOND
     1    1    8 1
     2    2   10 2
     3    3   10 2
     4    4   12 2
     5    5   12 2
     6    6   14 2
     7    7   14 2
     8    8   15 2
     9    9    1 1
    10   10   15 1
    11   11   12 1
    12   13   14 1
    13   15   16 1
    14   16    9 2
    15   17   11 1
    16   18   13 1
    17   19   17 1
    18   20   17 1
    19   21   18 1
    20   22   18 1
    21   23   18 1
    22   11   16 1
    23   13   17 1
@<TRIPOS>SUBSTRUCTURE
     1 RES1 1

@<TRIPOS>CRYSIN
   9.3960   18.9399    5.6677  90.0000 102.6190  90.0000  14 1

