# MOL2 file generated by ConQuest
# Please check atom types

@<TRIPOS>MOLECULE
DARGIN
    33    34     1
SMALL
NO_CHARGES
****
Generated from CSD

@<TRIPOS>ATOM
      1 O1         1.6682    0.6162    1.9580 O.3       1 RES1    0.0000
      2 O2        -1.7660    0.4949    7.1460 O.2       1 RES1    0.0000
      3 O3        -2.2994    2.4753    6.4473 O.2       1 RES1    0.0000
      4 O4         1.4216    3.5884    1.8744 O.2       1 RES1    0.0000
      5 O5        -0.7424    3.7909    2.0127 O.2       1 RES1    0.0000
      6 O6         2.6621   -1.3156    3.4665 O.2       1 RES1    0.0000
      7 O7         0.9353   -2.3078    4.3283 O.2       1 RES1    0.0000
      8 O8         5.4371    1.0895    3.2223 O.2       1 RES1    0.0000
      9 O9         3.4327    1.5890    3.8688 O.2       1 RES1    0.0000
     10 O10       -0.0311    1.5175    0.1005 O.2       1 RES1    0.0000
     11 O11        0.8112    0.9567   -1.8188 O.2       1 RES1    0.0000
     12 N1        -1.6641    1.4365    6.3659 N.pl3     1 RES1    0.0000
     13 N2         0.3193    3.2603    2.3055 N.pl3     1 RES1    0.0000
     14 N3         1.5212   -1.3146    3.9176 N.pl3     1 RES1    0.0000
     15 N4         4.2783    1.3947    3.0015 N.pl3     1 RES1    0.0000
     16 N5         0.9153    1.3067   -0.6517 N.pl3     1 RES1    0.0000
     17 C1         0.9955    0.9806    3.0800 C.ar      1 RES1    0.0000
     18 C2         0.2688    2.1586    3.2709 C.ar      1 RES1    0.0000
     19 C3        -0.5825    2.3348    4.3503 C.ar      1 RES1    0.0000
     20 C4        -0.7130    1.2985    5.2539 C.ar      1 RES1    0.0000
     21 C5        -0.0369    0.1042    5.1131 C.ar      1 RES1    0.0000
     22 C6         0.8165   -0.0265    4.0370 C.ar      1 RES1    0.0000
     23 C7         2.5724    1.3149    1.1977 C.ar      1 RES1    0.0000
     24 C8         3.8822    1.5683    1.6043 C.ar      1 RES1    0.0000
     25 C9         4.8524    2.0042    0.7131 C.ar      1 RES1    0.0000
     26 C10        4.5250    2.1973   -0.6191 C.ar      1 RES1    0.0000
     27 C11        3.2339    1.9517   -1.0560 C.ar      1 RES1    0.0000
     28 C12        2.2800    1.5246   -0.1480 C.ar      1 RES1    0.0000
     29 H1        -1.0706    3.1189    4.4166 H         1 RES1    0.0000
     30 H2        -0.1678   -0.5930    5.7052 H         1 RES1    0.0000
     31 H3         5.7032    2.1640    1.0210 H         1 RES1    0.0000
     32 H4         5.1803    2.5028   -1.2436 H         1 RES1    0.0000
     33 H5         2.9699    2.1024   -1.9497 H         1 RES1    0.0000
@<TRIPOS>BOND
     1    1   17 1
     2    2   12 2
     3    3   12 2
     4    4   13 2
     5    5   13 2
     6    6   14 2
     7    7   14 2
     8    8   15 2
     9    9   15 2
    10   10   16 2
    11   11   16 2
    12   12   20 1
    13   13   18 1
    14   14   22 1
    15   15   24 1
    16   16   28 1
    17   17   18 ar
    18   18   19 ar
    19   19   20 ar
    20   20   21 ar
    21   21   22 ar
    22   22   17 ar
    23   23    1 1
    24   24   23 ar
    25   25   24 ar
    26   26   25 ar
    27   27   26 ar
    28   28   23 ar
    29   29   19 1
    30   30   21 1
    31   31   25 1
    32   32   26 1
    33   33   27 1
    34   27   28 ar
@<TRIPOS>SUBSTRUCTURE
     1 RES1 1

@<TRIPOS>CRYSIN
   8.3840    7.7010   22.5600  90.0000  94.5800  90.0000 231 1

