# MOL2 file generated by ConQuest
# Please check atom types

@<TRIPOS>MOLECULE
DARQUJ
    32    34     1
SMALL
NO_CHARGES
****
Generated from CSD

@<TRIPOS>ATOM
      1 N1         2.9937    0.7744    3.5654 N.am      1 RES1    0.0000
      2 N2         2.5337    4.3097    7.8834 N.pl3     1 RES1    0.0000
      3 O1         5.0062   -0.4481    3.6482 O.2       1 RES1    0.0000
      4 O2         1.5481    5.0321    7.9442 O.2       1 RES1    0.0000
      5 O3         3.4210    4.3172    8.7282 O.2       1 RES1    0.0000
      6 C1         3.9312   -0.1572    3.1810 C.2       1 RES1    0.0000
      7 C2         3.0790   -0.6195    2.0195 C.3       1 RES1    0.0000
      8 H1         2.7813   -1.5410    2.0857 H         1 RES1    0.0000
      9 H2         3.4601   -0.4337    1.1475 H         1 RES1    0.0000
     10 C3         2.0296    0.4249    2.4922 C.3       1 RES1    0.0000
     11 H3         1.2272   -0.0058    2.8532 H         1 RES1    0.0000
     12 C4         1.6843    1.5123    1.5205 C.ar      1 RES1    0.0000
     13 C5         2.5768    2.5104    1.1745 C.ar      1 RES1    0.0000
     14 H4         3.3987    2.5639    1.6072 H         1 RES1    0.0000
     15 C6         2.2581    3.4271    0.1917 C.ar      1 RES1    0.0000
     16 H5         2.8678    4.0934   -0.0310 H         1 RES1    0.0000
     17 C7         1.0485    3.3659   -0.4623 C.ar      1 RES1    0.0000
     18 H6         0.8442    3.9783   -1.1320 H         1 RES1    0.0000
     19 C8         0.1491    2.3922   -0.1133 C.ar      1 RES1    0.0000
     20 H7        -0.6736    2.3471   -0.5450 H         1 RES1    0.0000
     21 C9         0.4568    1.4781    0.8758 C.ar      1 RES1    0.0000
     22 H8        -0.1675    0.8310    1.1121 H         1 RES1    0.0000
     23 C10        2.8863    1.6489    4.6415 C.ar      1 RES1    0.0000
     24 C11        3.9272    1.7663    5.5660 C.ar      1 RES1    0.0000
     25 H9         4.7003    1.2589    5.4639 H         1 RES1    0.0000
     26 C12        3.8084    2.6319    6.6253 C.ar      1 RES1    0.0000
     27 H10        4.4958    2.7136    7.2461 H         1 RES1    0.0000
     28 C13        2.6561    3.3799    6.7576 C.ar      1 RES1    0.0000
     29 C14        1.6176    3.2742    5.8603 C.ar      1 RES1    0.0000
     30 H11        0.8473    3.7825    5.9723 H         1 RES1    0.0000
     31 C15        1.7295    2.4087    4.7969 C.ar      1 RES1    0.0000
     32 H12        1.0347    2.3317    4.1835 H         1 RES1    0.0000
@<TRIPOS>BOND
     1    1    6 1
     2    2    4 2
     3    3    6 2
     4    5    2 2
     5    6    7 1
     6    7    8 1
     7    9    7 1
     8   10    1 1
     9   11   10 1
    10   12   10 1
    11   13   12 ar
    12   14   13 1
    13   15   13 ar
    14   16   15 1
    15   17   15 ar
    16   18   17 1
    17   19   17 ar
    18   20   19 1
    19   21   12 ar
    20   22   21 1
    21   23    1 1
    22   24   23 ar
    23   25   24 1
    24   26   24 ar
    25   27   26 1
    26   28    2 1
    27   29   28 ar
    28   30   29 1
    29   31   23 ar
    30   32   31 1
    31    7   10 1
    32   19   21 ar
    33   26   28 ar
    34   29   31 ar
@<TRIPOS>SUBSTRUCTURE
     1 RES1 1

@<TRIPOS>CRYSIN
   6.0918   19.1910   11.1208  90.0000  95.1300  90.0000 231 1

