# MOL2 file generated by ConQuest
# Please check atom types

@<TRIPOS>MOLECULE
DARRAQ
    34    36     1
SMALL
NO_CHARGES
****
Generated from CSD

@<TRIPOS>ATOM
      1 N1         1.1422    7.6478    2.2441 N.am      1 RES1    0.0000
      2 N2         2.6399    5.8893    0.3663 N.pl3     1 RES1    0.0000
      3 N3         4.7660    3.8185    4.1920 N.pl3     1 RES1    0.0000
      4 O1         1.8767    8.6292    0.2382 O.2       1 RES1    0.0000
      5 O2         3.6242    5.8322   -0.3428 O.2       1 RES1    0.0000
      6 O3         1.4839    5.8636   -0.0516 O.2       1 RES1    0.0000
      7 O4         4.7018    3.5436    5.3781 O.2       1 RES1    0.0000
      8 O5         5.5389    3.2998    3.4121 O.2       1 RES1    0.0000
      9 C1         1.1526    8.5489    1.1922 C.2       1 RES1    0.0000
     10 C2         0.0279    9.3520    1.7866 C.3       1 RES1    0.0000
     11 H1        -0.8213    9.2469    1.3289 H         1 RES1    0.0000
     12 H2         0.2391   10.2881    1.9306 H         1 RES1    0.0000
     13 C3         0.1847    8.4643    3.0471 C.3       1 RES1    0.0000
     14 H3         0.6491    8.9481    3.7609 H         1 RES1    0.0000
     15 C4        -1.0178    7.7368    3.5831 C.ar      1 RES1    0.0000
     16 C5        -1.4121    7.9491    4.8977 C.ar      1 RES1    0.0000
     17 H4        -0.9122    8.5106    5.4454 H         1 RES1    0.0000
     18 C6        -2.5486    7.3280    5.3977 C.ar      1 RES1    0.0000
     19 H5        -2.8116    7.4795    6.2770 H         1 RES1    0.0000
     20 C7        -3.2865    6.4890    4.5962 C.ar      1 RES1    0.0000
     21 H6        -4.0477    6.0742    4.9334 H         1 RES1    0.0000
     22 C8        -2.8970    6.2618    3.2895 C.ar      1 RES1    0.0000
     23 H7        -3.3954    5.6927    2.7488 H         1 RES1    0.0000
     24 C9        -1.7678    6.8796    2.7846 C.ar      1 RES1    0.0000
     25 H8        -1.5079    6.7207    1.9052 H         1 RES1    0.0000
     26 C10        2.0327    6.6712    2.6717 C.ar      1 RES1    0.0000
     27 C11        2.8296    5.9006    1.8184 C.ar      1 RES1    0.0000
     28 C12        3.7641    5.0070    2.3029 C.ar      1 RES1    0.0000
     29 H9         4.3243    4.5403    1.7247 H         1 RES1    0.0000
     30 C13        3.8427    4.8273    3.6603 C.ar      1 RES1    0.0000
     31 C14        3.0642    5.5379    4.5405 C.ar      1 RES1    0.0000
     32 H10        3.1332    5.3929    5.4561 H         1 RES1    0.0000
     33 C15        2.1775    6.4720    4.0424 C.ar      1 RES1    0.0000
     34 H11        1.6670    6.9777    4.6339 H         1 RES1    0.0000
@<TRIPOS>BOND
     1    1    9 1
     2    2    5 2
     3    3    7 2
     4    4    9 2
     5    6    2 2
     6    8    3 2
     7    9   10 1
     8   10   11 1
     9   12   10 1
    10   13    1 1
    11   14   13 1
    12   15   13 1
    13   16   15 ar
    14   17   16 1
    15   18   16 ar
    16   19   18 1
    17   20   18 ar
    18   21   20 1
    19   22   20 ar
    20   23   22 1
    21   24   15 ar
    22   25   24 1
    23   26    1 1
    24   27    2 1
    25   28   27 ar
    26   29   28 1
    27   30    3 1
    28   31   30 ar
    29   32   31 1
    30   33   26 ar
    31   34   33 1
    32   10   13 1
    33   22   24 ar
    34   26   27 ar
    35   28   30 ar
    36   31   33 ar
@<TRIPOS>SUBSTRUCTURE
     1 RES1 1

@<TRIPOS>CRYSIN
  10.3635   10.1984   13.3860  90.0000  92.8350  90.0000  14 1

