# MOL2 file generated by ConQuest
# Please check atom types

@<TRIPOS>MOLECULE
DARYUQ
    42    45     1
SMALL
NO_CHARGES
****
Generated from CSD

@<TRIPOS>ATOM
      1 O1        -0.5497    3.7383    1.9738 O.3       1 RES1    0.0000
      2 O2         2.8358    9.3395    0.9423 O.2       1 RES1    0.0000
      3 O3         3.3057    9.6355    3.0319 O.2       1 RES1    0.0000
      4 N1         1.5564    3.6313    2.9578 N.3       1 RES1    0.0000
      5 N2         2.9506    8.9252    2.0920 N.pl3     1 RES1    0.0000
      6 C1         0.8204    3.3128    1.7455 C.3       1 RES1    0.0000
      7 C2         1.4119    4.2966    0.6861 C.3       1 RES1    0.0000
      8 C3         2.6669    3.7034    0.0081 C.3       1 RES1    0.0000
      9 C4         0.4089    4.7029   -0.3917 C.3       1 RES1    0.0000
     10 C5         1.8559    5.4267    1.5901 C.ar      1 RES1    0.0000
     11 C6         2.1944    6.7280    1.2934 C.ar      1 RES1    0.0000
     12 C7         2.6341    7.5216    2.3481 C.ar      1 RES1    0.0000
     13 C8         2.7706    7.0578    3.6381 C.ar      1 RES1    0.0000
     14 C9         2.4158    5.7532    3.9371 C.ar      1 RES1    0.0000
     15 C10        1.9569    4.9506    2.9021 C.ar      1 RES1    0.0000
     16 C11        0.9126    1.8438    1.4488 C.2       1 RES1    0.0000
     17 C12       -0.1354    1.0401    1.4372 C.2       1 RES1    0.0000
     18 C13       -1.4770    1.5421    1.6608 C.ar      1 RES1    0.0000
     19 C14       -2.6196    0.7452    1.6307 C.ar      1 RES1    0.0000
     20 C15       -3.8707    1.3035    1.8347 C.ar      1 RES1    0.0000
     21 C16       -3.9841    2.6621    2.0677 C.ar      1 RES1    0.0000
     22 C17       -2.8680    3.4704    2.1094 C.ar      1 RES1    0.0000
     23 C18       -1.6179    2.8974    1.9147 C.ar      1 RES1    0.0000
     24 C19        1.1856    3.0021    4.2199 C.3       1 RES1    0.0000
     25 H1         2.1527    7.0916    0.3604 H         1 RES1    0.0000
     26 H2         3.0872    7.6161    4.3497 H         1 RES1    0.0000
     27 H3         2.5092    5.4121    4.8701 H         1 RES1    0.0000
     28 H4         1.8259    1.5545    1.3294 H         1 RES1    0.0000
     29 H5        -0.0529    0.0878    1.2633 H         1 RES1    0.0000
     30 H6        -2.7177    0.1925    1.4511 H         1 RES1    0.0000
     31 H7        -4.7157    0.6934    1.8567 H         1 RES1    0.0000
     32 H8        -4.9244    3.0708    2.2091 H         1 RES1    0.0000
     33 H9        -2.8913    4.4001    2.3389 H         1 RES1    0.0000
     34 H10        2.3546    2.9503   -0.6259 H         1 RES1    0.0000
     35 H11        3.2968    3.3949    0.6595 H         1 RES1    0.0000
     36 H12        3.0737    4.3810   -0.5957 H         1 RES1    0.0000
     37 H13        0.8409    5.2489   -1.1115 H         1 RES1    0.0000
     38 H14        0.0406    3.9116   -0.9515 H         1 RES1    0.0000
     39 H15       -0.3434    5.1329   -0.0081 H         1 RES1    0.0000
     40 H16        1.9319    3.1372    4.8713 H         1 RES1    0.0000
     41 H17        1.0390    2.0318    4.0136 H         1 RES1    0.0000
     42 H18        0.3189    3.4141    4.5155 H         1 RES1    0.0000
@<TRIPOS>BOND
     1    1    6 1
     2    2    5 2
     3    3    5 2
     4    4    6 1
     5    5   12 1
     6    6    7 1
     7    7    8 1
     8    8   34 1
     9    9    7 1
    10   10    7 1
    11   11   10 ar
    12   12   11 ar
    13   13   12 ar
    14   14   13 ar
    15   15    4 1
    16   16    6 1
    17   17   16 2
    18   18   17 1
    19   19   18 ar
    20   20   19 ar
    21   21   20 ar
    22   22   21 ar
    23   23    1 1
    24   24    4 1
    25   25   11 1
    26   26   13 1
    27   27   14 1
    28   28   16 1
    29   29   17 1
    30   30   19 1
    31   31   20 1
    32   32   21 1
    33   33   22 1
    34   35    8 1
    35   36    8 1
    36   37    9 1
    37   38    9 1
    38   39    9 1
    39   40   24 1
    40   41   24 1
    41   42   24 1
    42   10   15 ar
    43   14   15 ar
    44   18   23 ar
    45   22   23 ar
@<TRIPOS>SUBSTRUCTURE
     1 RES1 1

@<TRIPOS>CRYSIN
  12.4620   11.9690   11.5900  90.0000  90.0000 109.8700  14 3

