# MOL2 file generated by ConQuest
# Please check atom types

@<TRIPOS>MOLECULE
DARYUQ01
    42    45     1
SMALL
NO_CHARGES
****
Generated from CSD

@<TRIPOS>ATOM
      1 O1         5.6889    3.8212    3.7384 O.3       1 RES1    0.0000
      2 N1         7.7990    2.8384    3.6311 N.3       1 RES1    0.0000
      3 O2         9.5512    2.7627    9.6334 O.2       1 RES1    0.0000
      4 O3         9.0774    4.8496    9.3418 O.2       1 RES1    0.0000
      5 N2         9.1972    3.7041    8.9184 N.pl3     1 RES1    0.0000
      6 C1         8.1937    2.8944    4.9483 C.ar      1 RES1    0.0000
      7 C2         4.6167    3.8830    2.8968 C.ar      1 RES1    0.0000
      8 C3         8.0976    4.2092    5.4271 C.ar      1 RES1    0.0000
      9 C4         4.7591    4.1344    1.5353 C.ar      1 RES1    0.0000
     10 C5         8.6583    1.8653    5.7529 C.ar      1 RES1    0.0000
     11 H1         8.7340    0.9993    5.4239 H         1 RES1    0.0000
     12 C6         9.0054    2.1597    7.0529 C.ar      1 RES1    0.0000
     13 H2         9.3260    1.4885    7.6114 H         1 RES1    0.0000
     14 C7         8.4371    4.4956    6.7194 C.ar      1 RES1    0.0000
     15 H3         8.3764    5.3626    7.0499 H         1 RES1    0.0000
     16 C8         8.8778    3.4479    7.5267 C.ar      1 RES1    0.0000
     17 C9         3.3789    3.6871    3.4623 C.ar      1 RES1    0.0000
     18 H4         3.2977    3.5299    4.3751 H         1 RES1    0.0000
     19 C10        7.6541    5.1092    4.2972 C.3       1 RES1    0.0000
     20 C11        7.0571    4.0520    3.3074 C.3       1 RES1    0.0000
     21 C12        6.0954    4.3586    1.0389 C.2       1 RES1    0.0000
     22 H5         6.2204    4.5152    0.1305 H         1 RES1    0.0000
     23 C13        3.6025    4.1663    0.7536 C.ar      1 RES1    0.0000
     24 H6         3.6741    4.3286   -0.1598 H         1 RES1    0.0000
     25 C14        7.1479    4.3470    1.8430 C.2       1 RES1    0.0000
     26 H7         7.9843    4.5315    1.4798 H         1 RES1    0.0000
     27 C15        2.2530    3.7275    2.6552 C.ar      1 RES1    0.0000
     28 H8         1.4125    3.5936    3.0304 H         1 RES1    0.0000
     29 C16        7.4299    1.5844    2.9929 C.3       1 RES1    0.0000
     30 H9         8.1359    0.9448    3.1114 H         1 RES1    0.0000
     31 H10        7.2862    1.7331    2.0559 H         1 RES1    0.0000
     32 H11        6.6236    1.2485    3.3905 H         1 RES1    0.0000
     33 C17        2.3650    3.9626    1.3042 C.ar      1 RES1    0.0000
     34 H12        1.6056    3.9831    0.7686 H         1 RES1    0.0000
     35 C18        8.9020    5.7860    3.7024 C.3       1 RES1    0.0000
     36 H13        9.3100    6.3468    4.3672 H         1 RES1    0.0000
     37 H14        8.6471    6.3202    2.9460 H         1 RES1    0.0000
     38 H15        9.5273    5.1134    3.4231 H         1 RES1    0.0000
     39 C19        6.6439    6.1821    4.7030 C.3       1 RES1    0.0000
     40 H16        5.9043    5.7707    5.1549 H         1 RES1    0.0000
     41 H17        6.3266    6.6366    3.9194 H         1 RES1    0.0000
     42 H18        7.0664    6.8140    5.2900 H         1 RES1    0.0000
@<TRIPOS>BOND
     1    1    7 1
     2    2    6 1
     3    3    5 2
     4    4    5 2
     5    5   16 1
     6    6    8 ar
     7    7    9 ar
     8    8   14 ar
     9    9   21 1
    10   10    6 ar
    11   11   10 1
    12   12   10 ar
    13   13   12 1
    14   14   15 1
    15   16   12 ar
    16   17    7 ar
    17   18   17 1
    18   19    8 1
    19   20    1 1
    20   21   22 1
    21   23    9 ar
    22   24   23 1
    23   25   20 1
    24   26   25 1
    25   27   17 ar
    26   28   27 1
    27   29    2 1
    28   30   29 1
    29   31   29 1
    30   32   29 1
    31   33   23 ar
    32   34   33 1
    33   35   19 1
    34   36   35 1
    35   37   35 1
    36   38   35 1
    37   39   19 1
    38   40   39 1
    39   41   39 1
    40   42   39 1
    41    2   20 1
    42   14   16 ar
    43   19   20 1
    44   21   25 2
    45   27   33 ar
@<TRIPOS>SUBSTRUCTURE
     1 RES1 1

@<TRIPOS>CRYSIN
  12.4703   11.5924   11.9637  90.0000 109.8500  90.0000  14 1

