# MOL2 file generated by ConQuest
# Please check atom types

@<TRIPOS>MOLECULE
DASQET
    42    43     1
SMALL
NO_CHARGES
****
Generated from CSD

@<TRIPOS>ATOM
      1 C1         2.0706  -10.1167   -9.2740 C.ar      1 RES1    0.0000
      2 C2         4.6034   -8.7518  -12.3845 C.2       1 RES1    0.0000
      3 C3         3.7109   -9.2900  -11.3293 C.ar      1 RES1    0.0000
      4 O1         6.6969   -7.5195  -13.8152 O.2       1 RES1    0.0000
      5 C4         4.0809  -10.3458  -10.4980 C.ar      1 RES1    0.0000
      6 O2         1.5929  -11.3993   -7.4174 O.2       1 RES1    0.0000
      7 C5         6.1523   -8.5435  -14.2067 C.2       1 RES1    0.0000
      8 C6         3.2593  -10.7602   -9.4669 C.ar      1 RES1    0.0000
      9 N1         1.2172  -10.4960   -8.1488 N.pl3     1 RES1    0.0000
     10 C7         5.5150  -10.8939  -13.4374 C.3       1 RES1    0.0000
     11 C8         7.0808   -8.1093  -16.5376 C.3       1 RES1    0.0000
     12 C9         5.3777   -9.3898  -13.2491 C.2       1 RES1    0.0000
     13 C10        5.3367  -11.2250  -14.9301 C.3       1 RES1    0.0000
     14 C11        6.2854  -10.4730  -15.8200 C.3       1 RES1    0.0000
     15 O3         0.1632   -9.9073   -7.9869 O.2       1 RES1    0.0000
     16 C12        2.5020   -8.6531  -11.0997 C.ar      1 RES1    0.0000
     17 C13        6.8501  -11.3895  -12.9207 C.3       1 RES1    0.0000
     18 C14        6.1380   -8.9447  -15.6604 C.3       1 RES1    0.0000
     19 C15        1.6629   -9.0489  -10.0721 C.ar      1 RES1    0.0000
     20 C16        8.5403   -8.4558  -16.3367 C.3       1 RES1    0.0000
     21 C17        6.6837   -8.2124  -18.0107 C.3       1 RES1    0.0000
     22 H1         7.5066  -11.1713  -13.3192 H         1 RES1    0.0000
     23 H2         8.6883   -8.4525  -15.4089 H         1 RES1    0.0000
     24 H3         3.5570  -11.4015   -8.7608 H         1 RES1    0.0000
     25 H4         2.1657   -7.9153  -11.7232 H         1 RES1    0.0000
     26 H5         4.5610  -11.0726  -15.0530 H         1 RES1    0.0000
     27 H6         7.1288  -10.7218  -15.7304 H         1 RES1    0.0000
     28 H7         5.0183  -10.7986  -10.6553 H         1 RES1    0.0000
     29 H8         5.7567   -7.9372  -18.1416 H         1 RES1    0.0000
     30 H9         4.5800   -7.6193  -12.4465 H         1 RES1    0.0000
     31 H10        6.9565   -7.1479  -16.0978 H         1 RES1    0.0000
     32 H11        4.8434  -11.3577  -12.8599 H         1 RES1    0.0000
     33 H12        5.3711  -12.3114  -15.1907 H         1 RES1    0.0000
     34 H13        0.6431   -8.7814   -9.8057 H         1 RES1    0.0000
     35 H14        5.9457  -10.6341  -16.8671 H         1 RES1    0.0000
     36 H15        5.1828   -8.6827  -15.9141 H         1 RES1    0.0000
     37 H16        7.1895   -7.5316  -18.4746 H         1 RES1    0.0000
     38 H17        6.9040  -11.3686  -11.9298 H         1 RES1    0.0000
     39 H18        8.6497   -9.2857  -16.7408 H         1 RES1    0.0000
     40 H19        9.0423   -7.8934  -16.9016 H         1 RES1    0.0000
     41 H20        7.1998  -12.3772  -13.2732 H         1 RES1    0.0000
     42 H21        6.7540   -9.0116  -18.2679 H         1 RES1    0.0000
@<TRIPOS>BOND
     1    1    8 ar
     2    2    3 1
     3    3    5 ar
     4    4    7 2
     5    5    8 ar
     6    6    9 2
     7    7   12 1
     8    8   24 1
     9    9    1 1
    10   10   12 1
    11   11   18 1
    12   12    2 2
    13   13   10 1
    14   14   13 1
    15   15    9 2
    16   16    3 ar
    17   17   10 1
    18   18    7 1
    19   19    1 ar
    20   20   11 1
    21   21   11 1
    22   22   17 1
    23   23   20 1
    24   25   16 1
    25   26   13 1
    26   27   14 1
    27   28    5 1
    28   29   21 1
    29   30    2 1
    30   31   11 1
    31   32   10 1
    32   33   13 1
    33   34   19 1
    34   35   14 1
    35   36   18 1
    36   37   21 1
    37   38   17 1
    38   39   20 1
    39   40   20 1
    40   41   17 1
    41   42   21 1
    42   14   18 1
    43   16   19 ar
@<TRIPOS>SUBSTRUCTURE
     1 RES1 1

@<TRIPOS>CRYSIN
   6.1380   10.9630   11.8810  90.0000 104.8900  90.0000   4 1

