# MOL2 file generated by ConQuest
# Please check atom types

@<TRIPOS>MOLECULE
DASRUL
    64    65     1
SMALL
NO_CHARGES
****
Generated from CSD

@<TRIPOS>ATOM
      1 O1        11.1058   16.4404   -0.0561 O.3       1 RES1    0.0000
      2 H1        11.1734   15.9460   -0.7319 H         1 RES1    0.0000
      3 O2        16.2118   14.6985    3.0416 O.2       1 RES1    0.0000
      4 O3        15.4325   16.1929    4.3799 O.2       1 RES1    0.0000
      5 N1        12.0295   14.6266   -1.5983 N.2       1 RES1    0.0000
      6 N2        15.3813   15.5313    3.3484 N.pl3     1 RES1    0.0000
      7 C1        12.1385   16.2140    0.7675 C.ar      1 RES1    0.0000
      8 C2        13.0943   15.2399    0.4485 C.ar      1 RES1    0.0000
      9 C3        14.1640   15.0060    1.3057 C.ar      1 RES1    0.0000
     10 H2        14.8201   14.3510    1.1008 H         1 RES1    0.0000
     11 C4        14.2418   15.7482    2.4514 C.ar      1 RES1    0.0000
     12 C5        13.3099   16.7116    2.7888 C.ar      1 RES1    0.0000
     13 H3        13.4265   17.2029    3.5941 H         1 RES1    0.0000
     14 C6        12.2110   16.9817    1.9866 C.ar      1 RES1    0.0000
     15 C7        12.9735   14.4445   -0.7706 C.2       1 RES1    0.0000
     16 H4        13.6218   13.7725   -0.9490 H         1 RES1    0.0000
     17 C8        11.9986   13.7938   -2.8092 C.3       1 RES1    0.0000
     18 H5        11.0666   13.5237   -3.0029 H         1 RES1    0.0000
     19 H6        12.5339   12.9729   -2.6624 H         1 RES1    0.0000
     20 C9        11.1685   18.0216    2.3536 C.3       1 RES1    0.0000
     21 C10        9.8081   17.3156    2.4983 C.3       1 RES1    0.0000
     22 H7         9.6042   16.8264    1.6747 H         1 RES1    0.0000
     23 H8         9.1106   17.9834    2.6604 H         1 RES1    0.0000
     24 H9         9.8424   16.6903    3.2505 H         1 RES1    0.0000
     25 C11       11.0728   19.1148    1.2884 C.3       1 RES1    0.0000
     26 H10       11.9261   19.5933    1.2313 H         1 RES1    0.0000
     27 H11       10.3618   19.7464    1.5310 H         1 RES1    0.0000
     28 H12       10.8640   18.7107    0.4200 H         1 RES1    0.0000
     29 C12       11.4976   18.6894    3.6797 C.3       1 RES1    0.0000
     30 H13       11.5295   18.0131    4.3881 H         1 RES1    0.0000
     31 H14       10.8039   19.3508    3.8917 H         1 RES1    0.0000
     32 H15       12.3669   19.1360    3.6144 H         1 RES1    0.0000
     33 O1O       13.4512   11.9155   -6.7393 O.3       1 RES1    0.0000
     34 H1O       13.3836   12.4100   -6.0635 H         1 RES1    0.0000
     35 O2O        8.3452   13.6575   -9.8369 O.2       1 RES1    0.0000
     36 O3O        9.1245   12.1631  -11.1753 O.2       1 RES1    0.0000
     37 N1O       12.5275   13.7294   -5.1971 N.2       1 RES1    0.0000
     38 N2O        9.1757   12.8247  -10.1437 N.pl3     1 RES1    0.0000
     39 C1O       12.4185   12.1420   -7.5629 C.ar      1 RES1    0.0000
     40 C2O       11.4627   13.1161   -7.2438 C.ar      1 RES1    0.0000
     41 C3O       10.3930   13.3500   -8.1011 C.ar      1 RES1    0.0000
     42 H2O        9.7369   14.0050   -7.8962 H         1 RES1    0.0000
     43 C4O       10.3152   12.6078   -9.2467 C.ar      1 RES1    0.0000
     44 C5O       11.2471   11.6444   -9.5841 C.ar      1 RES1    0.0000
     45 H3O       11.1305   11.1531  -10.3894 H         1 RES1    0.0000
     46 C6O       12.3460   11.3743   -8.7819 C.ar      1 RES1    0.0000
     47 C7O       11.5835   13.9114   -6.0247 C.2       1 RES1    0.0000
     48 H4O       10.9352   14.5835   -5.8464 H         1 RES1    0.0000
     49 C8O       12.5584   14.5622   -3.9861 C.3       1 RES1    0.0000
     50 H5O       13.4904   14.8323   -3.7925 H         1 RES1    0.0000
     51 H6O       12.0231   15.3831   -4.1329 H         1 RES1    0.0000
     52 C9O       13.3885   10.3343   -9.1489 C.3       1 RES1    0.0000
     53 C10O      14.7489   11.0404   -9.2936 C.3       1 RES1    0.0000
     54 H7O       14.9528   11.5295   -8.4700 H         1 RES1    0.0000
     55 H8O       15.4464   10.3726   -9.4557 H         1 RES1    0.0000
     56 H9O       14.7146   11.6657  -10.0459 H         1 RES1    0.0000
     57 C11O      13.4842    9.2412   -8.0837 C.3       1 RES1    0.0000
     58 H10O      12.6309    8.7627   -8.0266 H         1 RES1    0.0000
     59 H11O      14.1952    8.6096   -8.3263 H         1 RES1    0.0000
     60 H12O      13.6930    9.6453   -7.2153 H         1 RES1    0.0000
     61 C12O      13.0594    9.6666  -10.4750 C.3       1 RES1    0.0000
     62 H13O      13.0275   10.3428  -11.1834 H         1 RES1    0.0000
     63 H14O      13.7531    9.0052  -10.6870 H         1 RES1    0.0000
     64 H15O      12.1901    9.2199  -10.4098 H         1 RES1    0.0000
@<TRIPOS>BOND
     1    1    2 1
     2    3    6 2
     3    4    6 2
     4    5   15 2
     5    6   11 1
     6    7    1 1
     7    8    7 ar
     8    9    8 ar
     9   10    9 1
    10   11    9 ar
    11   12   11 ar
    12   13   12 1
    13   14    7 ar
    14   15    8 1
    15   16   15 1
    16   17    5 1
    17   18   17 1
    18   19   17 1
    19   20   14 1
    20   21   20 1
    21   22   21 1
    22   23   21 1
    23   24   21 1
    24   25   20 1
    25   26   25 1
    26   27   25 1
    27   28   25 1
    28   29   20 1
    29   30   29 1
    30   31   29 1
    31   32   29 1
    32   33   34 1
    33   35   38 2
    34   36   38 2
    35   37   47 2
    36   38   43 1
    37   39   33 1
    38   40   39 ar
    39   41   40 ar
    40   42   41 1
    41   43   41 ar
    42   44   43 ar
    43   45   44 1
    44   46   39 ar
    45   47   40 1
    46   48   47 1
    47   49   17 1
    48   50   49 1
    49   51   49 1
    50   52   46 1
    51   53   52 1
    52   54   53 1
    53   55   53 1
    54   56   53 1
    55   57   52 1
    56   58   57 1
    57   59   57 1
    58   60   57 1
    59   61   52 1
    60   62   61 1
    61   63   61 1
    62   64   61 1
    63   12   14 ar
    64   37   49 1
    65   44   46 ar
@<TRIPOS>SUBSTRUCTURE
     1 RES1 1

@<TRIPOS>CRYSIN
  24.5570   24.5570   10.1930  90.0000  90.0000 120.0000 233 1

