# MOL2 file generated by ConQuest
# Please check atom types

@<TRIPOS>MOLECULE
DATFOW
    45    48     1
SMALL
NO_CHARGES
****
Generated from CSD

@<TRIPOS>ATOM
      1 O1         6.4488    6.4498   18.6232 O.2       1 RES1    0.0000
      2 O2         6.9057    5.0198   17.0850 O.2       1 RES1    0.0000
      3 O3         4.4137    5.2797   20.4838 O.2       1 RES1    0.0000
      4 N1         6.6087    4.7459   20.5882 N.am      1 RES1    0.0000
      5 N2         6.6647    5.3286   18.2366 N.pl3     1 RES1    0.0000
      6 N3         7.0507    1.5286   21.9714 N.1       1 RES1    0.0000
      7 N4         9.4179    0.2512   18.7305 N.1       1 RES1    0.0000
      8 C1         6.6237    4.1699   19.2634 C.3       1 RES1    0.0000
      9 C2         7.9809    3.4354   19.1940 C.3       1 RES1    0.0000
     10 H1         8.3977    3.5428   18.2921 H         1 RES1    0.0000
     11 C3         8.7958    4.1239   20.2433 C.ar      1 RES1    0.0000
     12 C4         7.9607    4.9049   21.0375 C.ar      1 RES1    0.0000
     13 C5         5.5109    3.1351   18.9202 C.3       1 RES1    0.0000
     14 H2         4.9895    2.9713   19.7590 H         1 RES1    0.0000
     15 C6         6.2732    1.8465   18.6010 C.3       1 RES1    0.0000
     16 H3         6.4833    1.7908   17.6347 H         1 RES1    0.0000
     17 H4         5.7447    1.0503   18.8604 H         1 RES1    0.0000
     18 C7         7.5647    1.9504   19.4418 C.3       1 RES1    0.0000
     19 C8        10.1674    4.1159   20.4471 C.ar      1 RES1    0.0000
     20 H5        10.7372    3.5824   19.9043 H         1 RES1    0.0000
     21 C9        10.6867    4.9029   21.4587 C.ar      1 RES1    0.0000
     22 H6        11.6205    4.8945   21.6288 H         1 RES1    0.0000
     23 C10        9.8573    5.7005   22.2218 C.ar      1 RES1    0.0000
     24 H7        10.2368    6.2462   22.9007 H         1 RES1    0.0000
     25 C11        8.4766    5.7264   22.0226 C.ar      1 RES1    0.0000
     26 H8         7.9123    6.2865   22.5439 H         1 RES1    0.0000
     27 C12        5.4254    5.2056   21.1577 C.2       1 RES1    0.0000
     28 C13        5.4502    5.5509   22.6017 C.ar      1 RES1    0.0000
     29 C14        6.0028    4.6905   23.5469 C.ar      1 RES1    0.0000
     30 H9         6.3597    3.8511   23.2806 H         1 RES1    0.0000
     31 C15        6.0282    5.0703   24.8782 C.ar      1 RES1    0.0000
     32 H10        6.4019    4.4873   25.5271 H         1 RES1    0.0000
     33 C16        5.5138    6.2896   25.2671 C.ar      1 RES1    0.0000
     34 H11        5.5548    6.5529   26.1779 H         1 RES1    0.0000
     35 C17        4.9407    7.1237   24.3348 C.ar      1 RES1    0.0000
     36 H12        4.5735    7.9563   24.6087 H         1 RES1    0.0000
     37 C18        4.8954    6.7569   22.9985 C.ar      1 RES1    0.0000
     38 H13        4.4860    7.3284   22.3589 H         1 RES1    0.0000
     39 C19        4.5326    3.5549   17.8623 C.2       1 RES1    0.0000
     40 H14        4.0233    4.3374   18.0378 H         1 RES1    0.0000
     41 C20        4.3103    2.9507   16.7216 C.2       1 RES1    0.0000
     42 H15        4.7935    2.1638   16.4983 H         1 RES1    0.0000
     43 H16        3.6660    3.2993   16.1184 H         1 RES1    0.0000
     44 C21        7.2836    1.7047   20.8716 C.1       1 RES1    0.0000
     45 C22        8.6127    0.9983   19.0216 C.1       1 RES1    0.0000
@<TRIPOS>BOND
     1    1    5 2
     2    2    5 2
     3    3   27 2
     4    4    8 1
     5    5    8 1
     6    6   44 3
     7    7   45 3
     8    8    9 1
     9    9   10 1
    10   11    9 1
    11   12    4 1
    12   13    8 1
    13   14   13 1
    14   15   13 1
    15   16   15 1
    16   17   15 1
    17   18    9 1
    18   19   11 ar
    19   20   19 1
    20   21   19 ar
    21   22   21 1
    22   23   21 ar
    23   24   23 1
    24   25   12 ar
    25   26   25 1
    26   27    4 1
    27   28   27 1
    28   29   28 ar
    29   30   29 1
    30   31   29 ar
    31   32   31 1
    32   33   31 ar
    33   34   33 1
    34   35   33 ar
    35   36   35 1
    36   37   28 ar
    37   38   37 1
    38   39   13 1
    39   40   39 1
    40   41   39 2
    41   42   41 1
    42   43   41 1
    43   44   18 1
    44   45   18 1
    45   11   12 ar
    46   15   18 1
    47   23   25 ar
    48   35   37 ar
@<TRIPOS>SUBSTRUCTURE
     1 RES1 1

@<TRIPOS>CRYSIN
  15.0740    7.6108   33.0362  90.0000  90.0000  90.0000  61 1

