# MOL2 file generated by ConQuest
# Please check atom types

@<TRIPOS>MOLECULE
DATGEL
    22    22     1
SMALL
NO_CHARGES
****
Generated from CSD

@<TRIPOS>ATOM
      1 C1         5.1170    6.9909    0.9954 C.ar      1 RES1    0.0000
      2 C2         5.6203    7.0551   -0.3340 C.ar      1 RES1    0.0000
      3 C3         5.8233    5.8182   -1.0287 C.ar      1 RES1    0.0000
      4 C4         5.4997    4.6159   -0.4158 C.ar      1 RES1    0.0000
      5 C5         5.0078    4.5980    0.9130 C.ar      1 RES1    0.0000
      6 H1         4.8075    3.7861    1.3208 H         1 RES1    0.0000
      7 C6         4.8242    5.7634    1.6004 C.ar      1 RES1    0.0000
      8 H2         4.5038    5.7417    2.4731 H         1 RES1    0.0000
      9 N1         4.8517    8.1768    1.7801 N.pl3     1 RES1    0.0000
     10 O1         5.0936    9.3032    1.3163 O.2       1 RES1    0.0000
     11 O2         4.3671    8.0369    2.9145 O.2       1 RES1    0.0000
     12 N2         5.8971    8.2232   -0.9714 N.3       1 RES1    0.0000
     13 H3         5.7670    8.9850   -0.5638 H         1 RES1    0.0000
     14 H4         6.2050    8.2124   -1.7893 H         1 RES1    0.0000
     15 C7         6.3805    5.8641   -2.4335 C.3       1 RES1    0.0000
     16 H5         6.6199    4.9775   -2.7120 H         1 RES1    0.0000
     17 H6         7.1583    6.4268   -2.4510 H         1 RES1    0.0000
     18 H7         5.7163    6.2184   -3.0291 H         1 RES1    0.0000
     19 C8         5.6463    3.2972   -1.1362 C.3       1 RES1    0.0000
     20 H8         6.5756    3.1305   -1.3129 H         1 RES1    0.0000
     21 H9         5.1640    3.3293   -1.9655 H         1 RES1    0.0000
     22 H10        5.2944    2.5921   -0.5886 H         1 RES1    0.0000
@<TRIPOS>BOND
     1    1    2 ar
     2    2    3 ar
     3    3    4 ar
     4    4    5 ar
     5    5    6 1
     6    7    1 ar
     7    8    7 1
     8    9    1 1
     9   10    9 2
    10   11    9 2
    11   12    2 1
    12   13   12 1
    13   14   12 1
    14   15    3 1
    15   16   15 1
    16   17   15 1
    17   18   15 1
    18   19    4 1
    19   20   19 1
    20   21   19 1
    21   22   19 1
    22    5    7 ar
@<TRIPOS>SUBSTRUCTURE
     1 RES1 1

@<TRIPOS>CRYSIN
  14.4439    8.6837   14.0031  90.0000 111.2510  90.0000  15 1

