# MOL2 file generated by ConQuest
# Please check atom types

@<TRIPOS>MOLECULE
DATMEQ
    74    80     1
SMALL
NO_CHARGES
****
Generated from CSD

@<TRIPOS>ATOM
      1 O1         4.8712    3.2299    0.3920 O.3       1 RES1    0.0000
      2 O2         7.7997    4.4707   -6.1176 O.2       1 RES1    0.0000
      3 O3         7.9261    6.3010   -4.9805 O.2       1 RES1    0.0000
      4 N1         3.4781    2.2468   -1.1891 N.2       1 RES1    0.0000
      5 N2         7.5699    5.1431   -5.1255 N.pl3     1 RES1    0.0000
      6 C1         2.6762    4.3259    2.7833 C.2       1 RES1    0.0000
      7 C2         3.5564    3.1769    0.9611 C.3       1 RES1    0.0000
      8 C3         4.8627    2.5019   -0.8341 C.3       1 RES1    0.0000
      9 C4         2.7889    2.8748    3.1233 C.2       1 RES1    0.0000
     10 C5         3.3898    2.2224    2.1222 C.2       1 RES1    0.0000
     11 C6         3.1463    4.5245    1.5341 C.2       1 RES1    0.0000
     12 C7         2.7360    2.6373   -0.2220 C.2       1 RES1    0.0000
     13 C8         3.7853    0.7819    2.0522 C.3       1 RES1    0.0000
     14 C9         5.2242    0.5568    2.4982 C.3       1 RES1    0.0000
     15 C10        2.1147    5.3536    3.7184 C.ar      1 RES1    0.0000
     16 C11        2.3644    5.2542    5.0755 C.ar      1 RES1    0.0000
     17 C12        1.8562    6.2328    5.9426 C.ar      1 RES1    0.0000
     18 C13        1.1079    7.2571    5.4535 C.ar      1 RES1    0.0000
     19 C14        0.8567    7.3565    4.0964 C.ar      1 RES1    0.0000
     20 C15        1.3609    6.4046    3.2293 C.ar      1 RES1    0.0000
     21 C16        1.2547    2.4290   -0.2590 C.ar      1 RES1    0.0000
     22 C17        0.3788    3.1726    0.5120 C.ar      1 RES1    0.0000
     23 C18       -0.9802    2.9284    0.4450 C.ar      1 RES1    0.0000
     24 C19       -1.4649    1.9405   -0.3930 C.ar      1 RES1    0.0000
     25 C20       -0.5906    1.1965   -1.1631 C.ar      1 RES1    0.0000
     26 C21        0.7700    1.4411   -1.0971 C.ar      1 RES1    0.0000
     27 C22        5.5712    3.2418   -1.9392 C.ar      1 RES1    0.0000
     28 C23        5.9767    4.5580   -1.8112 C.ar      1 RES1    0.0000
     29 C24        6.6219    5.1878   -2.8593 C.ar      1 RES1    0.0000
     30 C25        6.8629    4.5024   -4.0354 C.ar      1 RES1    0.0000
     31 C26        6.4591    3.1852   -4.1634 C.ar      1 RES1    0.0000
     32 C27        5.8124    2.5554   -3.1153 C.ar      1 RES1    0.0000
     33 C28        2.1770    2.2031    4.3204 C.ar      1 RES1    0.0000
     34 C29        2.9453    1.5497    5.2675 C.ar      1 RES1    0.0000
     35 C30        2.3323    0.8701    6.3056 C.ar      1 RES1    0.0000
     36 C31        0.9525    0.8438    6.3966 C.ar      1 RES1    0.0000
     37 C32        0.1858    1.4972    5.4495 C.ar      1 RES1    0.0000
     38 C33        0.7973    2.1769    4.4114 C.ar      1 RES1    0.0000
     39 C34        3.3761    5.7756    0.7561 C.ar      1 RES1    0.0000
     40 C35        4.2196    6.7502    1.2571 C.ar      1 RES1    0.0000
     41 C36        4.5351    7.8551    0.4870 C.ar      1 RES1    0.0000
     42 C37        4.0072    7.9848   -0.7851 C.ar      1 RES1    0.0000
     43 C38        3.1638    7.0095   -1.2871 C.ar      1 RES1    0.0000
     44 C39        2.8482    5.9053   -0.5160 C.ar      1 RES1    0.0000
     45 H1         2.9060    4.4958    5.4305 H         1 RES1    0.0000
     46 H2         2.0412    6.1340    6.9207 H         1 RES1    0.0000
     47 H3         0.7424    7.9439    6.0806 H         1 RES1    0.0000
     48 H4         0.3080    8.1192    3.7404 H         1 RES1    0.0000
     49 H5         1.1729    6.4810    2.2502 H         1 RES1    0.0000
     50 H6         0.7310    3.8849    1.1201 H         1 RES1    0.0000
     51 H7        -1.6203    3.4726    1.0001 H         1 RES1    0.0000
     52 H8        -2.4562    1.7673   -0.4400 H         1 RES1    0.0000
     53 H9        -0.9414    0.4779   -1.7702 H         1 RES1    0.0000
     54 H10        1.4078    0.9001   -1.6502 H         1 RES1    0.0000
     55 H11        5.7969    5.0558   -0.9601 H         1 RES1    0.0000
     56 H12        6.9228    6.1411   -2.7703 H         1 RES1    0.0000
     57 H13        6.6348    2.6919   -5.0105 H         1 RES1    0.0000
     58 H14        5.5259    1.6003   -3.2103 H         1 RES1    0.0000
     59 H15        3.9487    1.5715    5.2005 H         1 RES1    0.0000
     60 H16        2.8886    0.3944    6.9907 H         1 RES1    0.0000
     61 H17        0.5175    0.3477    7.1507 H         1 RES1    0.0000
     62 H18       -0.8096    1.4816    5.5105 H         1 RES1    0.0000
     63 H19        0.2377    2.6452    3.7304 H         1 RES1    0.0000
     64 H20        4.5966    6.6541    2.1802 H         1 RES1    0.0000
     65 H21        5.1413    8.5582    0.8501 H         1 RES1    0.0000
     66 H22        4.2311    8.7793   -1.3401 H         1 RES1    0.0000
     67 H23        2.7891    7.1097   -2.2102 H         1 RES1    0.0000
     68 H24        2.2444    5.2055   -0.8801 H         1 RES1    0.0000
     69 H25        3.1806    0.2490    2.6503 H         1 RES1    0.0000
     70 H26        3.6928    0.4675    1.1101 H         1 RES1    0.0000
     71 H27        5.3421    1.6397   -0.7501 H         1 RES1    0.0000
     72 H28        5.4089   -0.4289    2.4702 H         1 RES1    0.0000
     73 H29        5.3465    0.8925    3.4303 H         1 RES1    0.0000
     74 H30        5.8756    1.0284    1.9002 H         1 RES1    0.0000
@<TRIPOS>BOND
     1    1    7 1
     2    2    5 2
     3    3    5 2
     4    4    8 1
     5    5   30 1
     6    6    9 1
     7    7   10 1
     8    8    1 1
     9    9   10 2
    10   10   13 1
    11   11    6 2
    12   12    4 2
    13   13   14 1
    14   14   72 1
    15   15    6 1
    16   16   15 ar
    17   17   16 ar
    18   18   17 ar
    19   19   18 ar
    20   20   15 ar
    21   21   12 1
    22   22   21 ar
    23   23   22 ar
    24   24   23 ar
    25   25   24 ar
    26   26   21 ar
    27   27    8 1
    28   28   27 ar
    29   29   28 ar
    30   30   29 ar
    31   31   30 ar
    32   32   27 ar
    33   33    9 1
    34   34   33 ar
    35   35   34 ar
    36   36   35 ar
    37   37   36 ar
    38   38   33 ar
    39   39   11 1
    40   40   39 ar
    41   41   40 ar
    42   42   41 ar
    43   43   42 ar
    44   44   39 ar
    45   45   16 1
    46   46   17 1
    47   47   18 1
    48   48   19 1
    49   49   20 1
    50   50   22 1
    51   51   23 1
    52   52   24 1
    53   53   25 1
    54   54   26 1
    55   55   28 1
    56   56   29 1
    57   57   31 1
    58   58   32 1
    59   59   34 1
    60   60   35 1
    61   61   36 1
    62   62   37 1
    63   63   38 1
    64   64   40 1
    65   65   41 1
    66   66   42 1
    67   67   43 1
    68   68   44 1
    69   69   13 1
    70   70   13 1
    71   71    8 1
    72   73   14 1
    73   74   14 1
    74    7   11 1
    75    7   12 1
    76   19   20 ar
    77   25   26 ar
    78   31   32 ar
    79   37   38 ar
    80   43   44 ar
@<TRIPOS>SUBSTRUCTURE
     1 RES1 1

@<TRIPOS>CRYSIN
  15.4380   10.0970   10.6210 109.6400  87.1900 101.7000   2 1

