# MOL2 file generated by ConQuest
# Please check atom types

@<TRIPOS>MOLECULE
DATNBZ01
    22    22     1
SMALL
NO_CHARGES
****
Generated from CSD

@<TRIPOS>ATOM
      1 O1         1.5965    3.5981    3.6462 O.2       1 RES1    0.0000
      2 O2         0.3079    1.9580    4.1745 O.2       1 RES1    0.0000
      3 O3         2.0124   -1.0385    7.9580 O.2       1 RES1    0.0000
      4 O4         3.8984   -0.5960    8.8427 O.2       1 RES1    0.0000
      5 O5         6.6672    3.2074    6.8575 O.2       1 RES1    0.0000
      6 O6         5.6764    4.3854    5.3499 O.2       1 RES1    0.0000
      7 N1         1.3669    2.5943    4.3106 N.pl3     1 RES1    0.0000
      8 N2         3.0247   -0.3277    8.0133 N.pl3     1 RES1    0.0000
      9 N3         5.6896    3.4332    6.1331 N.pl3     1 RES1    0.0000
     10 N4         0.9946    0.3825    6.1378 N.3       1 RES1    0.0000
     11 N5         5.3641    1.3026    8.0560 N.3       1 RES1    0.0000
     12 C1         2.3509    2.1663    5.2842 C.ar      1 RES1    0.0000
     13 C2         2.1256    1.0638    6.1827 C.ar      1 RES1    0.0000
     14 C3         3.1874    0.7707    7.1125 C.ar      1 RES1    0.0000
     15 C4         4.4119    1.5367    7.1747 C.ar      1 RES1    0.0000
     16 C5         4.5309    2.5897    6.2081 C.ar      1 RES1    0.0000
     17 C6         3.5218    2.8755    5.3084 C.ar      1 RES1    0.0000
     18 H1         0.4277    0.6203    5.4791 H         1 RES1    0.0000
     19 H2         0.9435   -0.3205    6.7133 H         1 RES1    0.0000
     20 H3         5.2124    0.6513    8.6282 H         1 RES1    0.0000
     21 H4         6.0640    1.7885    7.9476 H         1 RES1    0.0000
     22 H5         3.6599    3.6028    4.7409 H         1 RES1    0.0000
@<TRIPOS>BOND
     1    1    7 2
     2    2    7 2
     3    3    8 2
     4    4    8 2
     5    5    9 2
     6    6    9 2
     7    7   12 1
     8    8   14 1
     9    9   16 1
    10   10   13 1
    11   11   15 1
    12   12   13 ar
    13   13   14 ar
    14   14   15 ar
    15   15   16 ar
    16   16   17 ar
    17   17   12 ar
    18   18   10 1
    19   19   10 1
    20   20   11 1
    21   21   11 1
    22   22   17 1
@<TRIPOS>SUBSTRUCTURE
     1 RES1 1

@<TRIPOS>CRYSIN
   7.3090    5.1690   11.5830  90.0000  95.2200  90.0000   7 1

