# MOL2 file generated by ConQuest
# Please check atom types

@<TRIPOS>MOLECULE
DAVKET
    39    40     1
SMALL
NO_CHARGES
****
Generated from CSD

@<TRIPOS>ATOM
      1 O1         9.3081    7.8170    3.3700 O.2       1 RES1    0.0000
      2 O2         8.0750    9.5416    3.7748 O.2       1 RES1    0.0000
      3 N1         8.2089    8.3583    3.4539 N.pl3     1 RES1    0.0000
      4 N2         1.4102    6.9338    1.6144 N.1       1 RES1    0.0000
      5 N3         2.8486    1.3384    1.2812 N.3       1 RES1    0.0000
      6 C1         6.0185    5.6627    2.1394 C.ar      1 RES1    0.0000
      7 H1         6.1096    4.8370    1.7217 H         1 RES1    0.0000
      8 C2         7.1501    6.3529    2.5112 C.ar      1 RES1    0.0000
      9 H2         7.9927    5.9899    2.3628 H         1 RES1    0.0000
     10 C3         7.0179    7.5969    3.1111 C.ar      1 RES1    0.0000
     11 C4         5.7651    8.1525    3.3474 C.ar      1 RES1    0.0000
     12 H3         5.6878    8.9916    3.7409 H         1 RES1    0.0000
     13 C5         4.6480    7.4452    2.9926 C.ar      1 RES1    0.0000
     14 H4         3.8108    7.8130    3.1619 H         1 RES1    0.0000
     15 C6         4.7244    6.1708    2.3745 C.ar      1 RES1    0.0000
     16 C7         3.5114    5.4873    1.9436 C.2       1 RES1    0.0000
     17 C8         3.3336    4.0948    1.7158 C.2       1 RES1    0.0000
     18 C9         4.2218    3.0789    2.1572 C.2       1 RES1    0.0000
     19 H5         4.9983    3.3272    2.6063 H         1 RES1    0.0000
     20 C10        3.9809    1.7500    1.9479 C.2       1 RES1    0.0000
     21 C11        1.9435    2.2782    0.8410 C.2       1 RES1    0.0000
     22 C12        2.1745    3.6041    1.0571 C.2       1 RES1    0.0000
     23 H6         1.5420    4.2170    0.7588 H         1 RES1    0.0000
     24 C13        4.9509    0.7156    2.4467 C.3       1 RES1    0.0000
     25 H7         4.4958    0.1059    3.0321 H         1 RES1    0.0000
     26 H8         5.6617    1.1485    2.9249 H         1 RES1    0.0000
     27 H9         5.3150    0.2319    1.7015 H         1 RES1    0.0000
     28 C14        0.7050    1.8358    0.1129 C.3       1 RES1    0.0000
     29 H10        0.2014    2.6058   -0.1597 H         1 RES1    0.0000
     30 H11        0.1684    1.2934    0.6951 H         1 RES1    0.0000
     31 H12        0.9533    1.3258   -0.6613 H         1 RES1    0.0000
     32 C15        2.5440   -0.1092    1.1412 C.3       1 RES1    0.0000
     33 H13        3.3758   -0.6021    1.0596 H         1 RES1    0.0000
     34 H14        2.0331   -0.2498    0.3290 H         1 RES1    0.0000
     35 C16        1.7651   -0.6452    2.3128 C.3       1 RES1    0.0000
     36 H15        2.2855   -0.5486    3.1144 H         1 RES1    0.0000
     37 H16        1.5681   -1.5733    2.1692 H         1 RES1    0.0000
     38 H17        0.9439   -0.1550    2.4031 H         1 RES1    0.0000
     39 C17        2.3579    6.2968    1.7555 C.1       1 RES1    0.0000
@<TRIPOS>BOND
     1    1    3 2
     2    2    3 2
     3    3   10 1
     4    4   39 3
     5    5   20 1
     6    6    7 1
     7    8    6 ar
     8    9    8 1
     9   10    8 ar
    10   11   10 ar
    11   12   11 1
    12   13   11 ar
    13   14   13 1
    14   15    6 ar
    15   16   15 1
    16   17   16 2
    17   18   17 1
    18   19   18 1
    19   20   18 2
    20   21    5 1
    21   22   17 1
    22   23   22 1
    23   24   20 1
    24   25   24 1
    25   26   24 1
    26   27   24 1
    27   28   21 1
    28   29   28 1
    29   30   28 1
    30   31   28 1
    31   32    5 1
    32   33   32 1
    33   34   32 1
    34   35   32 1
    35   36   35 1
    36   37   35 1
    37   38   35 1
    38   39   16 1
    39   13   15 ar
    40   21   22 2
@<TRIPOS>SUBSTRUCTURE
     1 RES1 1

@<TRIPOS>CRYSIN
  17.0310   11.1503    8.1223  90.0000  96.8620  90.0000  14 1

