# MOL2 file generated by ConQuest
# Please check atom types

@<TRIPOS>MOLECULE
DAVQOH
    28    30     1
SMALL
NO_CHARGES
****
Generated from CSD

@<TRIPOS>ATOM
      1 C1        11.6723    0.7806    0.0165 C.ar      1 RES1    0.0000
      2 H1        12.3141    0.1897   -0.2368 H         1 RES1    0.0000
      3 C2        10.3510    0.6251   -0.3166 C.ar      1 RES1    0.0000
      4 C3         9.3869    1.5334    0.0389 C.ar      1 RES1    0.0000
      5 H2         8.4696    1.4083   -0.2168 H         1 RES1    0.0000
      6 C4         9.7338    2.6507    0.7831 C.ar      1 RES1    0.0000
      7 C5        11.0610    2.8430    1.1645 C.ar      1 RES1    0.0000
      8 C6        11.7946    3.8990    1.9130 C.ar      1 RES1    0.0000
      9 C7        11.4139    5.0408    2.5990 C.ar      1 RES1    0.0000
     10 C8        12.4077    5.8652    3.1414 C.ar      1 RES1    0.0000
     11 H3        12.1693    6.6619    3.6212 H         1 RES1    0.0000
     12 C9        13.7367    5.5472    3.0052 C.ar      1 RES1    0.0000
     13 C10       14.1453    4.3938    2.3984 C.ar      1 RES1    0.0000
     14 H4        15.0821    4.1893    2.3676 H         1 RES1    0.0000
     15 C11       13.1699    3.5951    1.8692 C.ar      1 RES1    0.0000
     16 C12       13.3610    2.3178    1.1611 C.2       1 RES1    0.0000
     17 C13       12.0031    1.8876    0.7425 C.ar      1 RES1    0.0000
     18 C14        8.6532    3.5603    1.0483 C.1       1 RES1    0.0000
     19 C15       10.0721    5.4743    2.8388 C.1       1 RES1    0.0000
     20 N1         9.9273   -0.5322   -1.0911 N.pl3     1 RES1    0.0000
     21 N2         7.7298    4.2009    1.1724 N.1       1 RES1    0.0000
     22 N3         9.0582    5.9175    3.0994 N.1       1 RES1    0.0000
     23 N4        14.7364    6.4671    3.5556 N.pl3     1 RES1    0.0000
     24 O1        14.4095    1.7431    0.9559 O.2       1 RES1    0.0000
     25 O2        10.7044   -1.4553   -1.1771 O.2       1 RES1    0.0000
     26 O3         8.8247   -0.5058   -1.6071 O.2       1 RES1    0.0000
     27 O4        14.3407    7.4335    4.1736 O.2       1 RES1    0.0000
     28 O5        15.9086    6.2194    3.3320 O.2       1 RES1    0.0000
@<TRIPOS>BOND
     1    1    2 1
     2    3    1 ar
     3    4    3 ar
     4    5    4 1
     5    6    4 ar
     6    7    6 ar
     7    8    7 1
     8    9    8 ar
     9   10    9 ar
    10   11   10 1
    11   12   10 ar
    12   13   12 ar
    13   14   13 1
    14   15    8 ar
    15   16   15 1
    16   17    1 ar
    17   18    6 1
    18   19    9 1
    19   20    3 1
    20   21   18 3
    21   22   19 3
    22   23   12 1
    23   24   16 2
    24   25   20 2
    25   26   20 2
    26   27   23 2
    27   28   23 2
    28    7   17 ar
    29   13   15 ar
    30   16   17 1
@<TRIPOS>SUBSTRUCTURE
     1 RES1 1

@<TRIPOS>CRYSIN
  14.1690    6.4510   15.2380  90.0000 110.6140  90.0000 231 1

