# MOL2 file generated by ConQuest
# Please check atom types

@<TRIPOS>MOLECULE
DAVRAV
    37    38     1
SMALL
NO_CHARGES
****
Generated from CSD

@<TRIPOS>ATOM
      1 N1        -0.3375    6.3507    4.0524 N.ar      1 RES1    0.0000
      2 C1        -0.3626    5.2929    4.8748 C.ar      1 RES1    0.0000
      3 C2        -0.0353    5.4452    6.2468 C.ar      1 RES1    0.0000
      4 C3         0.2583    6.6831    6.7212 C.ar      1 RES1    0.0000
      5 C4         0.2460    7.7728    5.8956 C.ar      1 RES1    0.0000
      6 C5        -0.0456    7.5611    4.5782 C.ar      1 RES1    0.0000
      7 N2        -0.6899    4.0906    4.3534 N.3       1 RES1    0.0000
      8 C6         1.9120    2.2260    1.7569 C.ar      1 RES1    0.0000
      9 C7         2.3408    2.8840    0.6336 C.ar      1 RES1    0.0000
     10 C8         3.5431    2.5511    0.0545 C.ar      1 RES1    0.0000
     11 C9         4.3636    1.5673    0.5867 C.ar      1 RES1    0.0000
     12 C10        3.8987    0.9028    1.7024 C.ar      1 RES1    0.0000
     13 C11        2.6926    1.2121    2.2837 C.ar      1 RES1    0.0000
     14 C12       -1.0941    3.9336    2.9674 C.3       1 RES1    0.0000
     15 C13        0.0579    3.6988    2.0219 C.3       1 RES1    0.0000
     16 O1         0.7390    2.4974    2.4132 O.3       1 RES1    0.0000
     17 C14       -0.6371    2.9012    5.1715 C.3       1 RES1    0.0000
     18 C15        5.6562    1.2467   -0.0044 C.2       1 RES1    0.0000
     19 N3         6.0720    1.8753   -1.0360 N.2       1 RES1    0.0000
     20 O2         7.3457    1.4419   -1.4259 O.3       1 RES1    0.0000
     21 H1        -0.0521    4.6525    6.7833 H         1 RES1    0.0000
     22 H2         0.4783    6.7873    7.7103 H         1 RES1    0.0000
     23 H3         0.4808    8.6838    6.2381 H         1 RES1    0.0000
     24 H4        -0.0550    8.3331    3.8388 H         1 RES1    0.0000
     25 H5         6.2048    0.4814    0.4362 H         1 RES1    0.0000
     26 H6        -1.5446    4.7772    2.6719 H         1 RES1    0.0000
     27 H7        -1.6730    3.1472    2.9336 H         1 RES1    0.0000
     28 H8        -0.2872    3.6075    1.1342 H         1 RES1    0.0000
     29 H9         0.6920    4.4431    2.0154 H         1 RES1    0.0000
     30 H10       -1.2693    2.9934    5.9545 H         1 RES1    0.0000
     31 H11        0.2925    2.6667    5.4201 H         1 RES1    0.0000
     32 H12       -0.9797    2.1653    4.6567 H         1 RES1    0.0000
     33 H13        7.5622    1.9219   -2.2357 H         1 RES1    0.0000
     34 H14        1.8093    3.6321    0.2726 H         1 RES1    0.0000
     35 H15        3.8609    3.0336   -0.7525 H         1 RES1    0.0000
     36 H16        4.4191    0.2012    2.0721 H         1 RES1    0.0000
     37 H17        2.3245    0.6841    3.0536 H         1 RES1    0.0000
@<TRIPOS>BOND
     1    1    2 ar
     2    2    3 ar
     3    3    4 ar
     4    4    5 ar
     5    5    6 ar
     6    6    1 ar
     7    7    2 1
     8    8    9 ar
     9    9   10 ar
    10   10   11 ar
    11   11   12 ar
    12   12   13 ar
    13   13    8 ar
    14   14    7 1
    15   15   14 1
    16   16    8 1
    17   17    7 1
    18   18   11 1
    19   19   18 2
    20   20   19 1
    21   21    3 1
    22   22    4 1
    23   23    5 1
    24   24    6 1
    25   25   18 1
    26   26   14 1
    27   27   14 1
    28   28   15 1
    29   29   15 1
    30   30   17 1
    31   31   17 1
    32   32   17 1
    33   33   20 1
    34   34    9 1
    35   35   10 1
    36   36   12 1
    37   37   13 1
    38   15   16 1
@<TRIPOS>SUBSTRUCTURE
     1 RES1 1

@<TRIPOS>CRYSIN
   7.3332    8.6358   11.7675  75.3060  73.8350  89.6980   2 1

