# MOL2 file generated by ConQuest
# Please check atom types

@<TRIPOS>MOLECULE
DAVSUR
    76    76     2
SMALL
NO_CHARGES
****
Generated from CSD

@<TRIPOS>ATOM
      1 O1         2.5838    1.9688   11.9295 O.3       1 RES1    0.0000
      2 O2         0.1869    1.5512   10.8951 O.3       1 RES1    0.0000
      3 O3        -0.8821    2.2697   12.6062 O.3       1 RES1    0.0000
      4 O4        -0.0163    0.1618   12.6782 O.2       1 RES1    0.0000
      5 O5        -0.0519   -0.4340    6.0044 O.3       1 RES1    0.0000
      6 O6         1.4332    1.2578    5.9724 O.2       1 RES1    0.0000
      7 O7         2.1945   -1.5751    3.9423 O.3       1 RES1    0.0000
      8 O8         1.3962   -3.1471    5.3419 O.2       1 RES1    0.0000
      9 O9         4.4787   -2.5035    5.9705 O.2       1 RES1    0.0000
     10 O10        6.3798    3.3152   12.6279 O.2       1 RES1    0.0000
     11 O11        6.9420    5.0274   13.6268 O.2       1 RES1    0.0000
     12 N1         3.5163   -0.4743    6.1298 N.am      1 RES1    0.0000
     13 H1         3.6194    0.3985    6.0886 H         1 RES1    0.0000
     14 N2         6.0909    4.0973   13.4501 N.pl3     1 RES1    0.0000
     15 C1         2.5375    1.0789   10.8985 C.ar      1 RES1    0.0000
     16 C2         3.6237    0.4197   10.3396 C.ar      1 RES1    0.0000
     17 H2         4.5002    0.5825   10.6666 H         1 RES1    0.0000
     18 C3         3.4231   -0.4794    9.3006 C.ar      1 RES1    0.0000
     19 H3         4.1729   -0.9311    8.9316 H         1 RES1    0.0000
     20 C4         2.1540   -0.7393    8.7822 C.ar      1 RES1    0.0000
     21 C5         1.0676   -0.0699    9.3528 C.ar      1 RES1    0.0000
     22 H4         0.1901   -0.2262    9.0219 H         1 RES1    0.0000
     23 C6         1.2615    0.8130   10.3892 C.ar      1 RES1    0.0000
     24 C7         3.8777    2.4269   12.3322 C.3       1 RES1    0.0000
     25 H5         4.3868    2.7511   11.5476 H         1 RES1    0.0000
     26 H6         4.3863    1.6898   12.7531 H         1 RES1    0.0000
     27 C8         3.6690    3.5502   13.3195 C.ar      1 RES1    0.0000
     28 C9         4.6980    4.3405   13.8293 C.ar      1 RES1    0.0000
     29 C10        4.4763    5.4097   14.6905 C.ar      1 RES1    0.0000
     30 H7         5.2045    5.9419   14.9909 H         1 RES1    0.0000
     31 C11        3.1990    5.6908   15.1046 C.ar      1 RES1    0.0000
     32 H8         3.0327    6.4206   15.6888 H         1 RES1    0.0000
     33 C12        2.1598    4.9007   14.6605 C.ar      1 RES1    0.0000
     34 H9         1.2766    5.0695   14.9689 H         1 RES1    0.0000
     35 C13        2.3893    3.8626   13.7690 C.ar      1 RES1    0.0000
     36 H10        1.6521    3.3503   13.4559 H         1 RES1    0.0000
     37 C14       -0.2258    1.2173   12.1516 C.2       1 RES1    0.0000
     38 C15       -1.5890    2.2318   13.9128 C.3       1 RES1    0.0000
     39 C16       -0.6475    1.8328   15.0380 C.3       1 RES1    0.0000
     40 H11       -0.3879    0.8949   14.9299 H         1 RES1    0.0000
     41 H12       -1.1000    1.9483   15.8987 H         1 RES1    0.0000
     42 H13        0.1520    2.3997   15.0104 H         1 RES1    0.0000
     43 C17       -2.0106    3.6763   14.0594 C.3       1 RES1    0.0000
     44 H14       -2.5889    3.9260   13.3095 H         1 RES1    0.0000
     45 H15       -1.2157    4.2491   14.0636 H         1 RES1    0.0000
     46 H16       -2.4996    3.7899   14.9006 H         1 RES1    0.0000
     47 C18       -2.7696    1.3002   13.7988 C.3       1 RES1    0.0000
     48 H17       -3.3475    1.5949   13.0630 H         1 RES1    0.0000
     49 H18       -3.2760    1.3110   14.6370 H         1 RES1    0.0000
     50 H19       -2.4511    0.3906   13.6194 H         1 RES1    0.0000
     51 C19        1.9640   -1.7006    7.6399 C.3       1 RES1    0.0000
     52 H20        1.0454   -2.0687    7.6773 H         1 RES1    0.0000
     53 H21        2.5972   -2.4545    7.7431 H         1 RES1    0.0000
     54 C20        2.1890   -1.0364    6.2492 C.3       1 RES1    0.0000
     55 C21        1.1707    0.0945    6.0535 C.2       1 RES1    0.0000
     56 C22       -1.1806    0.4584    5.7565 C.3       1 RES1    0.0000
     57 H22       -0.9553    1.1142    5.0490 H         1 RES1    0.0000
     58 H23       -1.4192    0.9516    6.5815 H         1 RES1    0.0000
     59 C23       -2.3078   -0.4053    5.3236 C.3       1 RES1    0.0000
     60 H24       -3.0928    0.1518    5.1369 H         1 RES1    0.0000
     61 H25       -2.5216   -1.0447    6.0349 H         1 RES1    0.0000
     62 H26       -2.0527   -0.8919    4.5122 H         1 RES1    0.0000
     63 C24        1.8970   -2.0745    5.1466 C.2       1 RES1    0.0000
     64 C25        1.8594   -2.4359    2.8066 C.3       1 RES1    0.0000
     65 H27        2.1270   -3.3660    3.0114 H         1 RES1    0.0000
     66 H28        2.3676   -2.1392    2.0108 H         1 RES1    0.0000
     67 C26        0.3884   -2.3987    2.4989 C.3       1 RES1    0.0000
     68 H29        0.2203   -2.8598    1.6497 H         1 RES1    0.0000
     69 H30        0.0924   -1.4666    2.4281 H         1 RES1    0.0000
     70 H31       -0.1072   -2.8451    3.2163 H         1 RES1    0.0000
     71 C27        4.6009   -1.2840    6.0827 C.2       1 RES1    0.0000
     72 C28        5.9346   -0.6073    6.2062 C.3       1 RES1    0.0000
     73 H32        6.6449   -1.2405    5.9715 H         1 RES1    0.0000
     74 H33        6.0615   -0.3015    7.1282 H         1 RES1    0.0000
     75 H34        5.9683    0.1615    5.5981 H         1 RES1    0.0000
     76 O12        6.8564    4.1326   14.5394 Du        2 SUP2    0.0000
@<TRIPOS>BOND
     1    1   15 1
     2    2   23 1
     3    3   37 1
     4    4   37 2
     5    5   55 1
     6    6   55 2
     7    7   63 1
     8    8   63 2
     9    9   71 2
    10   10   14 2
    11   11   14 2
    12   12   13 1
    13   14   28 1
    14   15   16 ar
    15   16   17 1
    16   18   16 ar
    17   19   18 1
    18   20   18 ar
    19   21   20 ar
    20   22   21 1
    21   23   15 ar
    22   24    1 1
    23   25   24 1
    24   26   24 1
    25   27   24 1
    26   28   27 ar
    27   29   28 ar
    28   30   29 1
    29   31   29 ar
    30   32   31 1
    31   33   31 ar
    32   34   33 1
    33   35   27 ar
    34   36   35 1
    35   37    2 1
    36   38    3 1
    37   39   38 1
    38   40   39 1
    39   41   39 1
    40   42   39 1
    41   43   38 1
    42   44   43 1
    43   45   43 1
    44   46   43 1
    45   47   38 1
    46   48   47 1
    47   49   47 1
    48   50   47 1
    49   51   20 1
    50   52   51 1
    51   53   51 1
    52   54   12 1
    53   55   54 1
    54   56    5 1
    55   57   56 1
    56   58   56 1
    57   59   56 1
    58   60   59 1
    59   61   59 1
    60   62   59 1
    61   63   54 1
    62   64    7 1
    63   65   64 1
    64   66   64 1
    65   67   64 1
    66   68   67 1
    67   69   67 1
    68   70   67 1
    69   71   12 1
    70   72   71 1
    71   73   72 1
    72   74   72 1
    73   75   72 1
    74   21   23 ar
    75   33   35 ar
    76   51   54 1
@<TRIPOS>SUBSTRUCTURE
     1 RES1 1
     2 SUP2 76

@<TRIPOS>CRYSIN
  11.9938    9.7905   24.9935  90.0000 102.4771  90.0000  14 1

