# MOL2 file generated by ConQuest
# Please check atom types

@<TRIPOS>MOLECULE
DAVYAA
    33    33     1
SMALL
NO_CHARGES
****
Generated from CSD

@<TRIPOS>ATOM
      1 C1         2.1633    2.9613    2.7541 C.3       1 RES1    0.0000
      2 C2         2.1151    2.7074    4.2903 C.3       1 RES1    0.0000
      3 C3         2.8609    3.9132    4.8296 C.2       1 RES1    0.0000
      4 C4         2.8794    4.8980    3.9286 C.2       1 RES1    0.0000
      5 C5         2.3092    4.5141    2.6055 C.3       1 RES1    0.0000
      6 C6         3.5411    2.3134    2.2609 C.2       1 RES1    0.0000
      7 C7         3.4372    1.0175    1.5283 C.3       1 RES1    0.0000
      8 C8         2.9565    4.9931    1.2876 C.3       1 RES1    0.0000
      9 C9         3.3722    3.9004    6.2277 C.3       1 RES1    0.0000
     10 C10        0.6767    2.6502    4.8440 C.3       1 RES1    0.0000
     11 N1         3.3568    6.2399    4.1180 N.pl3     1 RES1    0.0000
     12 N2         0.8631    5.1027    2.4990 N.pl3     1 RES1    0.0000
     13 O1         1.1337    2.3689    1.9952 O.3       1 RES1    0.0000
     14 O2         2.8122    1.5164    4.6652 O.3       1 RES1    0.0000
     15 O3         3.0892    7.0824    3.2776 O.2       1 RES1    0.0000
     16 O4         4.0007    6.4842    5.1308 O.2       1 RES1    0.0000
     17 O5         0.2705    5.0885    1.4218 O.2       1 RES1    0.0000
     18 O6         0.3465    5.5714    3.5367 O.2       1 RES1    0.0000
     19 O7         4.5664    2.8281    2.5766 O.2       1 RES1    0.0000
     20 H1         2.7675    0.4571    1.9268 H         1 RES1    0.0000
     21 H2         4.2827    0.5630    1.5401 H         1 RES1    0.0000
     22 H3         3.1915    1.2145    0.6221 H         1 RES1    0.0000
     23 H4         3.9029    4.9341    1.4389 H         1 RES1    0.0000
     24 H5         2.7267    5.8931    1.0456 H         1 RES1    0.0000
     25 H6         2.7072    4.3965    0.5774 H         1 RES1    0.0000
     26 H7         2.9243    3.1153    6.5499 H         1 RES1    0.0000
     27 H8         3.0774    4.6655    6.7288 H         1 RES1    0.0000
     28 H9         4.3203    3.7945    6.3355 H         1 RES1    0.0000
     29 H10        0.1347    3.4080    4.6126 H         1 RES1    0.0000
     30 H11        0.6717    2.5329    5.7976 H         1 RES1    0.0000
     31 H12        0.3230    1.8636    4.4232 H         1 RES1    0.0000
     32 H13        0.3983    2.0031    1.2889 H         1 RES1    0.0000
     33 H14        3.4896    0.8026    5.1031 H         1 RES1    0.0000
@<TRIPOS>BOND
     1    1    2 1
     2    2    3 1
     3    3    4 2
     4    4    5 1
     5    5    1 1
     6    6    1 1
     7    7    6 1
     8    8    5 1
     9    9    3 1
    10   10    2 1
    11   11    4 1
    12   12    5 1
    13   13    1 1
    14   14    2 1
    15   15   11 2
    16   16   11 2
    17   17   12 2
    18   18   12 2
    19   19    6 2
    20   20    7 1
    21   21    7 1
    22   22    7 1
    23   23    8 1
    24   24    8 1
    25   25    8 1
    26   26    9 1
    27   27    9 1
    28   28    9 1
    29   29   10 1
    30   30   10 1
    31   31   10 1
    32   32   13 1
    33   33   14 1
@<TRIPOS>SUBSTRUCTURE
     1 RES1 1

@<TRIPOS>CRYSIN
   6.1000    8.0310   13.6190  75.0600  83.5200  70.7900   2 1

