# MOL2 file generated by ConQuest
# Please check atom types

@<TRIPOS>MOLECULE
DAWNUK
    48    48     1
SMALL
NO_CHARGES
****
Generated from CSD

@<TRIPOS>ATOM
      1 C1         6.4805    1.5315   16.1586 C.2       1 RES1    0.0000
      2 C2         5.1604    2.2019   15.7414 C.3       1 RES1    0.0000
      3 C3         4.0529    1.9539   16.7107 C.2       1 RES1    0.0000
      4 C4         4.1613    1.5140   17.9621 C.2       1 RES1    0.0000
      5 C5         5.5551    1.2611   18.5083 C.3       1 RES1    0.0000
      6 C6         6.4212    0.6305   17.4159 C.3       1 RES1    0.0000
      7 C7         4.7209    1.8567   14.2517 C.3       1 RES1    0.0000
      8 C8         2.9641    1.2162   18.8798 C.3       1 RES1    0.0000
      9 C9         5.9253   -0.7875   17.0941 C.3       1 RES1    0.0000
     10 C10        4.3276    0.3888   14.2120 C.3       1 RES1    0.0000
     11 C11        5.8299    2.0872   13.2168 C.3       1 RES1    0.0000
     12 C12        3.5294    2.7140   13.8187 C.3       1 RES1    0.0000
     13 C13        1.6541    1.4343   18.1647 C.3       1 RES1    0.0000
     14 C14        3.0133   -0.2393   19.3585 C.3       1 RES1    0.0000
     15 C15        3.0378    2.1271   20.1133 C.3       1 RES1    0.0000
     16 N1         5.4322    3.7470   15.7494 N.pl3     1 RES1    0.0000
     17 N2         6.1422    2.5857   18.9870 N.pl3     1 RES1    0.0000
     18 N3         7.8599    0.4561   17.9025 N.pl3     1 RES1    0.0000
     19 O1         7.4927    1.6274   15.5368 O.2       1 RES1    0.0000
     20 O2         4.5401    4.4386   16.1943 O.2       1 RES1    0.0000
     21 O3         6.4617    4.1632   15.2965 O.2       1 RES1    0.0000
     22 O4         6.5398    3.3545   18.1429 O.2       1 RES1    0.0000
     23 O5         6.1769    2.7875   20.1788 O.2       1 RES1    0.0000
     24 O6         8.2113    1.0779   18.8838 O.2       1 RES1    0.0000
     25 O7         8.5713   -0.3165   17.3245 O.2       1 RES1    0.0000
     26 H1         4.9956   -0.7402   16.8597 H         1 RES1    0.0000
     27 H2         6.0323   -1.3358   17.8747 H         1 RES1    0.0000
     28 H3         6.4198   -1.1676   16.3651 H         1 RES1    0.0000
     29 H4         5.1228   -0.1271   14.3609 H         1 RES1    0.0000
     30 H5         4.0008    0.2231   13.3241 H         1 RES1    0.0000
     31 H6         3.6581    0.1358   14.8516 H         1 RES1    0.0000
     32 H7         6.4993    1.4318   13.4274 H         1 RES1    0.0000
     33 H8         6.2246    2.9620   13.2248 H         1 RES1    0.0000
     34 H9         5.4669    1.9065   12.3468 H         1 RES1    0.0000
     35 H10        2.7935    2.5258   14.4046 H         1 RES1    0.0000
     36 H11        3.2851    2.4885   12.9169 H         1 RES1    0.0000
     37 H12        3.7463    3.6486   13.8664 H         1 RES1    0.0000
     38 H13        1.5486    2.3377   17.8588 H         1 RES1    0.0000
     39 H14        0.9326    1.2100   18.7566 H         1 RES1    0.0000
     40 H15        1.6454    0.8399   17.4099 H         1 RES1    0.0000
     41 H16        3.0046   -0.8461   18.6136 H         1 RES1    0.0000
     42 H17        2.2339   -0.3838   19.8988 H         1 RES1    0.0000
     43 H18        3.8013   -0.3913   19.8848 H         1 RES1    0.0000
     44 H19        3.0436    3.0255   19.7756 H         1 RES1    0.0000
     45 H20        3.8287    1.9763   20.6337 H         1 RES1    0.0000
     46 H21        2.2614    1.9987   20.6635 H         1 RES1    0.0000
     47 H22        5.5147    0.7165   19.2949 H         1 RES1    0.0000
     48 H23        3.1680    2.1159   16.4406 H         1 RES1    0.0000
@<TRIPOS>BOND
     1    1    2 1
     2    2    3 1
     3    3    4 2
     4    4    5 1
     5    5    6 1
     6    6    1 1
     7    7    2 1
     8    8    4 1
     9    9    6 1
    10   10    7 1
    11   11    7 1
    12   12    7 1
    13   13    8 1
    14   14    8 1
    15   15    8 1
    16   16    2 1
    17   17    5 1
    18   18    6 1
    19   19    1 2
    20   20   16 2
    21   21   16 2
    22   22   17 2
    23   23   17 2
    24   24   18 2
    25   25   18 2
    26   26    9 1
    27   27    9 1
    28   28    9 1
    29   29   10 1
    30   30   10 1
    31   31   10 1
    32   32   11 1
    33   33   11 1
    34   34   11 1
    35   35   12 1
    36   36   12 1
    37   37   12 1
    38   38   13 1
    39   39   13 1
    40   40   13 1
    41   41   14 1
    42   42   14 1
    43   43   14 1
    44   44   15 1
    45   45   15 1
    46   46   15 1
    47   47    5 1
    48   48    3 1
@<TRIPOS>SUBSTRUCTURE
     1 RES1 1

@<TRIPOS>CRYSIN
  14.4590   12.4610   19.8630  90.0000  90.0000  90.0000  61 1

