# MOL2 file generated by ConQuest
# Please check atom types

@<TRIPOS>MOLECULE
DAWNAT
    37    38     1
SMALL
NO_CHARGES
****
Generated from CSD

@<TRIPOS>ATOM
      1 O1         3.6958    1.8441    9.9100 O.3       1 RES1    0.0000
      2 N1         2.5776    2.2611   10.6789 N.am      1 RES1    0.0000
      3 C1         1.5209    2.8132    9.8008 C.3       1 RES1    0.0000
      4 C2         2.1126    2.5715    8.4155 C.3       1 RES1    0.0000
      5 C3         3.1219    1.4823    8.6348 C.3       1 RES1    0.0000
      6 O2         2.5110    0.2581    8.6762 O.3       1 RES1    0.0000
      7 C4         1.2002    4.2649   10.0760 C.3       1 RES1    0.0000
      8 C5         2.4894    1.7345   11.9019 C.2       1 RES1    0.0000
      9 O3         3.3891    1.0675   12.3986 O.2       1 RES1    0.0000
     10 C6         1.2294    2.0828   12.6369 C.ar      1 RES1    0.0000
     11 C7         0.1180    1.2443   12.5321 C.ar      1 RES1    0.0000
     12 C8        -1.0434    1.5920   13.2066 C.ar      1 RES1    0.0000
     13 C9        -1.1103    2.7259   14.0061 C.ar      1 RES1    0.0000
     14 C10        0.0209    3.5092   14.1280 C.ar      1 RES1    0.0000
     15 C11        1.1968    3.2205   13.4549 C.ar      1 RES1    0.0000
     16 C12        0.1758   -0.0343   11.7479 C.3       1 RES1    0.0000
     17 C13       -2.3619    3.0765   14.7638 C.3       1 RES1    0.0000
     18 C14        2.4092    4.0948   13.6121 C.3       1 RES1    0.0000
     19 H1         0.6963    2.2514    9.9088 H         1 RES1    0.0000
     20 H2         3.9285    1.5286    8.0803 H         1 RES1    0.0000
     21 H3         0.5987    4.5797    9.3040 H         1 RES1    0.0000
     22 H4         0.7510    4.3522   10.9634 H         1 RES1    0.0000
     23 H5         2.0011    4.7535   10.0262 H         1 RES1    0.0000
     24 H6        -1.8281    1.0086   13.1043 H         1 RES1    0.0000
     25 H7        -0.0295    4.2873   14.6842 H         1 RES1    0.0000
     26 H8         2.6051    3.3667    8.0902 H         1 RES1    0.0000
     27 H9         1.5235    2.3156    7.7898 H         1 RES1    0.0000
     28 H10        3.1869   -0.4051    8.5101 H         1 RES1    0.0000
     29 H11        0.4315   -0.7050   12.2786 H         1 RES1    0.0000
     30 H12       -0.6411   -0.3111   11.5305 H         1 RES1    0.0000
     31 H13        0.8413    0.0142   10.9972 H         1 RES1    0.0000
     32 H14        3.1623    3.5554   13.8962 H         1 RES1    0.0000
     33 H15        2.8548    4.4029   12.7402 H         1 RES1    0.0000
     34 H16        2.2933    4.7543   14.1987 H         1 RES1    0.0000
     35 H17       -2.3862    2.5371   15.5000 H         1 RES1    0.0000
     36 H18       -2.5827    3.9941   14.6961 H         1 RES1    0.0000
     37 H19       -3.1057    2.7371   14.3041 H         1 RES1    0.0000
@<TRIPOS>BOND
     1    1    2 1
     2    2    3 1
     3    3    4 1
     4    4    5 1
     5    5    1 1
     6    6    5 1
     7    7    3 1
     8    8    2 1
     9    9    8 2
    10   10    8 1
    11   11   10 ar
    12   12   11 ar
    13   13   12 ar
    14   14   13 ar
    15   15   10 ar
    16   16   11 1
    17   17   13 1
    18   18   15 1
    19   19    3 1
    20   20    5 1
    21   21    7 1
    22   22    7 1
    23   23    7 1
    24   24   12 1
    25   25   14 1
    26   26    4 1
    27   27    4 1
    28   28    6 1
    29   29   16 1
    30   30   16 1
    31   31   16 1
    32   32   18 1
    33   33   18 1
    34   34   18 1
    35   35   17 1
    36   36   17 1
    37   37   17 1
    38   14   15 ar
@<TRIPOS>SUBSTRUCTURE
     1 RES1 1

@<TRIPOS>CRYSIN
   9.1230    7.4600   19.9250  90.0000  93.0240  90.0000 231 1

