# MOL2 file generated by ConQuest
# Please check atom types

@<TRIPOS>MOLECULE
DAWNAQ
    39    39     1
SMALL
NO_CHARGES
****
Generated from CSD

@<TRIPOS>ATOM
      1 C1        13.5738    4.7493    0.0972 C.2       1 RES1    0.0000
      2 C2        12.6969    5.8952   -0.2715 C.2       1 RES1    0.0000
      3 C3        13.2227    6.8933   -0.9536 C.2       1 RES1    0.0000
      4 C4        14.6799    7.0963   -1.3430 C.3       1 RES1    0.0000
      5 C5        15.5479    5.8758   -0.9190 C.3       1 RES1    0.0000
      6 C6        14.8299    4.5463   -0.7902 C.3       1 RES1    0.0000
      7 C7        11.2221    5.8455    0.1610 C.3       1 RES1    0.0000
      8 C8        15.1809    8.4217   -0.7823 C.3       1 RES1    0.0000
      9 C9        14.3465    3.8450   -2.0439 C.3       1 RES1    0.0000
     10 C10       10.5887    4.5656   -0.4130 C.3       1 RES1    0.0000
     11 C11       10.4462    7.0562   -0.3833 C.3       1 RES1    0.0000
     12 C12       11.1215    5.8634    1.6825 C.3       1 RES1    0.0000
     13 N1        14.6199    7.2123   -2.8900 N.pl3     1 RES1    0.0000
     14 N2        16.8411    5.7792   -1.7050 N.pl3     1 RES1    0.0000
     15 N3        15.7173    3.5992    0.0449 N.pl3     1 RES1    0.0000
     16 O1        13.3179    3.9651    0.9803 O.2       1 RES1    0.0000
     17 O2        14.9692    6.2721   -3.5758 O.2       1 RES1    0.0000
     18 O3        14.2142    8.2436   -3.3516 O.2       1 RES1    0.0000
     19 O4        17.3491    6.8202   -2.0597 O.2       1 RES1    0.0000
     20 O5        17.3121    4.6802   -1.8641 O.2       1 RES1    0.0000
     21 O6        16.3647    4.1018    0.9403 O.2       1 RES1    0.0000
     22 O7        15.6679    2.4243   -0.1907 O.2       1 RES1    0.0000
     23 H1        12.7658    7.7590   -1.2950 H         1 RES1    0.0000
     24 H2        15.8655    6.1685    0.0164 H         1 RES1    0.0000
     25 H3        16.0507    8.6296   -1.1304 H         1 RES1    0.0000
     26 H4        15.2162    8.3993    0.1768 H         1 RES1    0.0000
     27 H5        14.5547    9.0932   -1.0636 H         1 RES1    0.0000
     28 H6        15.1284    3.6881   -2.5790 H         1 RES1    0.0000
     29 H7        13.6950    4.3228   -2.5614 H         1 RES1    0.0000
     30 H8        13.9785    3.0038   -1.7627 H         1 RES1    0.0000
     31 H9         9.7043    4.4480   -0.0595 H         1 RES1    0.0000
     32 H10       11.1074    3.7750   -0.2484 H         1 RES1    0.0000
     33 H11       10.5379    4.7241   -1.3581 H         1 RES1    0.0000
     34 H12        9.5313    6.9740   -0.1045 H         1 RES1    0.0000
     35 H13       10.4950    7.0031   -1.3405 H         1 RES1    0.0000
     36 H14       10.7944    7.9020   -0.0917 H         1 RES1    0.0000
     37 H15       11.5125    6.7001    1.9461 H         1 RES1    0.0000
     38 H16       11.5354    5.1491    2.1727 H         1 RES1    0.0000
     39 H17       10.1807    5.8768    1.8684 H         1 RES1    0.0000
@<TRIPOS>BOND
     1    1    2 1
     2    2    3 2
     3    3    4 1
     4    4    5 1
     5    5    6 1
     6    6    1 1
     7    7    2 1
     8    8    4 1
     9    9    6 1
    10   10    7 1
    11   11    7 1
    12   12    7 1
    13   13    4 1
    14   14    5 1
    15   15    6 1
    16   16    1 2
    17   17   13 2
    18   18   13 2
    19   19   14 2
    20   20   14 2
    21   21   15 2
    22   22   15 2
    23   23    3 1
    24   24    5 1
    25   25    8 1
    26   26    8 1
    27   27    8 1
    28   28    9 1
    29   29    9 1
    30   30    9 1
    31   31   10 1
    32   32   10 1
    33   33   10 1
    34   34   11 1
    35   35   11 1
    36   36   11 1
    37   37   12 1
    38   38   12 1
    39   39   12 1
@<TRIPOS>SUBSTRUCTURE
     1 RES1 1

@<TRIPOS>CRYSIN
  17.6420   13.8060    6.0740  90.0000  90.0000  90.0000  33 1

