# MOL2 file generated by ConQuest
# Please check atom types

@<TRIPOS>MOLECULE
DAWPAS
    47    47     1
SMALL
NO_CHARGES
****
Generated from CSD

@<TRIPOS>ATOM
      1 C1         6.4866    8.1164    2.7704 C.2       1 RES1    0.0000
      2 C2         5.7519    8.4084    4.0838 C.3       1 RES1    0.0000
      3 C3         4.2637    8.4900    3.8459 C.2       1 RES1    0.0000
      4 C4         3.5886    8.4020    2.7016 C.2       1 RES1    0.0000
      5 C5         4.3573    8.2066    1.4187 C.3       1 RES1    0.0000
      6 C6         5.8199    8.6382    1.4714 C.3       1 RES1    0.0000
      7 C7         6.1110    7.4465    5.2502 C.3       1 RES1    0.0000
      8 C8         2.0708    8.5008    2.6166 C.3       1 RES1    0.0000
      9 C9         6.6174    8.2775    0.2260 C.3       1 RES1    0.0000
     10 C10        7.6093    7.4873    5.6079 C.3       1 RES1    0.0000
     11 C11        5.3223    7.8545    6.5067 C.3       1 RES1    0.0000
     12 C12        5.7556    6.0122    4.8654 C.3       1 RES1    0.0000
     13 C13        1.4364    8.6468    4.0107 C.3       1 RES1    0.0000
     14 C14        1.6678    9.7268    1.7900 C.3       1 RES1    0.0000
     15 C15        1.4971    7.2404    1.9582 C.3       1 RES1    0.0000
     16 N1         4.3826    6.7315    1.0348 N.pl3     1 RES1    0.0000
     17 N2         5.8484   10.1734    1.5453 N.pl3     1 RES1    0.0000
     18 O1         7.5377    7.5560    2.6795 O.2       1 RES1    0.0000
     19 O2         6.1392    9.7783    4.3905 O.3       1 RES1    0.0000
     20 O3         4.7573    5.9370    1.8512 O.2       1 RES1    0.0000
     21 O4         4.0558    6.4459   -0.0994 O.2       1 RES1    0.0000
     22 O5         4.8086   10.8004    1.4893 O.2       1 RES1    0.0000
     23 O6         6.9655   10.6823    1.6294 O.2       1 RES1    0.0000
     24 H1         6.9895    9.8342    4.8067 H         1 RES1    0.0000
     25 H2         6.7191    7.3241    0.1945 H         1 RES1    0.0000
     26 H3         7.4805    8.6897    0.3075 H         1 RES1    0.0000
     27 H4         6.1931    8.5802   -0.5811 H         1 RES1    0.0000
     28 H5         8.1410    7.2597    4.8416 H         1 RES1    0.0000
     29 H6         7.7933    6.8689    6.3189 H         1 RES1    0.0000
     30 H7         7.8249    8.3784    5.8942 H         1 RES1    0.0000
     31 H8         5.6996    7.3069    7.1991 H         1 RES1    0.0000
     32 H9         4.3747    7.7084    6.4642 H         1 RES1    0.0000
     33 H10        5.4959    8.7799    6.6987 H         1 RES1    0.0000
     34 H11        5.8897    5.4346    5.6206 H         1 RES1    0.0000
     35 H12        6.3222    5.7330    4.1432 H         1 RES1    0.0000
     36 H13        4.8373    5.9692    4.5876 H         1 RES1    0.0000
     37 H14        0.5035    8.8078    3.8544 H         1 RES1    0.0000
     38 H15        1.8205    9.4004    4.4635 H         1 RES1    0.0000
     39 H16        1.5406    7.8609    4.5536 H         1 RES1    0.0000
     40 H17        1.9701   10.5986    2.0500 H         1 RES1    0.0000
     41 H18        0.7092    9.6925    1.8316 H         1 RES1    0.0000
     42 H19        1.9550    9.5422    0.8929 H         1 RES1    0.0000
     43 H20        0.5395    7.2983    1.9905 H         1 RES1    0.0000
     44 H21        1.7876    6.4695    2.4509 H         1 RES1    0.0000
     45 H22        1.7820    7.1631    1.0449 H         1 RES1    0.0000
     46 H23        3.9088    8.6704    0.7238 H         1 RES1    0.0000
     47 H24        3.7851    8.7090    4.6504 H         1 RES1    0.0000
@<TRIPOS>BOND
     1    1    2 1
     2    2    3 1
     3    3    4 2
     4    4    5 1
     5    5    6 1
     6    6    1 1
     7    7    2 1
     8    8    4 1
     9    9    6 1
    10   10    7 1
    11   11    7 1
    12   12    7 1
    13   13    8 1
    14   14    8 1
    15   15    8 1
    16   16    5 1
    17   17    6 1
    18   18    1 2
    19   19    2 1
    20   20   16 2
    21   21   16 2
    22   22   17 2
    23   23   17 2
    24   24   19 1
    25   25    9 1
    26   26    9 1
    27   27    9 1
    28   28   10 1
    29   29   10 1
    30   30   10 1
    31   31   11 1
    32   32   11 1
    33   33   11 1
    34   34   12 1
    35   35   12 1
    36   36   12 1
    37   37   13 1
    38   38   13 1
    39   39   13 1
    40   40   14 1
    41   41   14 1
    42   42   14 1
    43   43   15 1
    44   44   15 1
    45   45   15 1
    46   46    5 1
    47   47    3 1
@<TRIPOS>SUBSTRUCTURE
     1 RES1 1

@<TRIPOS>CRYSIN
   9.5280   21.4720    9.5170  90.0000 116.7900  90.0000  14 1

