# MOL2 file generated by ConQuest
# Please check atom types

@<TRIPOS>MOLECULE
DAYPUP
    38    39     1
SMALL
NO_CHARGES
****
Generated from CSD

@<TRIPOS>ATOM
      1 C1         2.9378    4.4836    1.1016 C.ar      1 RES1    0.0000
      2 C2         2.3678    3.2352    0.9312 C.ar      1 RES1    0.0000
      3 H1         1.4907    3.1521    0.6326 H         1 RES1    0.0000
      4 C3         3.1229    2.1157    1.2110 C.ar      1 RES1    0.0000
      5 H2         2.7514    1.2692    1.1103 H         1 RES1    0.0000
      6 C4         4.4218    2.2483    1.6396 C.ar      1 RES1    0.0000
      7 H3         4.9274    1.4908    1.8288 H         1 RES1    0.0000
      8 C5         4.9794    3.4998    1.7893 C.ar      1 RES1    0.0000
      9 H4         5.8634    3.5721    2.0677 H         1 RES1    0.0000
     10 C6         4.2504    4.6607    1.5336 C.ar      1 RES1    0.0000
     11 C7         4.9398    5.9668    1.6933 C.2       1 RES1    0.0000
     12 H5         4.7448    6.6668    1.1137 H         1 RES1    0.0000
     13 C8         6.4360    7.4355    2.6835 C.3       1 RES1    0.0000
     14 H6         6.1068    8.0119    1.9758 H         1 RES1    0.0000
     15 H7         7.3937    7.3301    2.5675 H         1 RES1    0.0000
     16 N1         2.0825    5.6474    0.8393 N.pl3     1 RES1    0.0000
     17 N2         5.7813    6.1284    2.6037 N.2       1 RES1    0.0000
     18 O1         1.0810    5.5028    0.2006 O.2       1 RES1    0.0000
     19 O2         2.3913    6.7228    1.2841 O.2       1 RES1    0.0000
     20 C1B        9.6492   11.0134    5.6073 C.ar      1 RES1    0.0000
     21 C2B       10.2191   12.2618    5.7777 C.ar      1 RES1    0.0000
     22 H1B       11.0963   12.3449    6.0762 H         1 RES1    0.0000
     23 C3B        9.4640   13.3813    5.4979 C.ar      1 RES1    0.0000
     24 H2B        9.8355   14.2278    5.5986 H         1 RES1    0.0000
     25 C4B        8.1652   13.2487    5.0692 C.ar      1 RES1    0.0000
     26 H3B        7.6595   14.0062    4.8800 H         1 RES1    0.0000
     27 C5B        7.6075   11.9972    4.9196 C.ar      1 RES1    0.0000
     28 H4B        6.7236   11.9249    4.6412 H         1 RES1    0.0000
     29 C6B        8.3366   10.8363    5.1752 C.ar      1 RES1    0.0000
     30 C7B        7.6472    9.5302    5.0156 C.2       1 RES1    0.0000
     31 H5B        7.8422    8.8302    5.5952 H         1 RES1    0.0000
     32 C8B        6.1510    8.0615    4.0253 C.3       1 RES1    0.0000
     33 H6B        6.4802    7.4851    4.7331 H         1 RES1    0.0000
     34 H7B        5.1933    8.1669    4.1414 H         1 RES1    0.0000
     35 N1B       10.5044    9.8496    5.8696 N.pl3     1 RES1    0.0000
     36 N2B        6.8057    9.3686    4.1052 N.2       1 RES1    0.0000
     37 O1B       11.5059    9.9942    6.5083 O.2       1 RES1    0.0000
     38 O2B       10.1956    8.7742    5.4248 O.2       1 RES1    0.0000
@<TRIPOS>BOND
     1    1    2 ar
     2    2    3 1
     3    4    2 ar
     4    5    4 1
     5    6    4 ar
     6    7    6 1
     7    8    6 ar
     8    9    8 1
     9   10    1 ar
    10   11   10 1
    11   12   11 1
    12   13   14 1
    13   15   13 1
    14   16    1 1
    15   17   11 2
    16   18   16 2
    17   19   16 2
    18   20   21 ar
    19   21   22 1
    20   23   21 ar
    21   24   23 1
    22   25   23 ar
    23   26   25 1
    24   27   25 ar
    25   28   27 1
    26   29   20 ar
    27   30   29 1
    28   31   30 1
    29   32   13 1
    30   33   32 1
    31   34   32 1
    32   35   20 1
    33   36   30 2
    34   37   35 2
    35   38   35 2
    36    8   10 ar
    37   13   17 1
    38   27   29 ar
    39   32   36 1
@<TRIPOS>SUBSTRUCTURE
     1 RES1 1

@<TRIPOS>CRYSIN
   7.4255   15.4970    7.0806  90.0000 108.6480  90.0000  14 1

