# MOL2 file generated by ConQuest
# Please check atom types

@<TRIPOS>MOLECULE
DAYVIK
    60    64     1
SMALL
NO_CHARGES
****
Generated from CSD

@<TRIPOS>ATOM
      1 O1         7.0468    1.5853    6.4337 O.2       1 RES1    0.0000
      2 C1         6.1092    2.0675    5.8206 C.2       1 RES1    0.0000
      3 N1         5.1220    2.8789    6.3228 N.am      1 RES1    0.0000
      4 C2         4.9851    3.2677    7.6778 C.ar      1 RES1    0.0000
      5 C3         4.2911    4.4391    7.9783 C.ar      1 RES1    0.0000
      6 C4         4.1017    4.7840    9.3074 C.ar      1 RES1    0.0000
      7 C5         4.5755    3.9933   10.3386 C.ar      1 RES1    0.0000
      8 C6         5.2639    2.8153   10.0391 C.ar      1 RES1    0.0000
      9 C7         5.4748    2.4591    8.7030 C.ar      1 RES1    0.0000
     10 N2         5.7566    1.9643   11.0573 N.am      1 RES1    0.0000
     11 C8         6.9420    1.1019   10.8850 C.3       1 RES1    0.0000
     12 C9         6.9666    0.3101   12.2022 C.3       1 RES1    0.0000
     13 N3         5.9781    0.9678   13.0395 N.am      1 RES1    0.0000
     14 C10        5.2231    1.8753   12.3188 C.2       1 RES1    0.0000
     15 O2         4.2477    2.4824   12.7304 O.2       1 RES1    0.0000
     16 C11        5.7890    0.6338   14.3991 C.ar      1 RES1    0.0000
     17 C12        5.0757    1.4609   15.2696 C.ar      1 RES1    0.0000
     18 C13        4.9673    1.1193   16.6104 C.ar      1 RES1    0.0000
     19 C14        5.5509   -0.0304   17.1052 C.ar      1 RES1    0.0000
     20 C15        6.2575   -0.8439   16.2549 C.ar      1 RES1    0.0000
     21 C16        6.3768   -0.5328   14.8989 C.ar      1 RES1    0.0000
     22 C17        8.1991    1.9149   10.6702 C.3       1 RES1    0.0000
     23 C18        4.3457    3.4931    5.2575 C.3       1 RES1    0.0000
     24 C19        4.6097    2.5731    4.0590 C.3       1 RES1    0.0000
     25 N4         5.8767    1.9268    4.4656 N.am      1 RES1    0.0000
     26 C20        6.5765    1.0460    3.6162 C.ar      1 RES1    0.0000
     27 C21        6.5321    1.2757    2.2347 C.ar      1 RES1    0.0000
     28 C22        7.1753    0.3807    1.4030 C.ar      1 RES1    0.0000
     29 N5         7.0909    0.6213   -0.0523 N.pl3     1 RES1    0.0000
     30 O3         7.5306   -0.2390   -0.8001 O.2       1 RES1    0.0000
     31 O4         6.5755    1.6553   -0.4479 O.2       1 RES1    0.0000
     32 C23        7.8714   -0.7147    1.8464 C.ar      1 RES1    0.0000
     33 C24        7.9206   -0.9167    3.2141 C.ar      1 RES1    0.0000
     34 C25        7.2824   -0.0559    4.0949 C.ar      1 RES1    0.0000
     35 C26        3.5197    1.5565    3.7994 C.3       1 RES1    0.0000
     36 H1         3.9620    4.9947    7.2811 H         1 RES1    0.0000
     37 H2         3.6220    5.5763    9.5177 H         1 RES1    0.0000
     38 H3         4.4462    4.2518   11.2426 H         1 RES1    0.0000
     39 H4         5.9559    1.6667    8.4943 H         1 RES1    0.0000
     40 H5         6.8071    0.5138   10.1522 H         1 RES1    0.0000
     41 H6         6.7185   -0.5941   12.0501 H         1 RES1    0.0000
     42 H7         7.8270    0.3394   12.6028 H         1 RES1    0.0000
     43 H8         4.6702    2.2543   14.9399 H         1 RES1    0.0000
     44 H9         4.4902    1.6895   17.2025 H         1 RES1    0.0000
     45 H10        5.4452   -0.2618   18.0213 H         1 RES1    0.0000
     46 H11        6.6764   -1.6249   16.5959 H         1 RES1    0.0000
     47 H12        6.8640   -1.1003   14.3109 H         1 RES1    0.0000
     48 H13        8.9388    1.3295   10.5597 H         1 RES1    0.0000
     49 H14        8.1012    2.4515    9.8917 H         1 RES1    0.0000
     50 H15        8.3479    2.4743   11.4231 H         1 RES1    0.0000
     51 H16        4.6514    4.3761    5.0873 H         1 RES1    0.0000
     52 H17        3.4198    3.5143    5.4724 H         1 RES1    0.0000
     53 H18        4.7591    3.0939    3.2786 H         1 RES1    0.0000
     54 H19        6.0772    2.0311    1.8812 H         1 RES1    0.0000
     55 H20        8.2993   -1.3028    1.2355 H         1 RES1    0.0000
     56 H21        8.4158   -1.6531    3.5540 H         1 RES1    0.0000
     57 H22        7.3131   -0.2227    5.0296 H         1 RES1    0.0000
     58 H23        3.7557    1.0242    3.0479 H         1 RES1    0.0000
     59 H24        2.7035    2.0083    3.6247 H         1 RES1    0.0000
     60 H25        3.4166    0.9993    4.5625 H         1 RES1    0.0000
@<TRIPOS>BOND
     1    1    2 2
     2    2    3 1
     3    3    4 1
     4    4    5 ar
     5    5    6 ar
     6    6    7 ar
     7    7    8 ar
     8    8    9 ar
     9    9    4 ar
    10   10    8 1
    11   11   10 1
    12   12   11 1
    13   13   12 1
    14   14   10 1
    15   15   14 2
    16   16   13 1
    17   17   16 ar
    18   18   17 ar
    19   19   18 ar
    20   20   19 ar
    21   21   16 ar
    22   22   11 1
    23   23    3 1
    24   24   23 1
    25   25    2 1
    26   26   25 1
    27   27   26 ar
    28   28   27 ar
    29   29   28 1
    30   30   29 2
    31   31   29 2
    32   32   28 ar
    33   33   32 ar
    34   34   26 ar
    35   35   24 1
    36   36    5 1
    37   37    6 1
    38   38    7 1
    39   39    9 1
    40   40   11 1
    41   41   12 1
    42   42   12 1
    43   43   17 1
    44   44   18 1
    45   45   19 1
    46   46   20 1
    47   47   21 1
    48   48   22 1
    49   49   22 1
    50   50   22 1
    51   51   23 1
    52   52   23 1
    53   53   24 1
    54   54   27 1
    55   55   32 1
    56   56   33 1
    57   57   34 1
    58   58   35 1
    59   59   35 1
    60   60   35 1
    61   13   14 1
    62   20   21 ar
    63   24   25 1
    64   33   34 ar
@<TRIPOS>SUBSTRUCTURE
     1 RES1 1

@<TRIPOS>CRYSIN
  11.1653    5.4308   19.3601  90.0000 106.0293  90.0000   4 1

