# MOL2 file generated by ConQuest
# Please check atom types

@<TRIPOS>MOLECULE
DAZQUR
    63    67     1
SMALL
NO_CHARGES
****
Generated from CSD

@<TRIPOS>ATOM
      1 O1         8.4992   -0.0823   -1.0785 O.3       1 RES1    0.0000
      2 O2        10.0643    4.6675   -2.1492 O.3       1 RES1    0.0000
      3 O3         8.8372    3.4560    1.9158 O.3       1 RES1    0.0000
      4 O4         7.4026    3.8201   -0.5393 O.3       1 RES1    0.0000
      5 O5         7.8803    4.4907   -2.6782 O.3       1 RES1    0.0000
      6 O6         6.1755   -0.8474   -3.4985 O.3       1 RES1    0.0000
      7 N1         8.4278    0.4095    0.2866 N.3       1 RES1    0.0000
      8 O7         9.5643    5.4942    1.2711 O.3       1 RES1    0.0000
      9 O8         6.3200   -1.8642   -1.5668 O.2       1 RES1    0.0000
     10 C1         7.7578   -0.3745    2.5276 C.ar      1 RES1    0.0000
     11 C2         7.2827    0.2998   -1.8002 C.3       1 RES1    0.0000
     12 H1         7.5229    0.8588   -2.5695 H         1 RES1    0.0000
     13 C3         7.8631   -0.6989    1.0763 C.3       1 RES1    0.0000
     14 H2         8.4224   -1.4830    0.9698 H         1 RES1    0.0000
     15 H3         6.9813   -0.9146    0.7353 H         1 RES1    0.0000
     16 C4         8.3449    2.7475   -0.3082 C.3       1 RES1    0.0000
     17 H4         8.7616    2.5215   -1.1647 H         1 RES1    0.0000
     18 C5         7.5626    1.5833    0.1461 C.3       1 RES1    0.0000
     19 H5         7.1516    1.7847    1.0128 H         1 RES1    0.0000
     20 C6         9.4113    3.2696    0.6039 C.3       1 RES1    0.0000
     21 H6        10.1505    2.6284    0.6548 H         1 RES1    0.0000
     22 C7         6.5372   -0.9240   -2.2817 C.2       1 RES1    0.0000
     23 C8         9.3035    4.7233    2.4063 C.3       1 RES1    0.0000
     24 C9         6.4539    1.0990   -0.8508 C.3       1 RES1    0.0000
     25 H7         5.7852    0.5505   -0.4067 H         1 RES1    0.0000
     26 H8         6.0195    1.8443   -1.2961 H         1 RES1    0.0000
     27 C10        6.6718   -0.6280    3.2742 C.ar      1 RES1    0.0000
     28 H9         5.9268   -0.9534    2.8221 H         1 RES1    0.0000
     29 C11        9.1407    4.6174   -3.2662 C.3       1 RES1    0.0000
     30 C12        6.5411   -0.4663    4.5804 C.ar      1 RES1    0.0000
     31 H10        5.7471   -0.6800    5.0189 H         1 RES1    0.0000
     32 C13        9.3742    5.1556   -1.0616 C.3       1 RES1    0.0000
     33 H11        9.4848    6.1297   -1.0627 H         1 RES1    0.0000
     34 C14        7.6691    0.0501    5.2919 C.ar      1 RES1    0.0000
     35 H12        7.6491    0.1769    6.2130 H         1 RES1    0.0000
     36 C15        8.8848    0.1428    3.2390 C.ar      1 RES1    0.0000
     37 H13        9.6776    0.3320    2.7904 H         1 RES1    0.0000
     38 C16        9.4481    3.4257   -4.1239 C.3       1 RES1    0.0000
     39 H14        9.2106    2.6218   -3.6514 H         1 RES1    0.0000
     40 H15       10.3858    3.4134   -4.3278 H         1 RES1    0.0000
     41 H16        8.9430    3.4805   -4.9384 H         1 RES1    0.0000
     42 C17        8.7851    0.3509    4.5442 C.ar      1 RES1    0.0000
     43 H17        9.5160    0.7226    4.9826 H         1 RES1    0.0000
     44 C18        9.2149    5.9604   -3.9868 C.3       1 RES1    0.0000
     45 H18        8.4481    6.0626   -4.5544 H         1 RES1    0.0000
     46 H19       10.0136    5.9964   -4.5181 H         1 RES1    0.0000
     47 H20        9.2307    6.6679   -3.3399 H         1 RES1    0.0000
     48 C19        7.9032    4.8680   -1.3176 C.3       1 RES1    0.0000
     49 H21        7.3699    5.6776   -1.1828 H         1 RES1    0.0000
     50 C20       10.6245    4.5048    3.1767 C.3       1 RES1    0.0000
     51 H22       10.4611    4.5692    4.1193 H         1 RES1    0.0000
     52 H23       11.2621    5.1745    2.9139 H         1 RES1    0.0000
     53 H24       10.9724    3.6347    2.9739 H         1 RES1    0.0000
     54 C21        8.2359    5.3561    3.2130 C.3       1 RES1    0.0000
     55 H25        7.4475    5.4620    2.6737 H         1 RES1    0.0000
     56 H26        8.5329    6.2158    3.5155 H         1 RES1    0.0000
     57 H27        8.0333    4.7990    3.9698 H         1 RES1    0.0000
     58 C22        9.9437    4.6410    0.2323 C.3       1 RES1    0.0000
     59 H28       10.9214    4.6108    0.1711 H         1 RES1    0.0000
     60 C23        5.4742   -2.0193   -4.0242 C.3       1 RES1    0.0000
     61 H29        5.9097   -2.8175   -3.7149 H         1 RES1    0.0000
     62 H30        5.4902   -1.9947   -4.9838 H         1 RES1    0.0000
     63 H31        4.5652   -2.0146   -3.7183 H         1 RES1    0.0000
@<TRIPOS>BOND
     1    1    7 1
     2    2   29 1
     3    3   20 1
     4    4   16 1
     5    5   29 1
     6    6   22 1
     7    7   13 1
     8    8   23 1
     9    9   22 2
    10   10   13 1
    11   11    1 1
    12   12   11 1
    13   13   14 1
    14   15   13 1
    15   16   17 1
    16   18    7 1
    17   19   18 1
    18   20   16 1
    19   21   20 1
    20   22   11 1
    21   23    3 1
    22   24   11 1
    23   25   24 1
    24   26   24 1
    25   27   10 ar
    26   28   27 1
    27   29   38 1
    28   30   27 ar
    29   31   30 1
    30   32    2 1
    31   33   32 1
    32   34   30 ar
    33   35   34 1
    34   36   10 ar
    35   37   36 1
    36   38   39 1
    37   40   38 1
    38   41   38 1
    39   42   34 ar
    40   43   42 1
    41   44   29 1
    42   45   44 1
    43   46   44 1
    44   47   44 1
    45   48    4 1
    46   49   48 1
    47   50   23 1
    48   51   50 1
    49   52   50 1
    50   53   50 1
    51   54   23 1
    52   55   54 1
    53   56   54 1
    54   57   54 1
    55   58    8 1
    56   59   58 1
    57   60    6 1
    58   61   60 1
    59   62   60 1
    60   63   60 1
    61    5   48 1
    62   16   18 1
    63   18   24 1
    64   20   58 1
    65   32   48 1
    66   32   58 1
    67   36   42 ar
@<TRIPOS>SUBSTRUCTURE
     1 RES1 1

@<TRIPOS>CRYSIN
  11.0420    9.4580   11.3840  90.0000  95.6200  90.0000   4 1

