# MOL2 file generated by ConQuest
# Please check atom types

@<TRIPOS>MOLECULE
DEBAOX
    30    30     1
SMALL
NO_CHARGES
****
Generated from CSD

@<TRIPOS>ATOM
      1 C1        10.7832    5.9216    4.3783 C.ar      1 RES1    0.0000
      2 C2        10.4022    4.6279    4.5938 C.ar      1 RES1    0.0000
      3 C3        10.1129    3.7651    3.5467 C.ar      1 RES1    0.0000
      4 C4        10.2520    4.2507    2.2653 C.ar      1 RES1    0.0000
      5 C5        10.6322    5.5074    2.0129 C.ar      1 RES1    0.0000
      6 C6        10.9119    6.3506    3.0690 C.ar      1 RES1    0.0000
      7 C7        11.1144    6.8388    5.4873 C.2       1 RES1    0.0000
      8 N1        10.2810    7.8722    5.7279 N.3       1 RES1    0.0000
      9 C8         8.9001    7.8887    5.2801 C.3       1 RES1    0.0000
     10 C9         8.5811    8.9389    4.3783 C.3       1 RES1    0.0000
     11 C10       10.8749    9.1567    6.6297 C.3       1 RES1    0.0000
     12 C11       10.4775    8.6611    7.7533 C.3       1 RES1    0.0000
     13 N2        12.1727    6.7550    6.1958 N.2       1 RES1    0.0000
     14 O1        13.0249    5.7105    5.7348 O.3       1 RES1    0.0000
     15 H1        10.4042    4.3794    5.4303 H         1 RES1    0.0000
     16 H2         9.8673    2.8119    3.7268 H         1 RES1    0.0000
     17 H3        10.1100    3.7295    1.6270 H         1 RES1    0.0000
     18 H4        10.7072    5.7769    1.0012 H         1 RES1    0.0000
     19 H5        11.0996    7.2495    2.9342 H         1 RES1    0.0000
     20 H6        13.6550    5.7465    6.2507 H         1 RES1    0.0000
     21 H7         8.2458    8.1916    5.8127 H         1 RES1    0.0000
     22 H8         8.8024    7.0835    4.9088 H         1 RES1    0.0000
     23 H9         8.9624    9.9493    4.5055 H         1 RES1    0.0000
     24 H10        7.5418    9.0527    4.1509 H         1 RES1    0.0000
     25 H11        8.9577    8.4815    3.6642 H         1 RES1    0.0000
     26 H12       11.8984    9.3111    6.3411 H         1 RES1    0.0000
     27 H13       10.5483    9.9862    6.3550 H         1 RES1    0.0000
     28 H14       10.5616    9.3796    8.2740 H         1 RES1    0.0000
     29 H15        9.4575    8.6863    7.7526 H         1 RES1    0.0000
     30 H16       10.9978    7.9516    8.2323 H         1 RES1    0.0000
@<TRIPOS>BOND
     1    1    2 ar
     2    2    3 ar
     3    3    4 ar
     4    4    5 ar
     5    5    6 ar
     6    6    1 ar
     7    7    1 1
     8    8    7 1
     9    9    8 1
    10   10    9 1
    11   11    8 1
    12   12   11 1
    13   13    7 2
    14   14   13 1
    15   15    2 1
    16   16    3 1
    17   17    4 1
    18   18    5 1
    19   19    6 1
    20   20   14 1
    21   21    9 1
    22   22    9 1
    23   23   10 1
    24   24   10 1
    25   25   10 1
    26   26   11 1
    27   27   11 1
    28   28   12 1
    29   29   12 1
    30   30   12 1
@<TRIPOS>SUBSTRUCTURE
     1 RES1 1

@<TRIPOS>CRYSIN
  10.0130    8.2610    7.2970  97.9600  76.4600  77.6500   2 1

