# MOL2 file generated by ConQuest
# Please check atom types

@<TRIPOS>MOLECULE
DECCOG
    53    56     1
SMALL
NO_CHARGES
****
Generated from CSD

@<TRIPOS>ATOM
      1 C1         3.7232   -4.1597   -4.4267 C.ar      1 RES1    0.0000
      2 C2         4.1071   -5.1595   -5.3056 C.ar      1 RES1    0.0000
      3 H1         3.7864   -5.1837   -6.1995 H         1 RES1    0.0000
      4 C3         4.9709   -6.1148   -4.8277 C.ar      1 RES1    0.0000
      5 H2         5.2483   -6.8182   -5.4029 H         1 RES1    0.0000
      6 C4         5.4528   -6.0769   -3.5148 C.ar      1 RES1    0.0000
      7 H3         6.0547   -6.7521   -3.2239 H         1 RES1    0.0000
      8 C5         5.0809   -5.0899   -2.6346 C.ar      1 RES1    0.0000
      9 H4         5.4044   -5.0557   -1.7422 H         1 RES1    0.0000
     10 C6         4.2077   -4.1570   -3.1352 C.ar      1 RES1    0.0000
     11 C7         2.8653   -2.4804   -3.4291 C.2       1 RES1    0.0000
     12 C8         2.1583   -1.2776   -3.0962 C.ar      1 RES1    0.0000
     13 C9         1.4968   -0.5479   -4.1158 C.ar      1 RES1    0.0000
     14 C10        0.8319    0.6091   -3.8215 C.ar      1 RES1    0.0000
     15 H5         0.4149    1.0873   -4.5283 H         1 RES1    0.0000
     16 C11        0.7411    1.1203   -2.5153 C.ar      1 RES1    0.0000
     17 C12        1.4525    0.4059   -1.4974 C.ar      1 RES1    0.0000
     18 C13        2.1256   -0.7614   -1.8208 C.ar      1 RES1    0.0000
     19 H6         2.5849   -1.2262   -1.1313 H         1 RES1    0.0000
     20 C14        2.1923    0.8331    1.9311 C.ar      1 RES1    0.0000
     21 C15        3.0588    0.2304    2.8269 C.ar      1 RES1    0.0000
     22 H7         3.6151   -0.4845    2.5396 H         1 RES1    0.0000
     23 C16        3.1184    0.6637    4.1343 C.ar      1 RES1    0.0000
     24 H8         3.7130    0.2582    4.7542 H         1 RES1    0.0000
     25 C17        2.2973    1.6947    4.5203 C.ar      1 RES1    0.0000
     26 C18        1.4186    2.3067    3.6488 C.ar      1 RES1    0.0000
     27 H9         0.8574    3.0138    3.9439 H         1 RES1    0.0000
     28 C19        1.3733    1.8727    2.3480 C.ar      1 RES1    0.0000
     29 H10        0.7790    2.2847    1.7316 H         1 RES1    0.0000
     30 C20       -0.3291    3.1438   -3.4344 C.3       1 RES1    0.0000
     31 H11        0.3669    3.0738   -4.1352 H         1 RES1    0.0000
     32 H12       -0.3482    4.0834   -3.1235 H         1 RES1    0.0000
     33 C21       -1.6555    2.8096   -4.0394 C.3       1 RES1    0.0000
     34 H13       -1.6351    1.8934   -4.3861 H         1 RES1    0.0000
     35 H14       -1.8470    3.4322   -4.7712 H         1 RES1    0.0000
     36 H15       -2.3541    2.8845   -3.3556 H         1 RES1    0.0000
     37 C22       -0.5994    2.6339   -1.0433 C.3       1 RES1    0.0000
     38 H16       -0.5259    1.8724   -0.4151 H         1 RES1    0.0000
     39 H17       -1.5618    2.7923   -1.2139 H         1 RES1    0.0000
     40 C23       -0.0096    3.8609   -0.3959 C.3       1 RES1    0.0000
     41 H18        0.9452    3.7158   -0.2300 H         1 RES1    0.0000
     42 H19       -0.4661    4.0327    0.4547 H         1 RES1    0.0000
     43 H20       -0.1251    4.6315   -0.9897 H         1 RES1    0.0000
     44 N1         2.8670   -3.0725   -4.5811 N.2       1 RES1    0.0000
     45 N2         0.0512    2.2757   -2.2996 N.3       1 RES1    0.0000
     46 N3         1.5126    0.9518   -0.2045 N.2       1 RES1    0.0000
     47 N4         2.1893    0.2829    0.6195 N.2       1 RES1    0.0000
     48 N5         2.3546    2.1625    5.9011 N.pl3     1 RES1    0.0000
     49 O1         3.6514   -3.0759   -2.4761 O.3       1 RES1    0.0000
     50 O2         1.4936   -0.9679   -5.3922 O.3       1 RES1    0.0000
     51 O3         3.1942    1.6932    6.6423 O.2       1 RES1    0.0000
     52 O4         1.5519    3.0159    6.2534 O.2       1 RES1    0.0000
     53 H21        1.8774   -1.7416   -5.4170 H         1 RES1    0.0000
@<TRIPOS>BOND
     1    1    2 ar
     2    2    3 1
     3    4    2 ar
     4    5    4 1
     5    6    4 ar
     6    7    6 1
     7    8    6 ar
     8    9    8 1
     9   10    1 ar
    10   11   12 1
    11   12   13 ar
    12   13   14 ar
    13   14   15 1
    14   16   14 ar
    15   17   16 ar
    16   18   12 ar
    17   19   18 1
    18   20   21 ar
    19   21   22 1
    20   23   21 ar
    21   24   23 1
    22   25   23 ar
    23   26   25 ar
    24   27   26 1
    25   28   20 ar
    26   29   28 1
    27   30   31 1
    28   32   30 1
    29   33   30 1
    30   34   33 1
    31   35   33 1
    32   36   33 1
    33   37   38 1
    34   39   37 1
    35   40   37 1
    36   41   40 1
    37   42   40 1
    38   43   40 1
    39   44    1 1
    40   45   16 1
    41   46   17 1
    42   47   20 1
    43   48   25 1
    44   49   10 1
    45   50   13 1
    46   51   48 2
    47   52   48 2
    48   53   50 1
    49    8   10 ar
    50   11   44 2
    51   11   49 1
    52   17   18 ar
    53   26   28 ar
    54   30   45 1
    55   37   45 1
    56   46   47 2
@<TRIPOS>SUBSTRUCTURE
     1 RES1 1

@<TRIPOS>CRYSIN
   8.6040   19.1170   12.2670  90.0000  92.4740  90.0000  14 1

