# MOL2 file generated by ConQuest
# Please check atom types

@<TRIPOS>MOLECULE
DECFAT
    48    49     1
SMALL
NO_CHARGES
****
Generated from CSD

@<TRIPOS>ATOM
      1 O1         6.2215    2.1820   -0.2167 O.2       1 RES1    0.0000
      2 N1         6.2646    3.4340   -0.5005 N.pl3     1 RES1    0.0000
      3 C1        -0.4171    5.2978    2.4321 C.ar      1 RES1    0.0000
      4 H1         0.0838    6.0533    2.6962 H         1 RES1    0.0000
      5 C2        -1.7956    5.2742    2.6123 C.ar      1 RES1    0.0000
      6 H2        -2.2124    6.0188    3.0185 H         1 RES1    0.0000
      7 C3        -2.5300    4.1683    2.2155 C.ar      1 RES1    0.0000
      8 H3        -3.4809    4.1430    2.3086 H         1 RES1    0.0000
      9 C4        -1.8826    3.0652    1.6750 C.ar      1 RES1    0.0000
     10 H4        -2.3947    2.2671    1.3948 H         1 RES1    0.0000
     11 C5        -0.5001    3.0779    1.5234 C.ar      1 RES1    0.0000
     12 H5        -0.0694    2.3189    1.1566 H         1 RES1    0.0000
     13 C6         0.2493    4.2028    1.8699 C.ar      1 RES1    0.0000
     14 C7         1.7135    4.2540    1.5802 C.ar      1 RES1    0.0000
     15 C8         2.5517    3.1659    1.8520 C.ar      1 RES1    0.0000
     16 H6         2.1895    2.3649    2.2853 H         1 RES1    0.0000
     17 C9         3.9077    3.2050    1.5411 C.ar      1 RES1    0.0000
     18 H7         4.4840    2.4052    1.7420 H         1 RES1    0.0000
     19 C10        4.4629    4.3386    0.9379 C.ar      1 RES1    0.0000
     20 C11        3.6347    5.4244    0.6727 C.ar      1 RES1    0.0000
     21 H8         3.9824    6.1972    0.2646 H         1 RES1    0.0000
     22 C12        2.2782    5.3847    0.9873 C.ar      1 RES1    0.0000
     23 H9         1.7039    6.1396    0.7488 H         1 RES1    0.0000
     24 C13        5.9499    4.4002    0.5777 C.3       1 RES1    0.0000
     25 H10        6.1431    5.3053    0.2288 H         1 RES1    0.0000
     26 C14        6.8595    4.1827    1.8039 C.3       1 RES1    0.0000
     27 H11        6.6340    3.2971    2.2323 H         1 RES1    0.0000
     28 C15        8.3370    4.1556    1.4160 C.3       1 RES1    0.0000
     29 H12        8.9067    4.0279    2.2230 H         1 RES1    0.0000
     30 H13        8.6010    5.0579    1.0150 H         1 RES1    0.0000
     31 H14        8.5520    3.3949    0.7861 H         1 RES1    0.0000
     32 C16        6.6015    5.2863    2.8219 C.3       1 RES1    0.0000
     33 H15        7.1798    5.1442    3.6178 H         1 RES1    0.0000
     34 H16        5.6202    5.3513    3.1197 H         1 RES1    0.0000
     35 H17        6.8433    6.1857    2.4316 H         1 RES1    0.0000
     36 C17        6.4668    3.8892   -1.9183 C.3       1 RES1    0.0000
     37 C18        6.6394    2.6682   -2.8105 C.3       1 RES1    0.0000
     38 H18        5.8458    2.0600   -2.7678 H         1 RES1    0.0000
     39 H19        7.4278    2.1290   -2.5188 H         1 RES1    0.0000
     40 H20        6.7711    2.9806   -3.7610 H         1 RES1    0.0000
     41 C19        7.7202    4.7678   -1.9920 C.3       1 RES1    0.0000
     42 H21        7.6076    5.5872   -1.4540 H         1 RES1    0.0000
     43 H22        7.8657    5.0809   -2.9391 H         1 RES1    0.0000
     44 H23        8.5009    4.2695   -1.7030 H         1 RES1    0.0000
     45 C20        5.2382    4.6907   -2.3589 C.3       1 RES1    0.0000
     46 H24        4.4256    4.1430   -2.3055 H         1 RES1    0.0000
     47 H25        5.3648    4.9888   -3.3127 H         1 RES1    0.0000
     48 H26        5.1361    5.5067   -1.8058 H         1 RES1    0.0000
@<TRIPOS>BOND
     1    1    2 2
     2    2   24 1
     3    3    4 1
     4    5    3 ar
     5    6    5 1
     6    7    5 ar
     7    8    7 1
     8    9    7 ar
     9   10    9 1
    10   11    9 ar
    11   12   11 1
    12   13    3 ar
    13   14   13 1
    14   15   14 ar
    15   16   15 1
    16   17   15 ar
    17   18   17 1
    18   19   17 ar
    19   20   19 ar
    20   21   20 1
    21   22   14 ar
    22   23   22 1
    23   24   19 1
    24   25   24 1
    25   26   24 1
    26   27   26 1
    27   28   26 1
    28   29   28 1
    29   30   28 1
    30   31   28 1
    31   32   26 1
    32   33   32 1
    33   34   32 1
    34   35   32 1
    35   36    2 1
    36   37   36 1
    37   38   37 1
    38   39   37 1
    39   40   37 1
    40   41   36 1
    41   42   41 1
    42   43   41 1
    43   44   41 1
    44   45   36 1
    45   46   45 1
    46   47   45 1
    47   48   45 1
    48   11   13 ar
    49   20   22 ar
@<TRIPOS>SUBSTRUCTURE
     1 RES1 1

@<TRIPOS>CRYSIN
  18.8092    5.7541   17.1354  90.0000 114.7040  90.0000  14 1

