# MOL2 file generated by ConQuest
# Please check atom types

@<TRIPOS>MOLECULE
DEGBEZ
   100    61     2
SMALL
NO_CHARGES
****
Generated from CSD

@<TRIPOS>ATOM
      1 N1         7.7728    4.2579    5.7588 N.am      1 RES1    0.0000
      2 H1         7.3868    4.2116    4.9915 H         1 RES1    0.0000
      3 N2         7.6520    1.6130    4.9460 N.pl3     1 RES1    0.0000
      4 O1         7.4137    4.5791    7.9817 O.2       1 RES1    0.0000
      5 O2         5.7357    4.5755    6.4774 O.3       1 RES1    0.0000
      6 O3         6.8142    1.4277    4.0721 O.2       1 RES1    0.0000
      7 O4         7.4359    1.4986    6.1477 O.2       1 RES1    0.0000
      8 C1        11.3463    4.9789    6.2900 C.ar      1 RES1    0.0000
      9 H2        11.8793    5.6049    6.7254 H         1 RES1    0.0000
     10 C2         9.9604    5.0039    6.4634 C.ar      1 RES1    0.0000
     11 H3         9.5707    5.6392    7.0196 H         1 RES1    0.0000
     12 C3         9.1773    4.0887    5.8109 C.ar      1 RES1    0.0000
     13 C4         9.7693    2.9894    5.1134 C.ar      1 RES1    0.0000
     14 C5         9.0361    1.9163    4.5341 C.ar      1 RES1    0.0000
     15 C6         7.0081    4.4868    6.8422 C.2       1 RES1    0.0000
     16 C7         4.8690    5.2971    7.3363 C.3       1 RES1    0.0000
     17 H4         5.3823    5.9958    7.7716 H         1 RES1    0.0000
     18 H5         4.5474    4.6970    8.0236 H         1 RES1    0.0000
     19 C8         3.6875    5.9281    6.6638 C.ar      1 RES1    0.0000
     20 C9         1.4017    5.8155    5.9212 C.ar      1 RES1    0.0000
     21 H6         0.5695    5.3967    5.9353 H         1 RES1    0.0000
     22 C10        2.4447    5.3031    6.6859 C.ar      1 RES1    0.0000
     23 H7         2.3125    4.5500    7.2109 H         1 RES1    0.0000
     24 H8         4.7180    7.4737    5.8646 H         1 RES1    0.0000
     25 H9         2.9749    8.3205    4.5890 H         1 RES1    0.0000
     26 H10        0.9007    7.2820    4.6244 H         1 RES1    0.0000
     27 C11        3.8871    7.0549    5.8791 C.ar      1 RES1    0.0000
     28 C12        2.8419    7.5673    5.1144 C.ar      1 RES1    0.0000
     29 C13        1.5992    6.9417    5.1354 C.ar      1 RES1    0.0000
     30 C14        4.9756    4.9694    7.4466 Du        2 SUP2    0.0000
     31 H11        5.1813    5.8788    7.7127 Du        2 SUP2    0.0000
     32 H12        5.0367    4.3824    8.2114 Du        2 SUP2    0.0000
     33 C15        3.6355    4.8800    6.7821 Du        2 SUP2    0.0000
     34 C16        3.3862    5.6308    5.6415 Du        2 SUP2    0.0000
     35 H13        4.0620    6.1513    5.2685 Du        2 SUP2    0.0000
     36 C17        2.1240    5.6129    5.0572 Du        2 SUP2    0.0000
     37 H14        1.9572    6.1156    4.2935 Du        2 SUP2    0.0000
     38 C18        1.1133    4.8383    5.6125 Du        2 SUP2    0.0000
     39 H15        0.2700    4.8228    5.2231 Du        2 SUP2    0.0000
     40 C19        1.3646    4.0816    6.7550 Du        2 SUP2    0.0000
     41 H16        0.6876    3.5656    7.1276 Du        2 SUP2    0.0000
     42 C20        2.6248    4.1054    7.3363 Du        2 SUP2    0.0000
     43 H17        2.7924    3.6012    8.1026 Du        2 SUP2    0.0000
     44 C21        4.6886    4.3020    7.9176 Du        2 SUP2    0.0000
     45 H18        4.9563    3.4917    8.3848 Du        2 SUP2    0.0000
     46 H19        4.7611    5.0476    8.5382 Du        2 SUP2    0.0000
     47 C22        3.2883    4.1769    7.4165 Du        2 SUP2    0.0000
     48 C23        2.2172    4.8085    8.0349 Du        2 SUP2    0.0000
     49 H20        2.3711    5.4577    8.6835 Du        2 SUP2    0.0000
     50 C24        0.9131    4.4748    7.6841 Du        2 SUP2    0.0000
     51 H21        0.1969    4.8992    8.0978 Du        2 SUP2    0.0000
     52 C25        0.6823    3.5036    6.7149 Du        2 SUP2    0.0000
     53 H22       -0.1896    3.2824    6.4795 Du        2 SUP2    0.0000
     54 C26        1.7535    2.8720    6.0956 Du        2 SUP2    0.0000
     55 H23        1.5981    2.2240    5.4470 Du        2 SUP2    0.0000
     56 C27        3.0554    3.2057    6.4463 Du        2 SUP2    0.0000
     57 H24        3.7723    2.7826    6.0327 Du        2 SUP2    0.0000
     58 C28        4.6940    4.4808    7.6370 Du        2 SUP2    0.0000
     59 H25        5.1250    4.1214    8.4244 Du        2 SUP2    0.0000
     60 H26        4.3742    5.3727    7.8485 Du        2 SUP2    0.0000
     61 C29        3.4370    3.5453    7.2351 Du        2 SUP2    0.0000
     62 C30        2.1995    4.1590    7.3864 Du        2 SUP2    0.0000
     63 H27        2.1382    4.9918    7.7907 Du        2 SUP2    0.0000
     64 C31        1.0492    3.5215    6.9354 Du        2 SUP2    0.0000
     65 H28        0.2204    3.9291    7.0325 Du        2 SUP2    0.0000
     66 C32        1.1390    2.2702    6.3241 Du        2 SUP2    0.0000
     67 H29        0.3707    1.8457    6.0229 Du        2 SUP2    0.0000
     68 C33        2.3786    1.6624    6.1737 Du        2 SUP2    0.0000
     69 H30        2.4388    0.8250    5.7716 Du        2 SUP2    0.0000
     70 C34        3.5284    2.2940    6.6348 Du        2 SUP2    0.0000
     71 H31        4.3567    1.8876    6.5298 Du        2 SUP2    0.0000
     72 N1B       13.1808    1.7006    4.2635 N.am      1 RES1    0.0000
     73 H1B       13.5668    1.7469    5.0308 H         1 RES1    0.0000
     74 N2B       13.3016    4.3455    5.0763 N.pl3     1 RES1    0.0000
     75 O1B       13.5399    1.3794    2.0405 O.2       1 RES1    0.0000
     76 O2B       15.2179    1.3830    3.5449 O.3       1 RES1    0.0000
     77 O3B       14.1394    4.5308    5.9502 O.2       1 RES1    0.0000
     78 O4B       13.5177    4.4599    3.8746 O.2       1 RES1    0.0000
     79 C1B        9.6073    0.9796    3.7323 C.ar      1 RES1    0.0000
     80 H2B        9.0743    0.3536    3.2968 H         1 RES1    0.0000
     81 C2B       10.9932    0.9546    3.5589 C.ar      1 RES1    0.0000
     82 H3B       11.3829    0.3193    3.0027 H         1 RES1    0.0000
     83 C3B       11.7763    1.8698    4.2114 C.ar      1 RES1    0.0000
     84 C4B       11.1843    2.9691    4.9089 C.ar      1 RES1    0.0000
     85 C5B       11.9175    4.0422    5.4882 C.ar      1 RES1    0.0000
     86 C6B       13.9454    1.4717    3.1801 C.2       1 RES1    0.0000
     87 C7B       16.0845    0.6614    2.6860 C.3       1 RES1    0.0000
     88 H4B       15.5713   -0.0373    2.2507 H         1 RES1    0.0000
     89 H5B       16.4062    1.2615    1.9987 H         1 RES1    0.0000
     90 C8B       17.2661    0.0304    3.3585 C.ar      1 RES1    0.0000
     91 C9B       19.5519    0.1430    4.1011 C.ar      1 RES1    0.0000
     92 H6B       20.3841    0.5618    4.0870 H         1 RES1    0.0000
     93 C10B      18.5089    0.6554    3.3364 C.ar      1 RES1    0.0000
     94 H7B       18.6411    1.4085    2.8114 H         1 RES1    0.0000
     95 H8B       16.2356   -1.5152    4.1577 H         1 RES1    0.0000
     96 H9B       17.9787   -2.3620    5.4333 H         1 RES1    0.0000
     97 H10B      20.0529   -1.3235    5.3979 H         1 RES1    0.0000
     98 C11B      17.0665   -1.0964    4.1432 C.ar      1 RES1    0.0000
     99 C12B      18.1116   -1.6088    4.9079 C.ar      1 RES1    0.0000
    100 C13B      19.3544   -0.9832    4.8869 C.ar      1 RES1    0.0000
@<TRIPOS>BOND
     1    1    2 1
     2    3    6 2
     3    4   15 2
     4    5   15 1
     5    7    3 2
     6    8    9 1
     7   10    8 ar
     8   11   10 1
     9   12    1 1
    10   13   12 ar
    11   14    3 1
    12   15    1 1
    13   16    5 1
    14   17   16 1
    15   18   16 1
    16   19   16 1
    17   20   21 1
    18   22   19 ar
    19   23   22 1
    20   24   27 1
    21   25   28 1
    22   26   29 1
    23   27   19 ar
    24   28   27 ar
    25   29   20 ar
    26   72   73 1
    27   74   77 2
    28   75   86 2
    29   76   86 1
    30   78   74 2
    31   79   14 ar
    32   80   79 1
    33   81   79 ar
    34   82   81 1
    35   83   72 1
    36   84   13 ar
    37   85    8 ar
    38   86   72 1
    39   87   76 1
    40   88   87 1
    41   89   87 1
    42   90   87 1
    43   91   92 1
    44   93   90 ar
    45   94   93 1
    46   95   98 1
    47   96   99 1
    48   97  100 1
    49   98   90 ar
    50   99   98 ar
    51  100   91 ar
    52   10   12 ar
    53   13   14 ar
    54   20   22 ar
    55   28   29 ar
    56   74   85 1
    57   81   83 ar
    58   83   84 ar
    59   84   85 ar
    60   91   93 ar
    61   99  100 ar
@<TRIPOS>SUBSTRUCTURE
     1 RES1 1
     2 SUP2 30

@<TRIPOS>CRYSIN
  21.3740    5.9585   10.0311  90.0000  92.4020  90.0000  14 1

