# MOL2 file generated by ConQuest
# Please check atom types

@<TRIPOS>MOLECULE
DEGCEY
    34    35     1
SMALL
NO_CHARGES
****
Generated from CSD

@<TRIPOS>ATOM
      1 O1         2.4821   -3.5952    5.7061 O.2       1 RES1    0.0000
      2 O2         1.7045   -5.1536    6.9962 O.2       1 RES1    0.0000
      3 O3        -1.2242   -0.5985   11.1266 O.2       1 RES1    0.0000
      4 O4        -1.2533    7.7748   10.8769 O.3       1 RES1    0.0000
      5 N1         1.8452   -3.9704    6.6879 N.pl3     1 RES1    0.0000
      6 C1         0.5571   -0.7052    7.9568 C.ar      1 RES1    0.0000
      7 H1         0.4962    0.1824    7.6863 H         1 RES1    0.0000
      8 C2         1.1575   -1.6429    7.1185 C.ar      1 RES1    0.0000
      9 H2         1.5095   -1.3930    6.2952 H         1 RES1    0.0000
     10 C3         1.2145   -2.9624    7.5508 C.ar      1 RES1    0.0000
     11 C4         0.7191   -3.3767    8.7785 C.ar      1 RES1    0.0000
     12 H3         0.7749   -4.2670    9.0438 H         1 RES1    0.0000
     13 C5         0.1399   -2.4258    9.5966 C.ar      1 RES1    0.0000
     14 H4        -0.1938   -2.6799   10.4272 H         1 RES1    0.0000
     15 C6         0.0461   -1.0876    9.1995 C.ar      1 RES1    0.0000
     16 C7        -0.6385   -0.1398   10.1466 C.2       1 RES1    0.0000
     17 C8        -0.5795    1.3145    9.8824 C.2       1 RES1    0.0000
     18 H5        -0.0981    1.6452    9.1578 H         1 RES1    0.0000
     19 C9        -1.2358    2.1508   10.7082 C.2       1 RES1    0.0000
     20 H6        -1.7343    1.7461   11.3805 H         1 RES1    0.0000
     21 C10       -1.2661    3.6090   10.6847 C.ar      1 RES1    0.0000
     22 C11       -1.8572    4.2649   11.7675 C.ar      1 RES1    0.0000
     23 H7        -2.2565    3.7548   12.4349 H         1 RES1    0.0000
     24 C12       -1.8720    5.6486   11.8872 C.ar      1 RES1    0.0000
     25 H8        -2.2530    6.0596   12.6292 H         1 RES1    0.0000
     26 C13       -1.3025    6.4035   10.8681 C.ar      1 RES1    0.0000
     27 C14       -0.7319    5.7810    9.7482 C.ar      1 RES1    0.0000
     28 H9        -0.3745    6.2963    9.0619 H         1 RES1    0.0000
     29 C15       -0.6997    4.4007    9.6637 C.ar      1 RES1    0.0000
     30 H10       -0.3024    3.9915    8.9298 H         1 RES1    0.0000
     31 C16       -1.8382    8.4245   12.0111 C.3       1 RES1    0.0000
     32 H11       -1.7499    9.3759   11.9168 H         1 RES1    0.0000
     33 H12       -1.3889    8.1394   12.8105 H         1 RES1    0.0000
     34 H13       -2.7686    8.1938   12.0670 H         1 RES1    0.0000
@<TRIPOS>BOND
     1    1    5 2
     2    2    5 2
     3    3   16 2
     4    4   26 1
     5    5   10 1
     6    6    7 1
     7    8    6 ar
     8    9    8 1
     9   10    8 ar
    10   11   10 ar
    11   12   11 1
    12   13   11 ar
    13   14   13 1
    14   15    6 ar
    15   16   15 1
    16   17   16 1
    17   18   17 1
    18   19   17 2
    19   20   19 1
    20   21   19 1
    21   22   21 ar
    22   23   22 1
    23   24   22 ar
    24   25   24 1
    25   26   24 ar
    26   27   26 ar
    27   28   27 1
    28   29   21 ar
    29   30   29 1
    30   31    4 1
    31   32   31 1
    32   33   31 1
    33   34   31 1
    34   13   15 ar
    35   27   29 ar
@<TRIPOS>SUBSTRUCTURE
     1 RES1 1

@<TRIPOS>CRYSIN
   3.8765   12.9341   25.9060  90.0000  90.0000  90.0000  19 1

