# MOL2 file generated by ConQuest
# Please check atom types

@<TRIPOS>MOLECULE
DEGLEH
    38    40     1
SMALL
NO_CHARGES
****
Generated from CSD

@<TRIPOS>ATOM
      1 O1        -0.0792   13.5205    1.4434 O.2       1 RES1    0.0000
      2 O2        -2.2127   13.8761    1.4388 O.2       1 RES1    0.0000
      3 N1        -1.2406   13.1289    1.4915 N.pl3     1 RES1    0.0000
      4 N2        -1.9601    7.6798    1.7069 N.3       1 RES1    0.0000
      5 N3         0.1290    8.3740    1.3012 N.2       1 RES1    0.0000
      6 N4        -2.2535    6.1595    4.2225 N.3       1 RES1    0.0000
      7 C1        -2.0069    9.0477    1.7304 C.ar      1 RES1    0.0000
      8 C2        -3.0561    9.9356    1.9294 C.ar      1 RES1    0.0000
      9 C3        -2.7822   11.2787    1.8572 C.ar      1 RES1    0.0000
     10 C4        -1.4777   11.6896    1.5763 C.ar      1 RES1    0.0000
     11 C5        -0.4230   10.8345    1.3769 C.ar      1 RES1    0.0000
     12 C6        -0.6979    9.4766    1.4640 C.ar      1 RES1    0.0000
     13 C7        -0.6606    7.3491    1.4583 C.2       1 RES1    0.0000
     14 C8        -3.0586    6.7500    1.9684 C.3       1 RES1    0.0000
     15 C9        -3.3707    6.6561    3.4347 C.3       1 RES1    0.0000
     16 C10       -2.3190    6.5976    5.6049 C.3       1 RES1    0.0000
     17 C11       -1.0887    6.1910    6.3535 C.3       1 RES1    0.0000
     18 C12       -0.8653    4.7019    6.2985 C.3       1 RES1    0.0000
     19 C13       -0.9140    4.2230    4.8746 C.3       1 RES1    0.0000
     20 C14       -2.1449    4.7098    4.1707 C.3       1 RES1    0.0000
     21 H1        -3.8930    9.6241    2.0407 H         1 RES1    0.0000
     22 H2        -3.4421   12.1505    1.9971 H         1 RES1    0.0000
     23 H3         0.4495   11.0915    1.1579 H         1 RES1    0.0000
     24 H4        -0.4055    6.3860    1.4216 H         1 RES1    0.0000
     25 H5        -3.8819    7.0839    1.5248 H         1 RES1    0.0000
     26 H6        -2.7226    5.8783    1.5821 H         1 RES1    0.0000
     27 H7        -4.1422    6.0874    3.5310 H         1 RES1    0.0000
     28 H8        -3.5949    7.5440    3.7030 H         1 RES1    0.0000
     29 H9        -3.1195    6.0631    6.0990 H         1 RES1    0.0000
     30 H10       -2.2827    7.5450    5.5029 H         1 RES1    0.0000
     31 H11       -1.0570    6.5896    7.2340 H         1 RES1    0.0000
     32 H12       -0.4074    6.5813    5.8468 H         1 RES1    0.0000
     33 H13       -0.0937    4.4116    6.7296 H         1 RES1    0.0000
     34 H14       -1.5641    4.2770    6.7181 H         1 RES1    0.0000
     35 H15       -0.2842    4.6162    4.4252 H         1 RES1    0.0000
     36 H16       -0.9548    3.3218    4.8723 H         1 RES1    0.0000
     37 H17       -2.1047    4.4396    3.2788 H         1 RES1    0.0000
     38 H18       -2.9453    4.3467    4.6431 H         1 RES1    0.0000
@<TRIPOS>BOND
     1    1    3 2
     2    2    3 2
     3    3   10 1
     4    4    7 1
     5    5   12 1
     6    6   15 1
     7    7    8 ar
     8    8    9 ar
     9    9   10 ar
    10   10   11 ar
    11   11   12 ar
    12   12    7 ar
    13   13    4 1
    14   14    4 1
    15   15   14 1
    16   16    6 1
    17   17   16 1
    18   18   17 1
    19   19   18 1
    20   20    6 1
    21   21    8 1
    22   22    9 1
    23   23   11 1
    24   24   13 1
    25   25   14 1
    26   26   14 1
    27   27   15 1
    28   28   15 1
    29   29   16 1
    30   30   16 1
    31   31   17 1
    32   32   17 1
    33   33   18 1
    34   34   18 1
    35   35   19 1
    36   36   19 1
    37   37   20 1
    38   38   20 1
    39    5   13 2
    40   19   20 1
@<TRIPOS>SUBSTRUCTURE
     1 RES1 1

@<TRIPOS>CRYSIN
   6.3202   10.1321   12.4362 104.1090 103.9530 102.5460   2 1

