# MOL2 file generated by ConQuest
# Please check atom types

@<TRIPOS>MOLECULE
DEJKAG
    70    73     1
SMALL
USER_CHARGES
****
Generated from CSD

@<TRIPOS>ATOM
      1 C1         1.9233   -2.4572    3.8988 C.ar      1 RES1    0.0000
      2 H1         1.5462   -2.2404    4.7199 H         1 RES1    0.0000
      3 C2         1.5054   -3.5841    3.2416 C.ar      1 RES1    0.0000
      4 H2         0.8388   -4.1171    3.6129 H         1 RES1    0.0000
      5 C3         2.0622   -3.9289    2.0452 C.ar      1 RES1    0.0000
      6 H3         1.7718   -4.6909    1.5985 H         1 RES1    0.0000
      7 C4         3.0493   -3.1504    1.5061 C.ar      1 RES1    0.0000
      8 H4         3.4420   -3.3933    0.6990 H         1 RES1    0.0000
      9 C5         3.4617   -2.0107    2.1544 C.ar      1 RES1    0.0000
     10 H5         4.1283   -1.4848    1.7772 H         1 RES1    0.0000
     11 C6         2.8996   -1.6370    3.3568 C.ar      1 RES1    0.0000
     12 C7         3.2664   -0.3891    4.0438 C.2       1 RES1    0.0000
     13 C8         3.1339    1.0037    3.5027 C.3       1 RES1    0.0000
     14 C9         3.5090    1.8863    4.7249 C.3       1 RES1    0.0000
     15 H6         4.2638    2.4558    4.5075 H         1 RES1    0.0000
     16 H7         2.7593    2.4487    4.9741 H         1 RES1    0.0000
     17 C10        3.8705    0.9505    5.8726 C.3       1 RES1    0.0000
     18 H8         4.8262    1.0505    6.0672 H         1 RES1    0.0000
     19 C11        3.0961    1.0807    7.1752 C.3       1 RES1    0.0000
     20 H9         3.1266    0.2119    7.6269 H         1 RES1    0.0000
     21 C12        3.6626    2.1031    8.1214 C.ar      1 RES1    0.0000
     22 C13        3.6778    1.8202    9.4726 C.ar      1 RES1    0.0000
     23 H10        3.3287    1.0116    9.7705 H         1 RES1    0.0000
     24 C14        4.1985    2.7065   10.3870 C.ar      1 RES1    0.0000
     25 H11        4.1997    2.4929   11.2925 H         1 RES1    0.0000
     26 C15        4.7150    3.9033    9.9650 C.ar      1 RES1    0.0000
     27 H12        5.0708    4.5020   10.5806 H         1 RES1    0.0000
     28 C16        4.7042    4.2121    8.6287 C.ar      1 RES1    0.0000
     29 H13        5.0437    5.0281    8.3388 H         1 RES1    0.0000
     30 C17        4.1907    3.3176    7.7123 C.ar      1 RES1    0.0000
     31 H14        4.1995    3.5328    6.8069 H         1 RES1    0.0000
     32 C18        4.0883    1.2876    2.3441 C.3       1 RES1    0.0000
     33 H15        4.9872    1.0840    2.6131 H         1 RES1    0.0000
     34 H16        4.0297    2.2139    2.1018 H         1 RES1    0.0000
     35 H17        3.8478    0.7433    1.5915 H         1 RES1    0.0000
     36 C19        1.6952    1.2351    3.0470 C.3       1 RES1    0.0000
     37 H18        1.4709    0.6020    2.3610 H         1 RES1    0.0000
     38 H19        1.6089    2.1257    2.7015 H         1 RES1    0.0000
     39 H20        1.1012    1.1229    3.7936 H         1 RES1    0.0000
     40 C20        0.0476   -0.0281    7.7739 C.3       1 RES1    0.0000
     41 C21       -1.0679    0.0129    8.8163 C.3       1 RES1    0.0000
     42 H21       -1.6042   -0.7909    8.7320 H         1 RES1    0.0000
     43 H22       -0.6682    0.0088    9.7010 H         1 RES1    0.0000
     44 C22       -1.9686    1.2124    8.6972 C.3       1 RES1    0.0000
     45 H23       -2.4348    1.1935    7.8473 H         1 RES1    0.0000
     46 H24       -2.6292    1.2041    9.4091 H         1 RES1    0.0000
     47 C23       -1.1260    2.4487    8.7945 C.3       1 RES1    0.0000
     48 H25       -0.7257    2.4858    9.6771 H         1 RES1    0.0000
     49 H26       -1.6984    3.2256    8.6992 H         1 RES1    0.0000
     50 C24       -0.0176    2.5250    7.7481 C.3       1 RES1    0.0000
     51 C25        1.0133   -1.1342    8.1760 C.3       1 RES1    0.0000
     52 H27        1.6557   -1.2694    7.4760 H         1 RES1    0.0000
     53 H28        0.5245   -1.9473    8.3229 H         1 RES1    0.0000
     54 H29        1.4673   -0.8845    8.9841 H         1 RES1    0.0000
     55 C26       -0.5214   -0.3723    6.3988 C.3       1 RES1    0.0000
     56 H30       -1.2977    0.1677    6.2300 H         1 RES1    0.0000
     57 H31       -0.7661   -1.2994    6.3779 H         1 RES1    0.0000
     58 H32        0.1404   -0.2013    5.7267 H         1 RES1    0.0000
     59 C27       -0.6028    2.8119    6.3571 C.3       1 RES1    0.0000
     60 H33        0.0699    2.6606    5.6899 H         1 RES1    0.0000
     61 H34       -0.8947    3.7252    6.3144 H         1 RES1    0.0000
     62 H35       -1.3498    2.2298    6.1973 H         1 RES1    0.0000
     63 C28        0.8907    3.6811    8.1283 C.3       1 RES1    0.0000
     64 H36        1.3765    3.4568    8.9256 H         1 RES1    0.0000
     65 H37        0.3599    4.4649    8.2862 H         1 RES1    0.0000
     66 H38        1.5083    3.8506    7.4145 H         1 RES1    0.0000
     67 N1         3.6436   -0.4025    5.2894 N.pl3     1 RES1    1.0000
     68 N2         0.7812    1.2690    7.8635 N.3       1 RES1    0.0000
     69 O1         1.7321    1.3105    6.7622 O.3       1 RES1    0.0000
     70 O2         3.8509   -1.4315    6.0331 O.2       1 RES1   -1.0000
@<TRIPOS>BOND
     1    1    2 1
     2    3    1 ar
     3    4    3 1
     4    5    3 ar
     5    6    5 1
     6    7    5 ar
     7    8    7 1
     8    9    7 ar
     9   10    9 1
    10   11    1 ar
    11   12   11 1
    12   13   12 1
    13   14   13 1
    14   15   14 1
    15   16   14 1
    16   17   14 1
    17   18   17 1
    18   19   17 1
    19   20   19 1
    20   21   19 1
    21   22   21 ar
    22   23   22 1
    23   24   22 ar
    24   25   24 1
    25   26   24 ar
    26   27   26 1
    27   28   26 ar
    28   29   28 1
    29   30   21 ar
    30   31   30 1
    31   32   13 1
    32   33   32 1
    33   34   32 1
    34   35   32 1
    35   36   13 1
    36   37   36 1
    37   38   36 1
    38   39   36 1
    39   40   41 1
    40   41   42 1
    41   43   41 1
    42   44   41 1
    43   45   44 1
    44   46   44 1
    45   47   44 1
    46   48   47 1
    47   49   47 1
    48   50   47 1
    49   51   40 1
    50   52   51 1
    51   53   51 1
    52   54   51 1
    53   55   40 1
    54   56   55 1
    55   57   55 1
    56   58   55 1
    57   59   50 1
    58   60   59 1
    59   61   59 1
    60   62   59 1
    61   63   50 1
    62   64   63 1
    63   65   63 1
    64   66   63 1
    65   67   12 2
    66   68   40 1
    67   69   19 1
    68   70   67 1
    69    9   11 ar
    70   17   67 1
    71   28   30 ar
    72   50   68 1
    73   68   69 1
@<TRIPOS>SUBSTRUCTURE
     1 RES1 1

@<TRIPOS>CRYSIN
  14.0320   17.6550   10.3520  90.0000 106.4490  90.0000  14 1

