# MOL2 file generated by ConQuest
# Please check atom types

@<TRIPOS>MOLECULE
DEJVEW
    39    40     1
SMALL
NO_CHARGES
****
Generated from CSD

@<TRIPOS>ATOM
      1 O1         1.7829    4.4949    4.7329 O.2       1 RES1    0.0000
      2 O2         1.6575    0.3938    2.5464 O.2       1 RES1    0.0000
      3 O3         7.2362    6.0287    0.4309 O.2       1 RES1    0.0000
      4 O4         6.5527    5.0861   -1.4164 O.3       1 RES1    0.0000
      5 N1         1.4502    3.3603    4.2646 N.pl3     1 RES1    0.0000
      6 N2         0.1658    1.5614    3.8416 N.am      1 RES1    0.0000
      7 C1         0.0848    2.8098    4.5743 C.3       1 RES1    0.0000
      8 C2         1.3400    1.3783    3.2356 C.2       1 RES1    0.0000
      9 C3         2.1683    2.5526    3.5246 C.2       1 RES1    0.0000
     10 C4        -0.9777    3.7343    4.0222 C.3       1 RES1    0.0000
     11 H1        -0.8827    3.8034    3.0594 H         1 RES1    0.0000
     12 H2        -0.8679    4.6206    4.4011 H         1 RES1    0.0000
     13 C5        -2.3640    3.1977    4.3638 C.3       1 RES1    0.0000
     14 H3        -3.0375    3.8225    4.0534 H         1 RES1    0.0000
     15 H4        -2.5041    2.3528    3.9084 H         1 RES1    0.0000
     16 C6        -2.5121    2.9968    5.8635 C.3       1 RES1    0.0000
     17 H5        -3.3871    2.6249    6.0538 H         1 RES1    0.0000
     18 H6        -2.4455    3.8544    6.3121 H         1 RES1    0.0000
     19 C7        -1.4376    2.0606    6.4015 C.3       1 RES1    0.0000
     20 H7        -1.5293    1.9830    7.3644 H         1 RES1    0.0000
     21 H8        -1.5543    1.1775    6.0165 H         1 RES1    0.0000
     22 C8        -0.0513    2.5792    6.0642 C.3       1 RES1    0.0000
     23 H9         0.1059    3.4123    6.5368 H         1 RES1    0.0000
     24 H10        0.6158    1.9373    6.3550 H         1 RES1    0.0000
     25 C9         3.5538    2.8417    3.0808 C.3       1 RES1    0.0000
     26 H11        3.9849    2.0096    2.8329 H         1 RES1    0.0000
     27 H12        4.0493    3.2221    3.8233 H         1 RES1    0.0000
     28 C10        3.6146    3.7811    1.9269 C.3       1 RES1    0.0000
     29 H13        3.1715    4.6068    2.1797 H         1 RES1    0.0000
     30 H14        3.1134    3.3953    1.1912 H         1 RES1    0.0000
     31 C11        5.0042    4.1148    1.4354 C.3       1 RES1    0.0000
     32 H15        5.5365    4.4155    2.1889 H         1 RES1    0.0000
     33 H16        5.4139    3.3050    1.0920 H         1 RES1    0.0000
     34 C12        5.0461    5.1435    0.3881 C.3       1 RES1    0.0000
     35 H17        4.6548    5.9543    0.7486 H         1 RES1    0.0000
     36 H18        4.4810    4.8502   -0.3434 H         1 RES1    0.0000
     37 C13        6.3862    5.4857   -0.1726 C.2       1 RES1    0.0000
     38 H19       -0.4574    1.0414    3.7951 H         1 RES1    0.0000
     39 H20        7.3633    5.3666   -1.7078 H         1 RES1    0.0000
@<TRIPOS>BOND
     1    1    5 1
     2    2    8 2
     3    3   37 2
     4    4   37 1
     5    5    7 1
     6    6    7 1
     7    7   10 1
     8    8    6 1
     9    9    5 2
    10   10   11 1
    11   12   10 1
    12   13   10 1
    13   14   13 1
    14   15   13 1
    15   16   13 1
    16   17   16 1
    17   18   16 1
    18   19   16 1
    19   20   19 1
    20   21   19 1
    21   22    7 1
    22   23   22 1
    23   24   22 1
    24   25    9 1
    25   26   25 1
    26   27   25 1
    27   28   25 1
    28   29   28 1
    29   30   28 1
    30   31   28 1
    31   32   31 1
    32   33   31 1
    33   34   31 1
    34   35   34 1
    35   36   34 1
    36   37   34 1
    37   38    6 1
    38   39    4 1
    39    8    9 1
    40   19   22 1
@<TRIPOS>SUBSTRUCTURE
     1 RES1 1

@<TRIPOS>CRYSIN
  21.2150   10.6270    6.1290  90.0000  92.9000  90.0000  14 2

