# MOL2 file generated by ConQuest
# Please check atom types

@<TRIPOS>MOLECULE
DEJWIY
    35    35     1
SMALL
NO_CHARGES
****
Generated from CSD

@<TRIPOS>ATOM
      1 O1         2.3025    2.3216    8.7048 O.2       1 RES1    0.0000
      2 O2         3.3384    3.5645    9.9737 O.2       1 RES1    0.0000
      3 O3        -1.4085    7.6692    8.5483 O.2       1 RES1    0.0000
      4 O4         0.6936    7.6839    8.1146 O.2       1 RES1    0.0000
      5 O5        -2.2077    2.6748   11.9140 O.2       1 RES1    0.0000
      6 O6        -2.6484    4.7272   12.2312 O.2       1 RES1    0.0000
      7 O7        -0.3164   -0.1523   10.9917 O.2       1 RES1    0.0000
      8 O8        -0.9433    1.3585    9.4575 O.3       1 RES1    0.0000
      9 O9         1.2995    0.6824   12.8308 O.3       1 RES1    0.0000
     10 N1         2.3259    3.1660    9.4370 N.pl3     1 RES1    0.0000
     11 N2        -0.2985    7.1912    8.5984 N.pl3     1 RES1    0.0000
     12 N3        -1.9970    3.8580   11.7280 N.pl3     1 RES1    0.0000
     13 C1         0.1850    3.4552   10.5908 C.ar      1 RES1    0.0000
     14 C2         1.1229    3.9811    9.7177 C.ar      1 RES1    0.0000
     15 C3         1.0064    5.1726    9.0757 C.ar      1 RES1    0.0000
     16 C4        -0.1297    5.9089    9.3047 C.ar      1 RES1    0.0000
     17 C5        -1.1150    5.4805   10.1557 C.ar      1 RES1    0.0000
     18 C6        -0.9371    4.2659   10.7909 C.ar      1 RES1    0.0000
     19 C7         0.3616    2.1111   11.2135 C.2       1 RES1    0.0000
     20 C8        -0.3197    0.9937   10.5726 C.2       1 RES1    0.0000
     21 C9        -1.7438    0.3601    8.7646 C.3       1 RES1    0.0000
     22 C10       -2.2078    0.9927    7.5131 C.3       1 RES1    0.0000
     23 C11        1.1136    1.9033   12.3041 C.2       1 RES1    0.0000
     24 C12        1.8178    2.9737   13.0808 C.3       1 RES1    0.0000
     25 H1         1.6696    5.4761    8.4705 H         1 RES1    0.0000
     26 H2        -1.8860    6.0094   10.3283 H         1 RES1    0.0000
     27 H3        -2.5301    0.1037    9.3804 H         1 RES1    0.0000
     28 H4        -1.2419   -0.4689    8.6292 H         1 RES1    0.0000
     29 H5        -2.7827    1.8192    7.8197 H         1 RES1    0.0000
     30 H6        -1.4164    1.0387    6.9394 H         1 RES1    0.0000
     31 H7        -2.7576    0.3887    7.0056 H         1 RES1    0.0000
     32 H8         1.3193    2.9126   13.8291 H         1 RES1    0.0000
     33 H9         2.7133    2.7502   12.8922 H         1 RES1    0.0000
     34 H10        1.6444    3.8397   12.7770 H         1 RES1    0.0000
     35 H11        0.7144    0.0863   12.3584 H         1 RES1    0.0000
@<TRIPOS>BOND
     1    1   10 2
     2    2   10 2
     3    3   11 2
     4    4   11 2
     5    5   12 2
     6    6   12 2
     7    7   20 2
     8    8   20 1
     9    9   23 1
    10   10   14 1
    11   11   16 1
    12   12   18 1
    13   13   14 ar
    14   14   15 ar
    15   15   16 ar
    16   16   17 ar
    17   17   18 ar
    18   18   13 ar
    19   19   13 1
    20   20   19 1
    21   21    8 1
    22   22   21 1
    23   23   19 2
    24   24   23 1
    25   25   15 1
    26   26   17 1
    27   27   21 1
    28   28   21 1
    29   29   22 1
    30   30   22 1
    31   31   22 1
    32   32   24 1
    33   33   24 1
    34   34   24 1
    35   35    9 1
@<TRIPOS>SUBSTRUCTURE
     1 RES1 1

