# MOL2 file generated by ConQuest
# Please check atom types

@<TRIPOS>MOLECULE
DEJWAQ
    32    34     1
SMALL
NO_CHARGES
****
Generated from CSD

@<TRIPOS>ATOM
      1 N1         3.5625    1.5701   17.3270 N.pl3     1 RES1    0.0000
      2 C1         4.9923    1.5643   17.6464 C.3       1 RES1    0.0000
      3 C2         5.6435    2.8995   17.4313 C.3       1 RES1    0.0000
      4 C3         2.5292    1.7178   18.2297 C.2       1 RES1    0.0000
      5 C4         2.7362    1.8120   19.6896 C.3       1 RES1    0.0000
      6 N2         1.3343    1.7546   17.6936 N.2       1 RES1    0.0000
      7 C5         1.5854    1.6352   16.3380 C.2       1 RES1    0.0000
      8 N3         0.6238    1.6178   15.4646 N.2       1 RES1    0.0000
      9 O1         1.1058    1.4985   14.1383 O.3       1 RES1    0.0000
     10 C6         2.4369    1.3933   13.7733 C.2       1 RES1    0.0000
     11 O2         2.6302    1.3288   12.5871 O.2       1 RES1    0.0000
     12 C7         3.4561    1.3675   14.8177 C.2       1 RES1    0.0000
     13 C8         4.8577    1.1534   14.3990 C.ar      1 RES1    0.0000
     14 C9         5.4799   -0.0542   14.6678 C.ar      1 RES1    0.0000
     15 C10        6.7698   -0.2632   14.3110 C.ar      1 RES1    0.0000
     16 C11        7.4697    0.7044   13.6788 C.ar      1 RES1    0.0000
     17 C12        6.8884    1.8965   13.3529 C.ar      1 RES1    0.0000
     18 C13        5.5704    2.1268   13.7326 C.ar      1 RES1    0.0000
     19 C14        2.9861    1.5152   16.0675 C.2       1 RES1    0.0000
     20 H1         5.4373    0.9037   17.0924 H         1 RES1    0.0000
     21 H2         5.1090    1.3011   18.5719 H         1 RES1    0.0000
     22 H3         6.5730    2.8434   17.6627 H         1 RES1    0.0000
     23 H4         5.2143    3.5569   17.9853 H         1 RES1    0.0000
     24 H5         5.5559    3.1537   16.5107 H         1 RES1    0.0000
     25 H6         2.0618    2.3770   20.0725 H         1 RES1    0.0000
     26 H7         3.6034    2.1835   19.8672 H         1 RES1    0.0000
     27 H8         2.6778    0.9360   20.0791 H         1 RES1    0.0000
     28 H9         5.0068   -0.7296   15.0996 H         1 RES1    0.0000
     29 H10        7.1762   -1.0773   14.5033 H         1 RES1    0.0000
     30 H11        8.3617    0.5560   13.4605 H         1 RES1    0.0000
     31 H12        7.3658    2.5441   12.8869 H         1 RES1    0.0000
     32 H13        5.1686    2.9415   13.5370 H         1 RES1    0.0000
@<TRIPOS>BOND
     1    1    2 1
     2    2    3 1
     3    3   22 1
     4    4    1 1
     5    5    4 1
     6    6    4 2
     7    7    6 1
     8    8    7 2
     9    9    8 1
    10   10    9 1
    11   11   10 2
    12   12   10 1
    13   13   12 1
    14   14   13 ar
    15   15   14 ar
    16   16   15 ar
    17   17   16 ar
    18   18   13 ar
    19   19    1 1
    20   20    2 1
    21   21    2 1
    22   23    3 1
    23   24    3 1
    24   25    5 1
    25   26    5 1
    26   27    5 1
    27   28   14 1
    28   29   15 1
    29   30   16 1
    30   31   17 1
    31   32   18 1
    32    7   19 1
    33   12   19 2
    34   17   18 ar
@<TRIPOS>SUBSTRUCTURE
     1 RES1 1

@<TRIPOS>CRYSIN
  12.1835    6.4506   16.8724  90.0000 105.0460  90.0000 231 1

