# MOL2 file generated by ConQuest
# Please check atom types

@<TRIPOS>MOLECULE
DEJWOG
    93    93     1
SMALL
NO_CHARGES
****
Generated from CSD

@<TRIPOS>ATOM
      1 O1         5.9318   11.0589    1.4108 O.3       1 RES1    0.0000
      2 O2         3.0071   13.6111   -0.1872 O.3       1 RES1    0.0000
      3 O3         5.8764   15.9209    3.2985 O.3       1 RES1    0.0000
      4 O4         2.3310   13.2164    2.8316 O.3       1 RES1    0.0000
      5 N1         3.0613   14.3903    2.5340 N.am      1 RES1    0.0000
      6 N2         7.3105   14.4690    1.2550 N.am      1 RES1    0.0000
      7 H1         6.8039   15.0008    0.8099 H         1 RES1    0.0000
      8 O5         1.0618   15.3739    2.5842 O.3       1 RES1    0.0000
      9 O6         9.1111   15.6759    0.6596 O.2       1 RES1    0.0000
     10 O7         2.8619   16.5034    1.8063 O.2       1 RES1    0.0000
     11 O8         4.9443   11.6859   -1.0305 O.3       1 RES1    0.0000
     12 C1         4.2741   14.0870    1.7642 C.3       1 RES1    0.0000
     13 H2         4.5563   14.9119    1.3151 H         1 RES1    0.0000
     14 O9         9.2837   13.9969    2.1571 O.3       1 RES1    0.0000
     15 C2         5.6196   14.6226    3.8833 C.3       1 RES1    0.0000
     16 C3         8.6183   14.7685    1.3171 C.2       1 RES1    0.0000
     17 C4         5.4238   13.6428    2.7004 C.3       1 RES1    0.0000
     18 H3         5.1345   12.7951    3.0974 H         1 RES1    0.0000
     19 C5         6.3829   12.2836    0.7779 C.3       1 RES1    0.0000
     20 H4         7.1866   12.1123    0.2446 H         1 RES1    0.0000
     21 C6         6.6848   13.3116    1.8825 C.3       1 RES1    0.0000
     22 H5         7.3378   12.9118    2.4939 H         1 RES1    0.0000
     23 C7         2.3340   15.5249    2.2534 C.2       1 RES1    0.0000
     24 C8         3.9977   13.0514    0.6937 C.3       1 RES1    0.0000
     25 O10        6.6283   14.7622    6.0204 O.3       1 RES1    0.0000
     26 C9         5.2524   12.7481   -0.1123 C.3       1 RES1    0.0000
     27 O11        2.4598   13.8319    4.9819 O.2       1 RES1    0.0000
     28 C10        6.8765   10.1325    1.6680 C.2       1 RES1    0.0000
     29 C11        2.0922   13.0527    4.1760 C.2       1 RES1    0.0000
     30 O12        4.5320   16.9476    4.7974 O.2       1 RES1    0.0000
     31 C12        5.1957   16.9793    3.8111 C.2       1 RES1    0.0000
     32 O13        1.8333   11.7125   -0.1824 O.2       1 RES1    0.0000
     33 C13        1.3960   11.7899    4.4105 C.3       1 RES1    0.0000
     34 H6         1.2782   11.3305    3.5765 H         1 RES1    0.0000
     35 H7         0.5372   11.9663    4.8035 H         1 RES1    0.0000
     36 H8         1.9145   11.2442    5.0059 H         1 RES1    0.0000
     37 C14        6.8051   14.1809    4.7132 C.3       1 RES1    0.0000
     38 H9         6.8354   13.2126    4.7754 H         1 RES1    0.0000
     39 H10        7.6343   14.4906    4.3143 H         1 RES1    0.0000
     40 C15        7.7028   14.8497    6.7862 C.2       1 RES1    0.0000
     41 C16        6.2778    8.9065    2.2594 C.3       1 RES1    0.0000
     42 H11        5.3218    8.9966    2.2834 H         1 RES1    0.0000
     43 H12        6.6096    8.7872    3.1515 H         1 RES1    0.0000
     44 H13        6.5129    8.1451    1.7261 H         1 RES1    0.0000
     45 C17        5.4411   18.1773    2.9310 C.3       1 RES1    0.0000
     46 H14        6.0348   17.9349    2.2173 H         1 RES1    0.0000
     47 H15        5.8354   18.8817    3.4502 H         1 RES1    0.0000
     48 H16        4.6076   18.4806    2.5641 H         1 RES1    0.0000
     49 C18        1.9834   12.8281   -0.5754 C.2       1 RES1    0.0000
     50 C19       10.7294   14.0604    2.3596 C.3       1 RES1    0.0000
     51 O14        8.0418   10.3482    1.4815 O.2       1 RES1    0.0000
     52 C20        5.0484   11.8864   -2.3115 C.2       1 RES1    0.0000
     53 C21        0.1801   16.5579    2.6583 C.3       1 RES1    0.0000
     54 C22        1.0770   13.5388   -1.5016 C.3       1 RES1    0.0000
     55 H17        1.4742   14.3726   -1.7622 H         1 RES1    0.0000
     56 H18        0.2419   13.7075   -1.0625 H         1 RES1    0.0000
     57 H19        0.9270   12.9981   -2.2794 H         1 RES1    0.0000
     58 O15        8.8015   14.5870    6.4013 O.2       1 RES1    0.0000
     59 C23        4.7210   10.7366   -3.1375 C.3       1 RES1    0.0000
     60 H20        4.8782   10.9498   -4.0597 H         1 RES1    0.0000
     61 H21        3.7973   10.5056   -3.0152 H         1 RES1    0.0000
     62 H22        5.2735    9.9929   -2.8829 H         1 RES1    0.0000
     63 C24       -1.1147   15.9450    3.1114 C.3       1 RES1    0.0000
     64 H23       -1.0019   15.5706    3.9895 H         1 RES1    0.0000
     65 H24       -1.3749   15.2520    2.5000 H         1 RES1    0.0000
     66 H25       -1.7980   16.6201    3.1375 H         1 RES1    0.0000
     67 C25       10.9486   12.9842    3.3941 C.3       1 RES1    0.0000
     68 H26       10.4876   13.2177    4.2020 H         1 RES1    0.0000
     69 H27       11.8897   12.9017    3.5765 H         1 RES1    0.0000
     70 H28       10.6142   12.1478    3.0633 H         1 RES1    0.0000
     71 O16        5.4763   12.9042   -2.6944 O.2       1 RES1    0.0000
     72 C26        0.7221   17.4984    3.6788 C.3       1 RES1    0.0000
     73 H29        0.7761   17.0542    4.5268 H         1 RES1    0.0000
     74 H30        0.1399   18.2598    3.7509 H         1 RES1    0.0000
     75 H31        1.5976   17.7890    3.4141 H         1 RES1    0.0000
     76 C27       11.0462   15.4551    2.9250 C.3       1 RES1    0.0000
     77 H32       10.5836   15.5757    3.7590 H         1 RES1    0.0000
     78 H33       10.7596   16.1265    2.3015 H         1 RES1    0.0000
     79 H34       11.9912   15.5351    3.0713 H         1 RES1    0.0000
     80 C28        0.0604   17.1874    1.3232 C.3       1 RES1    0.0000
     81 H35        0.8833   17.6316    1.1026 H         1 RES1    0.0000
     82 H36       -0.6532   17.8270    1.3332 H         1 RES1    0.0000
     83 H37       -0.1222   16.5123    0.6656 H         1 RES1    0.0000
     84 C29        7.3472   15.3485    8.1595 C.3       1 RES1    0.0000
     85 H38        6.3992   15.4703    8.2196 H         1 RES1    0.0000
     86 H39        7.7909   16.1861    8.3198 H         1 RES1    0.0000
     87 H40        7.6321   14.7076    8.8150 H         1 RES1    0.0000
     88 C30       11.3944   13.7405    1.1127 C.3       1 RES1    0.0000
     89 H41       11.2440   14.4474    0.4791 H         1 RES1    0.0000
     90 H42       11.0427   12.9182    0.7638 H         1 RES1    0.0000
     91 H43       12.3383   13.6466    1.2670 H         1 RES1    0.0000
     92 H44        3.5565   12.2214    1.0104 H         1 RES1    0.0000
     93 H45        5.4065   13.5540   -0.7819 H         1 RES1    0.0000
@<TRIPOS>BOND
     1    1   19 1
     2    2   24 1
     3    3   15 1
     4    4    5 1
     5    5   12 1
     6    6    7 1
     7    8   23 1
     8    9   16 2
     9   10   23 2
    10   11   26 1
    11   12   13 1
    12   14   16 1
    13   15   17 1
    14   16    6 1
    15   17   12 1
    16   18   17 1
    17   19   20 1
    18   21    6 1
    19   22   21 1
    20   23    5 1
    21   24   12 1
    22   25   37 1
    23   26   19 1
    24   27   29 2
    25   28    1 1
    26   29    4 1
    27   30   31 2
    28   31    3 1
    29   32   49 2
    30   33   29 1
    31   34   33 1
    32   35   33 1
    33   36   33 1
    34   37   15 1
    35   38   37 1
    36   39   37 1
    37   40   25 1
    38   41   28 1
    39   42   41 1
    40   43   41 1
    41   44   41 1
    42   45   31 1
    43   46   45 1
    44   47   45 1
    45   48   45 1
    46   49    2 1
    47   50   14 1
    48   51   28 2
    49   52   11 1
    50   53    8 1
    51   54   49 1
    52   55   54 1
    53   56   54 1
    54   57   54 1
    55   58   40 2
    56   59   52 1
    57   60   59 1
    58   61   59 1
    59   62   59 1
    60   63   53 1
    61   64   63 1
    62   65   63 1
    63   66   63 1
    64   67   50 1
    65   68   67 1
    66   69   67 1
    67   70   67 1
    68   71   52 2
    69   72   53 1
    70   73   72 1
    71   74   72 1
    72   75   72 1
    73   76   50 1
    74   77   76 1
    75   78   76 1
    76   79   76 1
    77   80   53 1
    78   81   80 1
    79   82   80 1
    80   83   80 1
    81   84   40 1
    82   85   84 1
    83   86   84 1
    84   87   84 1
    85   88   50 1
    86   89   88 1
    87   90   88 1
    88   91   88 1
    89   92   24 1
    90   93   26 1
    91   17   21 1
    92   19   21 1
    93   24   26 1
@<TRIPOS>SUBSTRUCTURE
     1 RES1 1

@<TRIPOS>CRYSIN
  29.7660   12.6910   22.5870  90.0000 117.4290  90.0000  15 1

