# MOL2 file generated by ConQuest
# Please check atom types

@<TRIPOS>MOLECULE
DEKYIC01
    24    24     1
SMALL
NO_CHARGES
****
Generated from CSD

@<TRIPOS>ATOM
      1 C1         5.0103    4.1181    2.4701 C.ar      1 RES1    0.0000
      2 C2         5.5952    2.8296    2.3620 C.ar      1 RES1    0.0000
      3 C3         6.9591    2.6836    2.1114 C.ar      1 RES1    0.0000
      4 C4         7.7826    3.7917    1.9574 C.ar      1 RES1    0.0000
      5 C5         7.2004    5.0653    2.1013 C.ar      1 RES1    0.0000
      6 C6         5.8470    5.2196    2.3485 C.ar      1 RES1    0.0000
      7 C7         3.5643    4.2513    2.7301 C.2       1 RES1    0.0000
      8 C8         2.9120    5.6030    2.6545 C.3       1 RES1    0.0000
      9 C9         9.7310    2.4196    1.7048 C.3       1 RES1    0.0000
     10 N1         8.0007    6.2877    2.0128 N.pl3     1 RES1    0.0000
     11 O1         4.8639    1.7055    2.4816 O.3       1 RES1    0.0000
     12 O2         2.8974    3.2483    3.0152 O.2       1 RES1    0.0000
     13 O3         9.1030    3.7233    1.7264 O.3       1 RES1    0.0000
     14 O4         8.9658    6.3148    1.2529 O.2       1 RES1    0.0000
     15 O5         7.6507    7.2460    2.6997 O.2       1 RES1    0.0000
     16 H1         7.2505    1.8711    2.0601 H         1 RES1    0.0000
     17 H2         5.5371    6.0957    2.4316 H         1 RES1    0.0000
     18 H3         9.5867    1.9695    2.5937 H         1 RES1    0.0000
     19 H4         9.3726    1.8878    0.9524 H         1 RES1    0.0000
     20 H5         3.0024    5.9571    1.7494 H         1 RES1    0.0000
     21 H6         3.3502    6.2260    3.2624 H         1 RES1    0.0000
     22 H7         1.9629    5.5344    2.8436 H         1 RES1    0.0000
     23 H8         4.0536    2.0264    2.6815 H         1 RES1    0.0000
     24 H9        10.6222    2.6140    1.5400 H         1 RES1    0.0000
@<TRIPOS>BOND
     1    1    2 ar
     2    2    3 ar
     3    3    4 ar
     4    4    5 ar
     5    5    6 ar
     6    6    1 ar
     7    7    1 1
     8    8    7 1
     9    9   13 1
    10   10    5 1
    11   11    2 1
    12   12    7 2
    13   13    4 1
    14   14   10 2
    15   15   10 2
    16   16    3 1
    17   17    6 1
    18   18    9 1
    19   19    9 1
    20   20    8 1
    21   21    8 1
    22   22    8 1
    23   23   11 1
    24   24    9 1
@<TRIPOS>SUBSTRUCTURE
     1 RES1 1

@<TRIPOS>CRYSIN
  19.6490   13.8602    6.7544  90.0000  90.0000  90.0000  61 1

