# MOL2 file generated by ConQuest
# Please check atom types

@<TRIPOS>MOLECULE
DEKYUO
    22    22     1
SMALL
NO_CHARGES
****
Generated from CSD

@<TRIPOS>ATOM
      1 O1         3.1938   12.5366    7.4406 O.2       1 RES1    0.0000
      2 O2         2.2378   14.1168    5.6849 O.3       1 RES1    0.0000
      3 O3         1.0499   15.0991    3.4464 O.2       1 RES1    0.0000
      4 O4         2.6879   15.7973    2.2474 O.2       1 RES1    0.0000
      5 O5         6.0892   10.5988    2.2385 O.2       1 RES1    0.0000
      6 O6         4.9414   11.5928    0.6970 O.2       1 RES1    0.0000
      7 N1         2.1869   15.0014    3.0300 N.pl3     1 RES1    0.0000
      8 N2         5.2232   11.3819    1.8753 N.pl3     1 RES1    0.0000
      9 C1         3.7858   12.3488    5.1755 C.ar      1 RES1    0.0000
     10 C2         2.9883   13.4520    4.8004 C.ar      1 RES1    0.0000
     11 C3         2.9913   13.8545    3.4552 C.ar      1 RES1    0.0000
     12 C4         3.7379   13.2103    2.5043 C.ar      1 RES1    0.0000
     13 C5         4.4757   12.1251    2.9000 C.ar      1 RES1    0.0000
     14 C6         4.5236   11.6854    4.1980 C.ar      1 RES1    0.0000
     15 C7         3.7760   11.8692    6.5723 C.2       1 RES1    0.0000
     16 C8         4.4522   10.6040    6.9400 C.3       1 RES1    0.0000
     17 H1         3.7379   13.5395    1.6390 H         1 RES1    0.0000
     18 H2         5.1176   11.0193    4.4209 H         1 RES1    0.0000
     19 H3         4.4424   10.5307    7.8555 H         1 RES1    0.0000
     20 H4         3.9629    9.8107    6.5561 H         1 RES1    0.0000
     21 H5         5.4307   10.5693    6.5709 H         1 RES1    0.0000
     22 H6         2.5050   13.7452    6.5266 H         1 RES1    0.0000
@<TRIPOS>BOND
     1    1   15 2
     2    2   10 1
     3    3    7 2
     4    4    7 2
     5    5    8 2
     6    6    8 2
     7    7   11 1
     8    8   13 1
     9    9   10 ar
    10   10   11 ar
    11   11   12 ar
    12   12   13 ar
    13   13   14 ar
    14   14    9 ar
    15   15    9 1
    16   16   15 1
    17   17   12 1
    18   18   14 1
    19   19   16 1
    20   20   16 1
    21   21   16 1
    22   22    2 1
@<TRIPOS>SUBSTRUCTURE
     1 RES1 1

@<TRIPOS>CRYSIN
   9.7850   12.8580   14.7660  90.0000  90.0000  90.0000  61 1

