# MOL2 file generated by ConQuest
# Please check atom types

@<TRIPOS>MOLECULE
DEKYIC
    24    24     1
SMALL
NO_CHARGES
****
Generated from CSD

@<TRIPOS>ATOM
      1 O1         3.7468    0.5259   12.8554 O.2       1 RES1    0.0000
      2 O2         5.2822    0.9730   14.8442 O.3       1 RES1    0.0000
      3 O3         3.2476    1.6383   19.0658 O.3       1 RES1    0.0000
      4 O4         0.6577    2.1538   18.9012 O.2       1 RES1    0.0000
      5 O5        -0.2499    0.7384   17.6128 O.2       1 RES1    0.0000
      6 N1         0.7015    1.4016   17.9518 N.pl3     1 RES1    0.0000
      7 C1         2.8772    0.9903   14.9717 C.ar      1 RES1    0.0000
      8 C2         4.1535    1.0835   15.5765 C.ar      1 RES1    0.0000
      9 C3         4.2920    1.3029   16.9275 C.ar      1 RES1    0.0000
     10 C4         3.1882    1.4326   17.7439 C.ar      1 RES1    0.0000
     11 C5         1.9150    1.3140   17.1584 C.ar      1 RES1    0.0000
     12 C6         1.7708    1.0993   15.8107 C.ar      1 RES1    0.0000
     13 C7         2.7407    0.7626   13.5318 C.2       1 RES1    0.0000
     14 C8         1.4088    0.8226   12.8647 C.3       1 RES1    0.0000
     15 C9         4.5436    1.6604   19.7119 C.3       1 RES1    0.0000
     16 H1         4.9894    0.8350   14.0191 H         1 RES1    0.0000
     17 H2         5.1292    1.3664   17.2685 H         1 RES1    0.0000
     18 H3         0.8945    1.0213   15.4527 H         1 RES1    0.0000
     19 H4         1.3836    0.8005   11.9994 H         1 RES1    0.0000
     20 H5         0.9783    1.6424   13.0093 H         1 RES1    0.0000
     21 H6         0.7268    0.1794   13.2667 H         1 RES1    0.0000
     22 H7         4.9755    0.7798   19.5812 H         1 RES1    0.0000
     23 H8         4.3745    1.7805   20.5732 H         1 RES1    0.0000
     24 H9         5.1152    2.4015   19.3535 H         1 RES1    0.0000
@<TRIPOS>BOND
     1    1   13 2
     2    2    8 1
     3    3   10 1
     4    4    6 2
     5    5    6 2
     6    6   11 1
     7    7    8 ar
     8    8    9 ar
     9    9   10 ar
    10   10   11 ar
    11   11   12 ar
    12   12    7 ar
    13   13    7 1
    14   14   13 1
    15   15    3 1
    16   16    2 1
    17   17    9 1
    18   18   12 1
    19   19   14 1
    20   20   14 1
    21   21   14 1
    22   22   15 1
    23   23   15 1
    24   24   15 1
@<TRIPOS>SUBSTRUCTURE
     1 RES1 1

@<TRIPOS>CRYSIN
  13.9760    6.9010   19.8010  90.0000  90.0000  90.0000  61 1

