# MOL2 file generated by ConQuest
# Please check atom types

@<TRIPOS>MOLECULE
DEKZID
    24    24     1
SMALL
NO_CHARGES
****
Generated from CSD

@<TRIPOS>ATOM
      1 O1         3.2215    6.5095    7.3377 O.2       1 RES1    0.0000
      2 O2         2.6768    4.5316    8.7010 O.3       1 RES1    0.0000
      3 O3         3.6522    1.7190   10.6117 O.2       1 RES1    0.0000
      4 O4         1.9802    1.8445    9.2980 O.2       1 RES1    0.0000
      5 O5         5.1394    0.6368    8.4041 O.3       1 RES1    0.0000
      6 O6         7.0143    0.5890    6.6358 O.2       1 RES1    0.0000
      7 O7         7.7697    2.3869    5.7366 O.2       1 RES1    0.0000
      8 O8         6.4619    4.4993    5.8315 O.3       1 RES1    0.0000
      9 N1         3.1451    2.0105    9.5512 N.pl3     1 RES1    0.0000
     10 N2         6.9243    1.8031    6.4505 N.pl3     1 RES1    0.0000
     11 C1         4.5711    4.6119    7.2347 C.ar      1 RES1    0.0000
     12 C2         3.7269    3.9399    8.1541 C.ar      1 RES1    0.0000
     13 C3         3.9922    2.6273    8.5311 C.ar      1 RES1    0.0000
     14 C4         5.0288    1.8915    7.9963 C.ar      1 RES1    0.0000
     15 C5         5.8695    2.5299    7.0538 C.ar      1 RES1    0.0000
     16 C6         5.6559    3.8932    6.7058 C.ar      1 RES1    0.0000
     17 C7         4.2652    6.0146    6.8871 C.2       1 RES1    0.0000
     18 C8         5.1282    6.8642    6.0392 C.3       1 RES1    0.0000
     19 H1         2.5826    5.4669    8.2691 H         1 RES1    0.0000
     20 H2         5.8536    0.2037    7.9164 H         1 RES1    0.0000
     21 H3         7.1302    3.8370    5.5865 H         1 RES1    0.0000
     22 H4         5.2006    6.5382    5.1672 H         1 RES1    0.0000
     23 H5         6.0536    6.9236    6.3429 H         1 RES1    0.0000
     24 H6         4.8005    7.7250    6.0000 H         1 RES1    0.0000
@<TRIPOS>BOND
     1    1   17 2
     2    2   12 1
     3    3    9 2
     4    4    9 2
     5    5   14 1
     6    6   10 2
     7    7   10 2
     8    8   16 1
     9    9   13 1
    10   10   15 1
    11   11   12 ar
    12   12   13 ar
    13   13   14 ar
    14   14   15 ar
    15   15   16 ar
    16   16   11 ar
    17   17   11 1
    18   18   17 1
    19   19    2 1
    20   20    5 1
    21   21    8 1
    22   22   18 1
    23   23   18 1
    24   24   18 1
@<TRIPOS>SUBSTRUCTURE
     1 RES1 1

@<TRIPOS>CRYSIN
   5.8830   16.9780   19.5950  90.0000  90.0000  90.0000  61 1

