# MOL2 file generated by ConQuest
# Please check atom types

@<TRIPOS>MOLECULE
DELPEQ01
    25    25     1
SMALL
NO_CHARGES
****
Generated from CSD

@<TRIPOS>ATOM
      1 C1         1.3917    7.9223    1.7311 C.ar      1 RES1    0.0000
      2 N1         1.8693    7.2485    2.8162 N.3       1 RES1    0.0000
      3 N2         1.9086    5.8692    2.8155 N.2       1 RES1    0.0000
      4 C2         2.4553    5.3399    3.8544 C.2       1 RES1    0.0000
      5 C3         2.5184    3.8453    3.9040 C.3       1 RES1    0.0000
      6 C4         3.0200    6.1189    5.0136 C.3       1 RES1    0.0000
      7 C5         1.4105    9.3356    1.6324 C.ar      1 RES1    0.0000
      8 N3         1.9909   10.1653    2.6547 N.pl3     1 RES1    0.0000
      9 O1         2.4910    9.6264    3.6671 O.2       1 RES1    0.0000
     10 O2         2.0006   11.3838    2.5128 O.2       1 RES1    0.0000
     11 C6         0.8983    9.9966    0.5064 C.ar      1 RES1    0.0000
     12 C7         0.3596    9.2837   -0.5318 C.ar      1 RES1    0.0000
     13 C8         0.3367    7.8882   -0.4566 C.ar      1 RES1    0.0000
     14 C9         0.8390    7.2221    0.6392 C.ar      1 RES1    0.0000
     15 H1         2.1533    7.6943    3.5197 H         1 RES1    0.0000
     16 H2         2.0763    3.4731    3.1127 H         1 RES1    0.0000
     17 H3         2.0650    3.5259    4.7128 H         1 RES1    0.0000
     18 H4         3.4556    3.5581    3.9202 H         1 RES1    0.0000
     19 H5         3.6463    6.7944    4.6787 H         1 RES1    0.0000
     20 H6         3.4912    5.5084    5.6183 H         1 RES1    0.0000
     21 H7         2.2908    6.5600    5.4968 H         1 RES1    0.0000
     22 H8         0.9245   10.9456    0.4645 H         1 RES1    0.0000
     23 H9         0.0071    9.7308   -1.2911 H         1 RES1    0.0000
     24 H10       -0.0327    7.3897   -1.1761 H         1 RES1    0.0000
     25 H11        0.8124    6.2727    0.6605 H         1 RES1    0.0000
@<TRIPOS>BOND
     1    1    2 1
     2    2    3 1
     3    3    4 2
     4    4    5 1
     5    5   16 1
     6    6    4 1
     7    7    1 ar
     8    8    7 1
     9    9    8 2
    10   10    8 2
    11   11    7 ar
    12   12   11 ar
    13   13   12 ar
    14   14    1 ar
    15   15    2 1
    16   17    5 1
    17   18    5 1
    18   19    6 1
    19   20    6 1
    20   21    6 1
    21   22   11 1
    22   23   12 1
    23   24   13 1
    24   25   14 1
    25   13   14 ar
@<TRIPOS>SUBSTRUCTURE
     1 RES1 1

@<TRIPOS>CRYSIN
   3.8451   11.4926   21.3214  90.0000  92.2080  90.0000  14 1

