# MOL2 file generated by ConQuest
# Please check atom types

@<TRIPOS>MOLECULE
DELPEQ
    25    25     1
SMALL
NO_CHARGES
****
Generated from CSD

@<TRIPOS>ATOM
      1 O1         2.7685    2.7551    1.1950 O.2       1 RES1    0.0000
      2 O2         3.5695    1.3991    2.6802 O.2       1 RES1    0.0000
      3 N1         3.6369    1.9609    1.5751 N.pl3     1 RES1    0.0000
      4 N2         5.6205   -0.1299    2.1044 N.pl3     1 RES1    0.0000
      5 H1         5.0345    0.0341    2.7124 H         1 RES1    0.0000
      6 N3         6.5073   -1.1857    2.2603 N.2       1 RES1    0.0000
      7 C1         4.7538    1.6785    0.6980 C.ar      1 RES1    0.0000
      8 C2         4.8613    2.4500   -0.4656 C.ar      1 RES1    0.0000
      9 H2         4.2380    3.1190   -0.6350 H         1 RES1    0.0000
     10 C3         5.8714    2.2276   -1.3517 C.ar      1 RES1    0.0000
     11 H3         5.9512    2.7522   -2.1164 H         1 RES1    0.0000
     12 C4         6.7792    1.2114   -1.1006 C.ar      1 RES1    0.0000
     13 H4         7.4637    1.0541   -1.7101 H         1 RES1    0.0000
     14 C5         6.6933    0.4319    0.0240 C.ar      1 RES1    0.0000
     15 H5         7.3126   -0.2492    0.1567 H         1 RES1    0.0000
     16 C6         5.6795    0.6470    0.9851 C.ar      1 RES1    0.0000
     17 C7         6.3115   -1.9592    3.2627 C.2       1 RES1    0.0000
     18 C8         5.2170   -1.8230    4.2718 C.3       1 RES1    0.0000
     19 H6         4.3947   -1.6067    3.8250 H         1 RES1    0.0000
     20 H7         5.4379   -1.1238    4.8910 H         1 RES1    0.0000
     21 H8         5.1152   -2.6500    4.7471 H         1 RES1    0.0000
     22 C9         7.2648   -3.0987    3.4486 C.3       1 RES1    0.0000
     23 H9         7.9064   -3.1004    2.7334 H         1 RES1    0.0000
     24 H10        6.7795   -3.9270    3.4434 H         1 RES1    0.0000
     25 H11        7.7222   -2.9998    4.2868 H         1 RES1    0.0000
@<TRIPOS>BOND
     1    1    3 2
     2    2    3 2
     3    3    7 1
     4    4    5 1
     5    6    4 1
     6    7    8 ar
     7    8    9 1
     8   10    8 ar
     9   11   10 1
    10   12   10 ar
    11   13   12 1
    12   14   12 ar
    13   15   14 1
    14   16    4 1
    15   17    6 2
    16   18   17 1
    17   19   18 1
    18   20   18 1
    19   21   18 1
    20   22   17 1
    21   23   22 1
    22   24   22 1
    23   25   22 1
    24    7   16 ar
    25   14   16 ar
@<TRIPOS>SUBSTRUCTURE
     1 RES1 1

@<TRIPOS>CRYSIN
   8.5080   15.4790    8.1420  90.0000 112.9600  90.0000  14 1

