# MOL2 file generated by ConQuest
# Please check atom types

@<TRIPOS>MOLECULE
DELQIV
    34    35     1
SMALL
NO_CHARGES
****
Generated from CSD

@<TRIPOS>ATOM
      1 N1         2.4769    4.1795    8.3083 N.pl3     1 RES1    0.0000
      2 O1         7.2033    4.3611    5.3102 O.3       1 RES1    0.0000
      3 O2         1.4787    4.7367    7.8321 O.2       1 RES1    0.0000
      4 O3         2.4684    3.5763    9.3854 O.2       1 RES1    0.0000
      5 C1         6.0799    4.2750    6.0902 C.ar      1 RES1    0.0000
      6 C2         5.0220    5.1286    5.7255 C.ar      1 RES1    0.0000
      7 H1         5.1187    5.7222    4.9901 H         1 RES1    0.0000
      8 C3         3.8349    5.0984    6.4478 C.ar      1 RES1    0.0000
      9 H2         3.1050    5.6550    6.2027 H         1 RES1    0.0000
     10 C4         3.7339    4.2324    7.5439 C.ar      1 RES1    0.0000
     11 C5         4.7781    3.4036    7.9302 C.ar      1 RES1    0.0000
     12 H3         4.6890    2.8370    8.6874 H         1 RES1    0.0000
     13 C6         5.9635    3.4152    7.1891 C.ar      1 RES1    0.0000
     14 H4         6.6844    2.8443    7.4286 H         1 RES1    0.0000
     15 C7         8.2958    3.4748    5.6222 C.3       1 RES1    0.0000
     16 H5         8.0236    2.5298    5.5065 H         1 RES1    0.0000
     17 H6         8.5987    3.6078    6.5559 H         1 RES1    0.0000
     18 N1B       15.2146    3.1342    1.9593 N.pl3     1 RES1    0.0000
     19 O1B       10.4882    2.9526    4.9574 O.3       1 RES1    0.0000
     20 O2B       16.2127    2.5770    2.4355 O.2       1 RES1    0.0000
     21 O3B       15.2231    3.7374    0.8822 O.2       1 RES1    0.0000
     22 C1B       11.6115    3.0387    4.1774 C.ar      1 RES1    0.0000
     23 C2B       12.6694    2.1851    4.5421 C.ar      1 RES1    0.0000
     24 H1B       12.5727    1.5915    5.2775 H         1 RES1    0.0000
     25 C3B       13.8565    2.2153    3.8198 C.ar      1 RES1    0.0000
     26 H2B       14.5865    1.6587    4.0649 H         1 RES1    0.0000
     27 C4B       13.9576    3.0813    2.7237 C.ar      1 RES1    0.0000
     28 C5B       12.9134    3.9101    2.3374 C.ar      1 RES1    0.0000
     29 H3B       13.0025    4.4767    1.5802 H         1 RES1    0.0000
     30 C6B       11.7279    3.8985    3.0785 C.ar      1 RES1    0.0000
     31 H4B       11.0070    4.4694    2.8390 H         1 RES1    0.0000
     32 C7B        9.3956    3.8389    4.6454 C.3       1 RES1    0.0000
     33 H5B        9.6679    4.7839    4.7611 H         1 RES1    0.0000
     34 H6B        9.0928    3.7059    3.7117 H         1 RES1    0.0000
@<TRIPOS>BOND
     1    1    3 2
     2    2    5 1
     3    4    1 2
     4    5    6 ar
     5    6    7 1
     6    8    6 ar
     7    9    8 1
     8   10    1 1
     9   11   10 ar
    10   12   11 1
    11   13    5 ar
    12   14   13 1
    13   15    2 1
    14   16   15 1
    15   17   15 1
    16   18   20 2
    17   19   22 1
    18   21   18 2
    19   22   23 ar
    20   23   24 1
    21   25   23 ar
    22   26   25 1
    23   27   18 1
    24   28   27 ar
    25   29   28 1
    26   30   22 ar
    27   31   30 1
    28   32   15 1
    29   33   32 1
    30   34   32 1
    31    8   10 ar
    32   11   13 ar
    33   19   32 1
    34   25   27 ar
    35   28   30 ar
@<TRIPOS>SUBSTRUCTURE
     1 RES1 1

@<TRIPOS>CRYSIN
   9.1465    7.3137   10.2852  90.0000  93.3530  90.0000 231 1

