# MOL2 file generated by ConQuest
# Please check atom types

@<TRIPOS>MOLECULE
DELXOH
    39    43     1
SMALL
NO_CHARGES
****
Generated from CSD

@<TRIPOS>ATOM
      1 C1         1.0054    0.2123   11.0599 C.2       1 RES1    0.0000
      2 C2         1.9423    0.4652   12.2043 C.ar      1 RES1    0.0000
      3 C3         1.5809    0.0019   13.4602 C.ar      1 RES1    0.0000
      4 C4         2.4253    0.2365   14.5228 C.ar      1 RES1    0.0000
      5 C5         3.6182    0.9042   14.3841 C.ar      1 RES1    0.0000
      6 C6         3.9472    1.3566   13.1320 C.ar      1 RES1    0.0000
      7 C7         3.1350    1.1570   12.0359 C.ar      1 RES1    0.0000
      8 C8         0.6077    0.5447    8.7588 C.3       1 RES1    0.0000
      9 C9        -0.5545    1.4996    8.5581 C.3       1 RES1    0.0000
     10 C10       -0.4073    1.1103    7.0509 C.3       1 RES1    0.0000
     11 C11        1.1175    0.9377    7.3902 C.3       1 RES1    0.0000
     12 C12       -0.5612    2.3505    6.2335 C.3       1 RES1    0.0000
     13 C13       -0.1600    3.0152    8.5482 C.3       1 RES1    0.0000
     14 C14        0.3260    3.1813    7.0967 C.3       1 RES1    0.0000
     15 C15        1.6430    2.4139    7.2874 C.3       1 RES1    0.0000
     16 C16        2.1279    3.0010    8.5755 C.2       1 RES1    0.0000
     17 C17        1.0991    3.3438    9.3161 C.2       1 RES1    0.0000
     18 N1         2.0348   -0.2320   15.8629 N.pl3     1 RES1    0.0000
     19 N2         5.2089    2.0956   12.9549 N.pl3     1 RES1    0.0000
     20 O1        -0.0754   -0.2874   11.2011 O.2       1 RES1    0.0000
     21 O2         1.5100    0.6234    9.9057 O.3       1 RES1    0.0000
     22 O3         0.9518   -0.7338   15.9954 O.2       1 RES1    0.0000
     23 O4         2.8234   -0.0868   16.7695 O.2       1 RES1    0.0000
     24 O5         5.9072    2.2572   13.9420 O.2       1 RES1    0.0000
     25 O6         5.4822    2.5146   11.8390 O.2       1 RES1    0.0000
     26 H1         0.7774   -0.4222   13.5989 H         1 RES1    0.0000
     27 H2         4.1801    1.0365   15.1223 H         1 RES1    0.0000
     28 H3         3.3556    1.4777   11.2210 H         1 RES1    0.0000
     29 H4         0.2755   -0.3839    8.7563 H         1 RES1    0.0000
     30 H5        -1.3828    1.3214    9.0164 H         1 RES1    0.0000
     31 H6        -0.8676    0.3037    6.8242 H         1 RES1    0.0000
     32 H7         1.6458    0.3340    6.9109 H         1 RES1    0.0000
     33 H8        -1.4814    2.7118    6.2050 H         1 RES1    0.0000
     34 H9        -0.2234    2.2438    5.3380 H         1 RES1    0.0000
     35 H10       -0.9289    3.5586    8.7687 H         1 RES1    0.0000
     36 H11        0.4587    4.0663    6.8985 H         1 RES1    0.0000
     37 H12        2.2967    2.4768    6.5394 H         1 RES1    0.0000
     38 H13        3.0183    3.0175    8.8678 H         1 RES1    0.0000
     39 H14        1.0654    3.6797   10.2301 H         1 RES1    0.0000
@<TRIPOS>BOND
     1    1    2 1
     2    2    3 ar
     3    3    4 ar
     4    4    5 ar
     5    5    6 ar
     6    6    7 ar
     7    7    2 ar
     8    8    9 1
     9    9   10 1
    10   10   11 1
    11   11    8 1
    12   12   10 1
    13   13    9 1
    14   14   12 1
    15   15   11 1
    16   16   15 1
    17   17   13 1
    18   18    4 1
    19   19    6 1
    20   20    1 2
    21   21    1 1
    22   22   18 2
    23   23   18 2
    24   24   19 2
    25   25   19 2
    26   26    3 1
    27   27    5 1
    28   28    7 1
    29   29    8 1
    30   30    9 1
    31   31   10 1
    32   32   11 1
    33   33   12 1
    34   34   12 1
    35   35   13 1
    36   36   14 1
    37   37   15 1
    38   38   16 1
    39   39   17 1
    40    8   21 1
    41   13   14 1
    42   14   15 1
    43   16   17 2
@<TRIPOS>SUBSTRUCTURE
     1 RES1 1

@<TRIPOS>CRYSIN
   6.4280    9.9120   12.4550  94.7400  92.6400 102.7900   2 1

