# MOL2 file generated by ConQuest
# Please check atom types

@<TRIPOS>MOLECULE
DELXEX
    38    42     1
SMALL
NO_CHARGES
****
Generated from CSD

@<TRIPOS>ATOM
      1 C1         0.8825    9.1538    0.6416 C.2       1 RES1    0.0000
      2 C2         2.2828    9.1513    0.0238 C.3       1 RES1    0.0000
      3 C3         1.9375    7.8233   -0.7772 C.3       1 RES1    0.0000
      4 C4         0.7568    7.7461    0.2640 C.3       1 RES1    0.0000
      5 C5         1.4338    6.7893    1.2234 C.3       1 RES1    0.0000
      6 C6         2.9401    7.2403    1.1459 C.3       1 RES1    0.0000
      7 C7         3.2212    8.6829    1.1213 C.3       1 RES1    0.0000
      8 C8         2.9474    6.7918   -0.3397 C.3       1 RES1    0.0000
      9 C9         2.2984    5.4589   -0.3811 C.2       1 RES1    0.0000
     10 C10        1.4661    5.4066    0.6407 C.2       1 RES1    0.0000
     11 C11       -0.2381   12.1859    1.9504 C.ar      1 RES1    0.0000
     12 C12       -1.4520   11.7549    2.4855 C.ar      1 RES1    0.0000
     13 C13       -2.2439   12.6369    3.2186 C.ar      1 RES1    0.0000
     14 C14       -1.8222   13.9524    3.4175 C.ar      1 RES1    0.0000
     15 C15       -0.6083   14.3834    2.8824 C.ar      1 RES1    0.0000
     16 C16        0.1837   13.5014    2.1493 C.ar      1 RES1    0.0000
     17 N1         0.0301    9.9959    1.1556 N.2       1 RES1    0.0000
     18 N2         0.5270   11.2715    1.2507 N.pl3     1 RES1    0.0000
     19 N3         1.4591   14.0396    1.6810 N.pl3     1 RES1    0.0000
     20 N4        -2.6234   14.9639    4.1454 N.pl3     1 RES1    0.0000
     21 O1         2.1801   13.2348    1.0042 O.2       1 RES1    0.0000
     22 O2         1.7452   15.1558    1.8298 O.2       1 RES1    0.0000
     23 O3        -2.2422   16.0851    4.2466 O.2       1 RES1    0.0000
     24 O4        -3.6539   14.4283    4.6172 O.2       1 RES1    0.0000
     25 H1         2.7382    9.9909   -0.4665 H         1 RES1    0.0000
     26 H2         1.5510    7.7735   -1.7867 H         1 RES1    0.0000
     27 H3        -0.2251    7.3998   -0.0264 H         1 RES1    0.0000
     28 H4         1.1594    6.9264    2.2619 H         1 RES1    0.0000
     29 H5         3.6130    6.4779    1.5050 H         1 RES1    0.0000
     30 H6         4.2458    8.3714    0.9593 H         1 RES1    0.0000
     31 H7         3.1654    9.3182    1.9891 H         1 RES1    0.0000
     32 H8         3.9179    7.2752   -0.3344 H         1 RES1    0.0000
     33 H9         2.4601    4.5594   -0.9681 H         1 RES1    0.0000
     34 H10        0.6704    4.7837    0.2816 H         1 RES1    0.0000
     35 H11       -1.7696   10.7384    2.3147 H         1 RES1    0.0000
     36 H12       -3.1793   12.2831    3.6349 H         1 RES1    0.0000
     37 H13       -0.2962   15.3975    3.0628 H         1 RES1    0.0000
     38 H14        1.6046   11.2865    1.1970 H         1 RES1    0.0000
@<TRIPOS>BOND
     1    1    2 1
     2    2    3 1
     3    3    4 1
     4    4    1 1
     5    5    4 1
     6    6    5 1
     7    7    2 1
     8    8    3 1
     9    9    8 1
    10   10    5 1
    11   11   12 ar
    12   12   13 ar
    13   13   14 ar
    14   14   15 ar
    15   15   16 ar
    16   16   11 ar
    17   17    1 2
    18   18   11 1
    19   19   16 1
    20   20   14 1
    21   21   19 2
    22   22   19 2
    23   23   20 2
    24   24   20 2
    25   25    2 1
    26   26    3 1
    27   27    4 1
    28   28    5 1
    29   29    6 1
    30   30    7 1
    31   31    7 1
    32   32    8 1
    33   33    9 1
    34   34   10 1
    35   35   12 1
    36   36   13 1
    37   37   15 1
    38   38   18 1
    39    6    7 1
    40    6    8 1
    41    9   10 2
    42   17   18 1
@<TRIPOS>SUBSTRUCTURE
     1 RES1 1

@<TRIPOS>CRYSIN
   6.7450   24.9150    8.9110  90.0000  99.0000  90.0000 231 1

