# MOL2 file generated by ConQuest
# Please check atom types

@<TRIPOS>MOLECULE
DEMJIP
    35    37     1
SMALL
NO_CHARGES
****
Generated from CSD

@<TRIPOS>ATOM
      1 N1         4.9896    4.2943    0.4326 N.3       1 RES1    0.0000
      2 N2         2.0665    9.2065    2.2468 N.pl3     1 RES1    0.0000
      3 O1         2.8185   10.0266    1.7211 O.2       1 RES1    0.0000
      4 O2         1.0301    9.5332    2.8297 O.2       1 RES1    0.0000
      5 C1         4.8249    5.6354    0.4306 C.2       1 RES1    0.0000
      6 H1         5.3389    6.2421   -0.0893 H         1 RES1    0.0000
      7 C2         3.8046    6.0059    1.2912 C.2       1 RES1    0.0000
      8 C3         3.3019    4.7721    1.8675 C.ar      1 RES1    0.0000
      9 C4         2.3156    4.4414    2.8066 C.ar      1 RES1    0.0000
     10 H2         1.7804    5.1192    3.2027 H         1 RES1    0.0000
     11 C5         2.1351    3.1179    3.1454 C.ar      1 RES1    0.0000
     12 H3         1.4692    2.8884    3.7823 H         1 RES1    0.0000
     13 C6         2.9080    2.1058    2.5729 C.ar      1 RES1    0.0000
     14 H4         2.7594    1.2024    2.8287 H         1 RES1    0.0000
     15 C7         3.8877    2.3971    1.6386 C.ar      1 RES1    0.0000
     16 H5         4.4135    1.7125    1.2417 H         1 RES1    0.0000
     17 C8         4.0695    3.7368    1.3055 C.ar      1 RES1    0.0000
     18 C9         5.8730    3.5358   -0.4495 C.3       1 RES1    0.0000
     19 H6         6.3851    2.8784    0.0842 H         1 RES1    0.0000
     20 H7         6.5189    4.1520   -0.8778 H         1 RES1    0.0000
     21 C10        5.0846    2.8105   -1.5205 C.ar      1 RES1    0.0000
     22 C11        4.1049    3.4915   -2.2311 C.ar      1 RES1    0.0000
     23 H8         3.9407    4.4104   -2.0520 H         1 RES1    0.0000
     24 C12        3.3665    2.8335   -3.2012 C.ar      1 RES1    0.0000
     25 H9         2.6890    3.3007   -3.6761 H         1 RES1    0.0000
     26 C13        3.6091    1.5043   -3.4834 C.ar      1 RES1    0.0000
     27 H10        3.1021    1.0566   -4.1512 H         1 RES1    0.0000
     28 C14        4.5920    0.8292   -2.7906 C.ar      1 RES1    0.0000
     29 H11        4.7680   -0.0828   -2.9871 H         1 RES1    0.0000
     30 C15        5.3232    1.4766   -1.8109 C.ar      1 RES1    0.0000
     31 H12        5.9944    1.0036   -1.3326 H         1 RES1    0.0000
     32 C16        3.3951    7.3604    1.4666 C.2       1 RES1    0.0000
     33 H13        3.9218    8.0192    1.0311 H         1 RES1    0.0000
     34 C17        2.3543    7.8067    2.1747 C.2       1 RES1    0.0000
     35 H14        1.7995    7.1878    2.6349 H         1 RES1    0.0000
@<TRIPOS>BOND
     1    1    5 1
     2    2    3 2
     3    4    2 2
     4    5    6 1
     5    7    5 2
     6    8    7 1
     7    9    8 ar
     8   10    9 1
     9   11    9 ar
    10   12   11 1
    11   13   11 ar
    12   14   13 1
    13   15   13 ar
    14   16   15 1
    15   17    1 1
    16   18    1 1
    17   19   18 1
    18   20   18 1
    19   21   18 1
    20   22   21 ar
    21   23   22 1
    22   24   22 ar
    23   25   24 1
    24   26   24 ar
    25   27   26 1
    26   28   26 ar
    27   29   28 1
    28   30   21 ar
    29   31   30 1
    30   32    7 1
    31   33   32 1
    32   34    2 1
    33   35   34 1
    34    8   17 ar
    35   15   17 ar
    36   28   30 ar
    37   32   34 2
@<TRIPOS>SUBSTRUCTURE
     1 RES1 1

@<TRIPOS>CRYSIN
   4.9846   16.5617   16.9822  90.0000  97.2220  90.0000 231 1

