# MOL2 file generated by ConQuest
# Please check atom types

@<TRIPOS>MOLECULE
DEMMIR
    44    45     1
SMALL
NO_CHARGES
****
Generated from CSD

@<TRIPOS>ATOM
      1 O1        -6.1198    0.9635   -3.2121 O.2       1 RES1    0.0000
      2 O2        -7.1398   -2.5197   -5.4887 O.2       1 RES1    0.0000
      3 O3        -6.1075   -2.5936   -3.5934 O.2       1 RES1    0.0000
      4 N1        -6.2688    0.3168   -4.0949 N.2       1 RES1    0.0000
      5 N2        -6.2422   -2.2201   -4.7016 N.pl3     1 RES1    0.0000
      6 C1        -3.1629    0.3537   -7.5962 C.3       1 RES1    0.0000
      7 C2        -2.9660    0.8315   -6.1799 C.3       1 RES1    0.0000
      8 C3        -4.2159    0.9899   -5.2971 C.3       1 RES1    0.0000
      9 C4        -4.7404   -0.2112   -4.4330 C.3       1 RES1    0.0000
     10 C5        -5.0448   -1.3727   -5.2971 C.3       1 RES1    0.0000
     11 C6        -3.9199   -2.3758   -5.5845 C.3       1 RES1    0.0000
     12 C7        -4.0605   -3.0754   -6.9125 C.3       1 RES1    0.0000
     13 C8        -4.0734   -2.0986   -8.0959 C.2       1 RES1    0.0000
     14 C9        -2.9284   -1.1206   -8.0903 C.3       1 RES1    0.0000
     15 C10       -2.4674   -0.4884   -9.3920 C.3       1 RES1    0.0000
     16 C11       -2.2796    0.8579   -8.6782 C.3       1 RES1    0.0000
     17 C12       -2.7005    2.0986   -9.4484 C.3       1 RES1    0.0000
     18 C13       -0.7901    0.9767   -8.2837 C.3       1 RES1    0.0000
     19 C14       -3.8079   -0.5412   -3.2308 C.3       1 RES1    0.0000
     20 C15       -5.0189   -2.1646   -8.9975 C.2       1 RES1    0.0000
     21 H1        -4.1401    0.5478   -7.8367 H         1 RES1    0.0000
     22 H2        -2.5541    0.3260   -5.6540 H         1 RES1    0.0000
     23 H3        -2.6973    1.9205   -6.6101 H         1 RES1    0.0000
     24 H4        -4.2003    1.7370   -4.6584 H         1 RES1    0.0000
     25 H5        -5.0357    1.2645   -5.9696 H         1 RES1    0.0000
     26 H6        -5.2760   -0.9780   -6.3340 H         1 RES1    0.0000
     27 H7        -3.8882   -2.9988   -4.7204 H         1 RES1    0.0000
     28 H8        -2.9790   -2.0234   -5.3797 H         1 RES1    0.0000
     29 H9        -3.2490   -3.7644   -7.0421 H         1 RES1    0.0000
     30 H10       -4.8518   -3.6165   -6.6683 H         1 RES1    0.0000
     31 H11       -2.1325   -1.6195   -7.4911 H         1 RES1    0.0000
     32 H12       -3.4517   -0.3247   -9.8635 H         1 RES1    0.0000
     33 H13       -1.5355   -0.6718   -9.7170 H         1 RES1    0.0000
     34 H14       -2.0529    2.4722  -10.2260 H         1 RES1    0.0000
     35 H15       -3.5780    1.9033   -9.8879 H         1 RES1    0.0000
     36 H16       -2.7847    2.8800   -8.7214 H         1 RES1    0.0000
     37 H17       -0.1386    1.3938   -9.0276 H         1 RES1    0.0000
     38 H18       -0.7234    1.6895   -7.4140 H         1 RES1    0.0000
     39 H19       -0.3983    0.0554   -7.9419 H         1 RES1    0.0000
     40 H20       -4.0002   -1.3423   -2.5734 H         1 RES1    0.0000
     41 H21       -3.7684    0.3405   -2.5377 H         1 RES1    0.0000
     42 H22       -2.6668   -0.7246   -3.4938 H         1 RES1    0.0000
     43 H23       -5.0895   -1.4123   -9.6662 H         1 RES1    0.0000
     44 H24       -5.7436   -3.0001   -8.7571 H         1 RES1    0.0000
@<TRIPOS>BOND
     1    1    4 2
     2    2    5 2
     3    3    5 2
     4    4    9 1
     5    5   10 1
     6    6    7 1
     7    7    8 1
     8    8    9 1
     9    9   10 1
    10   10   11 1
    11   11   12 1
    12   12   13 1
    13   13   14 1
    14   14    6 1
    15   15   14 1
    16   16    6 1
    17   17   16 1
    18   18   16 1
    19   19    9 1
    20   20   13 2
    21   21    6 1
    22   22    7 1
    23   23    7 1
    24   24    8 1
    25   25    8 1
    26   26   10 1
    27   27   11 1
    28   28   11 1
    29   29   12 1
    30   30   12 1
    31   31   14 1
    32   32   15 1
    33   33   15 1
    34   34   17 1
    35   35   17 1
    36   36   17 1
    37   37   18 1
    38   38   18 1
    39   39   18 1
    40   40   19 1
    41   41   19 1
    42   42   19 1
    43   43   20 1
    44   44   20 1
    45   15   16 1
@<TRIPOS>SUBSTRUCTURE
     1 RES1 1

@<TRIPOS>CRYSIN
   6.4760   13.1990   18.7840  90.0000  90.0000  90.0000  19 1

