# MOL2 file generated by ConQuest
# Please check atom types

@<TRIPOS>MOLECULE
DEMPEQ
    30    30     1
SMALL
NO_CHARGES
****
Generated from CSD

@<TRIPOS>ATOM
      1 C1         3.2398    7.3707    3.8758 C.2       1 RES1    0.0000
      2 C2         3.3339    6.0571    4.6531 C.3       1 RES1    0.0000
      3 C3         4.2631    5.0680    4.0267 C.2       1 RES1    0.0000
      4 C4         4.7800    5.1615    2.8172 C.2       1 RES1    0.0000
      5 C5         4.5170    6.3761    1.9795 C.3       1 RES1    0.0000
      6 C6         4.2424    7.6503    2.7701 C.3       1 RES1    0.0000
      7 C7         1.9614    5.4415    4.8330 C.3       1 RES1    0.0000
      8 C8         5.6502    4.0898    2.2004 C.3       1 RES1    0.0000
      9 C9         3.7939    8.7999    1.8854 C.3       1 RES1    0.0000
     10 C10        5.5542    8.0320    3.4944 C.3       1 RES1    0.0000
     11 N1         3.3420    6.0501    1.0779 N.pl3     1 RES1    0.0000
     12 O1         2.4248    8.2056    4.2174 O.2       1 RES1    0.0000
     13 O2         3.9122    6.3712    5.9278 O.3       1 RES1    0.0000
     14 O3         2.2428    6.0272    1.5728 O.2       1 RES1    0.0000
     15 O4         3.5703    5.8281   -0.0833 O.2       1 RES1    0.0000
     16 H1         3.2727    6.7430    6.4118 H         1 RES1    0.0000
     17 H2         4.5042    4.2995    4.5493 H         1 RES1    0.0000
     18 H3         5.3155    6.5708    1.4834 H         1 RES1    0.0000
     19 H4         1.5930    5.2243    3.9736 H         1 RES1    0.0000
     20 H5         1.3858    6.0666    5.2796 H         1 RES1    0.0000
     21 H6         2.0361    4.6425    5.3604 H         1 RES1    0.0000
     22 H7         5.9168    3.4643    2.8776 H         1 RES1    0.0000
     23 H8         6.4306    4.4945    1.8130 H         1 RES1    0.0000
     24 H9         5.1562    3.6307    1.5172 H         1 RES1    0.0000
     25 H10        4.4523    8.9556    1.2046 H         1 RES1    0.0000
     26 H11        3.6900    9.5920    2.4177 H         1 RES1    0.0000
     27 H12        2.9547    8.5787    1.4738 H         1 RES1    0.0000
     28 H13        6.2319    8.2324    2.8450 H         1 RES1    0.0000
     29 H14        5.8427    7.2981    4.0412 H         1 RES1    0.0000
     30 H15        5.4022    8.8026    4.0472 H         1 RES1    0.0000
@<TRIPOS>BOND
     1    1    2 1
     2    2    3 1
     3    3    4 2
     4    4    5 1
     5    5    6 1
     6    6    1 1
     7    7    2 1
     8    8    4 1
     9    9    6 1
    10   10    6 1
    11   11    5 1
    12   12    1 2
    13   13    2 1
    14   14   11 2
    15   15   11 2
    16   16   13 1
    17   17    3 1
    18   18    5 1
    19   19    7 1
    20   20    7 1
    21   21    7 1
    22   22    8 1
    23   23    8 1
    24   24    8 1
    25   25    9 1
    26   26    9 1
    27   27    9 1
    28   28   10 1
    29   29   10 1
    30   30   10 1
@<TRIPOS>SUBSTRUCTURE
     1 RES1 1

@<TRIPOS>CRYSIN
   6.5800    7.3240   12.1690  82.7000  88.0000  74.1900   2 1

