# MOL2 file generated by ConQuest
# Please check atom types

@<TRIPOS>MOLECULE
DEMPUG
    31    32     1
SMALL
NO_CHARGES
****
Generated from CSD

@<TRIPOS>ATOM
      1 C1         1.6168    5.6580    3.4959 C.3       1 RES1    0.0000
      2 O1         2.7510    6.3299    3.9729 O.3       1 RES1    0.0000
      3 O2         0.4168    6.3994    3.7553 O.3       1 RES1    0.0000
      4 C2         0.3639    7.7478    3.2093 C.3       1 RES1    0.0000
      5 C3        -0.9287    8.3654    3.6946 C.3       1 RES1    0.0000
      6 C4         0.4520    7.6602    1.6967 C.3       1 RES1    0.0000
      7 C5         1.7381    6.9460    1.3013 C.3       1 RES1    0.0000
      8 C6         1.8144    5.5583    1.9457 C.3       1 RES1    0.0000
      9 N1         3.2336    5.0192    1.6967 N.pl3     1 RES1    0.0000
     10 O3         4.0012    5.6746    1.0042 O.2       1 RES1    0.0000
     11 O4         3.5310    3.9230    2.1590 O.2       1 RES1    0.0000
     12 C7         0.8322    4.5708    1.2887 C.3       1 RES1    0.0000
     13 C8         0.6020    3.2556    2.0335 C.3       1 RES1    0.0000
     14 C9         0.2739    3.5062    3.5022 C.3       1 RES1    0.0000
     15 C10        1.3820    4.3111    4.1758 C.3       1 RES1    0.0000
     16 H1         2.8090    6.2318    4.7804 H         1 RES1    0.0000
     17 H2         1.1394    8.2204    3.5587 H         1 RES1    0.0000
     18 H3        -1.7257    7.8294    3.3704 H         1 RES1    0.0000
     19 H4        -0.9398    8.4092    4.6821 H         1 RES1    0.0000
     20 H5        -1.0253    9.2790    3.3243 H         1 RES1    0.0000
     21 H6        -0.3607    7.1936    1.3431 H         1 RES1    0.0000
     22 H7         0.4441    8.5723    1.2971 H         1 RES1    0.0000
     23 H8         1.7903    6.8343    0.3389 H         1 RES1    0.0000
     24 H9         2.4921    7.4670    1.5900 H         1 RES1    0.0000
     25 H10        1.1485    4.4122    0.3703 H         1 RES1    0.0000
     26 H11       -0.0287    5.0298    1.2176 H         1 RES1    0.0000
     27 H12        1.3944    2.6833    1.9415 H         1 RES1    0.0000
     28 H13        0.1435    2.6259    3.9687 H         1 RES1    0.0000
     29 H14       -0.5583    3.9653    3.5817 H         1 RES1    0.0000
     30 H15        1.1727    4.5104    5.0984 H         1 RES1    0.0000
     31 H16        2.1999    3.7961    4.1486 H         1 RES1    0.0000
@<TRIPOS>BOND
     1    1    2 1
     2    2   16 1
     3    3    1 1
     4    4    3 1
     5    5    4 1
     6    6    4 1
     7    7    6 1
     8    8    1 1
     9    9    8 1
    10   10    9 2
    11   11    9 2
    12   12    8 1
    13   13   12 1
    14   14   13 1
    15   15    1 1
    16   17    4 1
    17   18    5 1
    18   19    5 1
    19   20    5 1
    20   21    6 1
    21   22    6 1
    22   23    7 1
    23   24    7 1
    24   25   12 1
    25   26   12 1
    26   27   13 1
    27   28   14 1
    28   29   14 1
    29   30   15 1
    30   31   15 1
    31    7    8 1
    32   14   15 1
@<TRIPOS>SUBSTRUCTURE
     1 RES1 1

@<TRIPOS>CRYSIN
   6.5220   15.1000   20.9210  90.0000  90.0000  90.0000  61 1

