# MOL2 file generated by ConQuest
# Please check atom types

@<TRIPOS>MOLECULE
DEMRAO
    33    34     1
SMALL
NO_CHARGES
****
Generated from CSD

@<TRIPOS>ATOM
      1 C1         2.6956    4.7418    1.8950 C.3       1 RES1    0.0000
      2 N1         3.1088    6.0943    1.2695 N.pl3     1 RES1    0.0000
      3 O1         4.2639    6.4936    1.5051 O.2       1 RES1    0.0000
      4 O2         2.3307    6.7059    0.6359 O.2       1 RES1    0.0000
      5 C2         2.1417    3.9386    0.7148 C.3       1 RES1    0.0000
      6 C3         1.3517    2.6807    1.0409 C.3       1 RES1    0.0000
      7 C4        -0.0951    2.8700    1.3055 C.3       1 RES1    0.0000
      8 C5        -0.4695    3.6986    2.5146 C.3       1 RES1    0.0000
      9 C6         0.2091    5.0788    2.6365 C.3       1 RES1    0.0000
     10 C7         1.6863    5.0938    3.0403 C.3       1 RES1    0.0000
     11 O3         2.0522    6.4105    3.4673 O.3       1 RES1    0.0000
     12 C8         1.9329    4.1717    4.2495 C.3       1 RES1    0.0000
     13 C9         3.2932    4.4152    4.8030 C.2       1 RES1    0.0000
     14 O4         3.4989    4.6160    5.9831 O.2       1 RES1    0.0000
     15 C10        4.4057    4.4452    3.7957 C.3       1 RES1    0.0000
     16 C11        3.9557    4.0390    2.4218 C.3       1 RES1    0.0000
     17 H1         1.3890    4.4983    0.1451 H         1 RES1    0.0000
     18 H2         2.9654    3.7182    0.0801 H         1 RES1    0.0000
     19 H3         1.4552    2.0910    0.3296 H         1 RES1    0.0000
     20 H4         1.7201    2.2930    1.8706 H         1 RES1    0.0000
     21 H5        -0.5510    2.1176    1.2672 H         1 RES1    0.0000
     22 H6        -0.4773    3.3397    0.5605 H         1 RES1    0.0000
     23 H7        -1.2960    3.9351    2.5274 H         1 RES1    0.0000
     24 H8        -0.3635    3.3120    3.4012 H         1 RES1    0.0000
     25 H9        -0.1799    5.5981    3.3745 H         1 RES1    0.0000
     26 H10        0.1685    5.5380    1.7894 H         1 RES1    0.0000
     27 H11        1.5638    6.5582    4.0603 H         1 RES1    0.0000
     28 H12        1.2586    4.3425    4.9411 H         1 RES1    0.0000
     29 H13        1.8715    3.3120    4.0243 H         1 RES1    0.0000
     30 H14        4.7910    5.3903    3.7180 H         1 RES1    0.0000
     31 H15        5.0929    3.9363    4.0673 H         1 RES1    0.0000
     32 H16        3.7065    3.0881    2.4346 H         1 RES1    0.0000
     33 H17        4.7072    4.1059    1.7766 H         1 RES1    0.0000
@<TRIPOS>BOND
     1    1    2 1
     2    2    3 2
     3    4    2 2
     4    5    1 1
     5    6    5 1
     6    7    6 1
     7    8    7 1
     8    9    8 1
     9   10    1 1
    10   11   10 1
    11   12   10 1
    12   13   12 1
    13   14   13 2
    14   15   13 1
    15   16    1 1
    16   17    5 1
    17   18    5 1
    18   19    6 1
    19   20    6 1
    20   21    7 1
    21   22    7 1
    22   23    8 1
    23   24    8 1
    24   25    9 1
    25   26    9 1
    26   27   11 1
    27   28   12 1
    28   29   12 1
    29   30   15 1
    30   31   15 1
    31   32   16 1
    32   33   16 1
    33    9   10 1
    34   15   16 1
@<TRIPOS>SUBSTRUCTURE
     1 RES1 1

@<TRIPOS>CRYSIN
   8.7080   11.5400   12.5850  90.0000 112.7700  90.0000  14 1

