# MOL2 file generated by ConQuest
# Please check atom types

@<TRIPOS>MOLECULE
DEMRUI
    36    36     1
SMALL
NO_CHARGES
****
Generated from CSD

@<TRIPOS>ATOM
      1 C1         5.2352    2.0544   -0.9507 C.2       1 RES1    0.0000
      2 O1         6.2031    1.3817   -1.5382 O.3       1 RES1    0.0000
      3 C2         3.8993    1.7540   -1.1959 C.2       1 RES1    0.0000
      4 C3         2.7543    2.4824   -0.5157 C.3       1 RES1    0.0000
      5 C4         2.1483    1.6745    0.6338 C.3       1 RES1    0.0000
      6 N1         1.0537    2.4808    1.3170 N.pl3     1 RES1    0.0000
      7 O2         0.4239    1.9267    2.2034 O.2       1 RES1    0.0000
      8 O3         0.8268    3.6200    0.9492 O.2       1 RES1    0.0000
      9 C5         3.1277    1.1847    1.6996 C.3       1 RES1    0.0000
     10 C6         3.8153    2.2747    2.5158 C.3       1 RES1    0.0000
     11 C7         5.2230    1.8735    2.9957 C.3       1 RES1    0.0000
     12 C8         6.2569    1.5387    1.9149 C.3       1 RES1    0.0000
     13 C9         6.7316    2.6748    1.0090 C.3       1 RES1    0.0000
     14 C10        5.7464    3.1570   -0.0732 C.3       1 RES1    0.0000
     15 C11        3.6071    0.7375   -2.1675 C.2       1 RES1    0.0000
     16 O4         4.5373    0.0517   -2.7012 O.2       1 RES1    0.0000
     17 C12        2.2171    0.4746   -2.6549 C.3       1 RES1    0.0000
     18 H1         5.7458    0.6367   -2.1018 H         1 RES1    0.0000
     19 H2         2.0877    2.6561   -1.1555 H         1 RES1    0.0000
     20 H3         3.0151    3.3723   -0.2138 H         1 RES1    0.0000
     21 H4         1.6852    0.9299    0.3094 H         1 RES1    0.0000
     22 H5         3.7877    0.6640    1.2183 H         1 RES1    0.0000
     23 H6         2.6854    0.5647    2.3051 H         1 RES1    0.0000
     24 H7         3.8645    3.0856    2.0270 H         1 RES1    0.0000
     25 H8         3.2508    2.4732    3.3245 H         1 RES1    0.0000
     26 H9         5.5632    2.5857    3.5832 H         1 RES1    0.0000
     27 H10        5.1729    1.0930    3.6160 H         1 RES1    0.0000
     28 H11        7.0279    1.1791    2.3888 H         1 RES1    0.0000
     29 H12        5.6198    0.7608    1.3424 H         1 RES1    0.0000
     30 H13        6.9625    3.4797    1.5576 H         1 RES1    0.0000
     31 H14        7.5196    2.3664    0.5546 H         1 RES1    0.0000
     32 H15        6.2318    3.7765   -0.6577 H         1 RES1    0.0000
     33 H16        5.0329    3.6584    0.3049 H         1 RES1    0.0000
     34 H17        2.2083   -0.2781   -3.2692 H         1 RES1    0.0000
     35 H18        1.8985    1.2688   -3.0121 H         1 RES1    0.0000
     36 H19        1.5975    0.2862   -1.9418 H         1 RES1    0.0000
@<TRIPOS>BOND
     1    1    2 1
     2    2   18 1
     3    3    1 2
     4    4    3 1
     5    5    4 1
     6    6    5 1
     7    7    6 2
     8    8    6 2
     9    9    5 1
    10   10    9 1
    11   11   10 1
    12   12   11 1
    13   13   12 1
    14   14    1 1
    15   15    3 1
    16   16   15 2
    17   17   15 1
    18   19    4 1
    19   20    4 1
    20   21    5 1
    21   22    9 1
    22   23    9 1
    23   24   10 1
    24   25   10 1
    25   26   11 1
    26   27   11 1
    27   28   12 1
    28   29   12 1
    29   30   13 1
    30   31   13 1
    31   32   14 1
    32   33   14 1
    33   34   17 1
    34   35   17 1
    35   36   17 1
    36   13   14 1
@<TRIPOS>SUBSTRUCTURE
     1 RES1 1

@<TRIPOS>CRYSIN
  31.9040    5.0650   15.3210  90.0000 102.6600  90.0000  15 1

