# MOL2 file generated by ConQuest
# Please check atom types

@<TRIPOS>MOLECULE
DEMSAP
    49    50     1
SMALL
NO_CHARGES
****
Generated from CSD

@<TRIPOS>ATOM
      1 C1         0.8845    2.4635    2.1948 C.2       1 RES1    0.0000
      2 C2        -0.4608    2.6248    1.9472 C.2       1 RES1    0.0000
      3 O1        -1.1078    1.8883    1.0631 O.3       1 RES1    0.0000
      4 C3        -1.3422    3.6944    2.5121 C.3       1 RES1    0.0000
      5 C4        -1.6117    4.7961    1.4529 C.3       1 RES1    0.0000
      6 C5        -1.2272    6.2020    1.9203 C.3       1 RES1    0.0000
      7 C6         0.1561    6.4288    2.3649 C.3       1 RES1    0.0000
      8 C7         1.2021    6.0697    1.2908 C.3       1 RES1    0.0000
      9 C8         2.6426    6.2462    1.7384 C.3       1 RES1    0.0000
     10 N1         2.9851    7.7023    1.9870 N.pl3     1 RES1    0.0000
     11 O2         3.2031    8.1010    3.1018 O.2       1 RES1    0.0000
     12 O3         3.0061    8.4114    1.0134 O.2       1 RES1    0.0000
     13 C9         3.1171    5.4275    2.9258 C.3       1 RES1    0.0000
     14 C10        2.9609    3.9364    2.6423 C.3       1 RES1    0.0000
     15 C11        1.6200    3.3810    3.1078 C.2       1 RES1    0.0000
     16 O4         1.1604    3.7142    4.1848 O.2       1 RES1    0.0000
     17 C12        1.5922    1.4029    1.4848 C.2       1 RES1    0.0000
     18 O5         1.0974    0.6923    0.6265 O.2       1 RES1    0.0000
     19 O6         2.8592    1.2492    1.8985 O.3       1 RES1    0.0000
     20 C13        3.6408    0.2191    1.2262 C.3       1 RES1    0.0000
     21 C14        3.6502   -1.0575    2.0039 C.ar      1 RES1    0.0000
     22 C15        3.8648   -1.0514    3.3852 C.ar      1 RES1    0.0000
     23 C16        3.9547   -2.2459    4.0744 C.ar      1 RES1    0.0000
     24 C17        3.8450   -3.4479    3.4071 C.ar      1 RES1    0.0000
     25 C18        3.6076   -3.4616    2.0576 C.ar      1 RES1    0.0000
     26 C19        3.5023   -2.2809    1.3565 C.ar      1 RES1    0.0000
     27 H1        -0.6721    1.3177    0.8533 H         1 RES1    0.0000
     28 H2        -0.9963    4.0627    3.3415 H         1 RES1    0.0000
     29 H3        -2.2169    3.2517    2.7647 H         1 RES1    0.0000
     30 H4        -1.0497    4.5815    0.6066 H         1 RES1    0.0000
     31 H5        -2.4909    4.8280    1.1824 H         1 RES1    0.0000
     32 H6        -1.8423    6.3755    2.7617 H         1 RES1    0.0000
     33 H7        -1.5878    6.9005    1.1158 H         1 RES1    0.0000
     34 H8         0.5102    7.4680    2.5797 H         1 RES1    0.0000
     35 H9         0.3368    5.8460    3.2341 H         1 RES1    0.0000
     36 H10        1.1813    6.7316    0.5887 H         1 RES1    0.0000
     37 H11        0.9463    5.0624    0.9835 H         1 RES1    0.0000
     38 H12        3.2421    6.0377    0.7817 H         1 RES1    0.0000
     39 H13        4.1577    5.6345    3.2191 H         1 RES1    0.0000
     40 H14        2.5537    5.6558    3.6955 H         1 RES1    0.0000
     41 H15        3.6056    3.5347    3.2052 H         1 RES1    0.0000
     42 H16        3.1358    3.7675    1.7354 H         1 RES1    0.0000
     43 H17        3.3299    0.1567    0.3172 H         1 RES1    0.0000
     44 H18        4.4837    0.5965    1.2202 H         1 RES1    0.0000
     45 H19        3.9788   -0.1826    3.7910 H         1 RES1    0.0000
     46 H20        4.2155   -2.2078    5.0420 H         1 RES1    0.0000
     47 H21        3.8323   -4.2909    3.9938 H         1 RES1    0.0000
     48 H22        3.5132   -4.2011    1.6538 H         1 RES1    0.0000
     49 H23        3.2748   -2.2824    0.4545 H         1 RES1    0.0000
@<TRIPOS>BOND
     1    1    2 2
     2    2    3 1
     3    3   27 1
     4    4    2 1
     5    5    4 1
     6    6    5 1
     7    7    6 1
     8    8    7 1
     9    9    8 1
    10   10    9 1
    11   11   10 2
    12   12   10 2
    13   13    9 1
    14   14   13 1
    15   15    1 1
    16   16   15 2
    17   17    1 1
    18   18   17 2
    19   19   17 1
    20   20   19 1
    21   21   20 1
    22   22   21 ar
    23   23   22 ar
    24   24   23 ar
    25   25   24 ar
    26   26   21 ar
    27   28    4 1
    28   29    4 1
    29   30    5 1
    30   31    5 1
    31   32    6 1
    32   33    6 1
    33   34    7 1
    34   35    7 1
    35   36    8 1
    36   37    8 1
    37   38    9 1
    38   39   13 1
    39   40   13 1
    40   41   14 1
    41   42   14 1
    42   43   20 1
    43   44   20 1
    44   45   22 1
    45   46   23 1
    46   47   24 1
    47   48   25 1
    48   49   26 1
    49   14   15 1
    50   25   26 ar
@<TRIPOS>SUBSTRUCTURE
     1 RES1 1

@<TRIPOS>CRYSIN
  11.8630   15.2160   10.4020  90.0000 107.0500  90.0000  14 1

