# MOL2 file generated by ConQuest
# Please check atom types

@<TRIPOS>MOLECULE
DENCAA
    36    38     1
SMALL
NO_CHARGES
****
Generated from CSD

@<TRIPOS>ATOM
      1 O1        -1.1415    6.4857    2.7788 O.3       1 RES1    0.0000
      2 C1        -1.2453    6.2559    4.1075 C.2       1 RES1    0.0000
      3 N1        -0.6221    5.3388    4.7431 N.2       1 RES1    0.0000
      4 N2         0.1220    4.4101    3.9580 N.2       1 RES1    0.0000
      5 C2         0.5570    4.8056    2.8129 C.2       1 RES1    0.0000
      6 C3         0.1999    6.1790    2.3195 C.3       1 RES1    0.0000
      7 C4         1.4018    3.9004    2.0092 C.ar      1 RES1    0.0000
      8 C5         1.5453    2.5431    2.3680 C.ar      1 RES1    0.0000
      9 C6         2.3481    1.7040    1.6348 C.ar      1 RES1    0.0000
     10 C7         3.0520    2.1838    0.5292 C.ar      1 RES1    0.0000
     11 C8         2.9171    3.5121    0.1579 C.ar      1 RES1    0.0000
     12 C9         2.0888    4.3490    0.8904 C.ar      1 RES1    0.0000
     13 O2         3.8364    1.2719   -0.1148 O.3       1 RES1    0.0000
     14 C10        4.7711    1.7583   -1.0907 C.3       1 RES1    0.0000
     15 C11       -2.2224    7.0994    4.8424 C.ar      1 RES1    0.0000
     16 C12       -3.0313    6.4973    5.8057 C.ar      1 RES1    0.0000
     17 C13       -3.9426    7.2135    6.5555 C.ar      1 RES1    0.0000
     18 C14       -4.0711    8.5692    6.3457 C.ar      1 RES1    0.0000
     19 C15       -3.3101    9.1990    5.3955 C.ar      1 RES1    0.0000
     20 C16       -2.3957    8.4744    4.6504 C.ar      1 RES1    0.0000
     21 N3        -1.5178    9.2420    3.7349 N.pl3     1 RES1    0.0000
     22 O3        -2.0308   10.1852    3.1435 O.2       1 RES1    0.0000
     23 O4        -0.3400    8.9304    3.6775 O.2       1 RES1    0.0000
     24 H1         0.2285    6.2225    1.3472 H         1 RES1    0.0000
     25 H2         0.8235    6.8430    2.6580 H         1 RES1    0.0000
     26 H3         1.0675    2.2033    3.1465 H         1 RES1    0.0000
     27 H4         2.4189    0.7527    1.8872 H         1 RES1    0.0000
     28 H5         3.4065    3.8527   -0.6189 H         1 RES1    0.0000
     29 H6         1.9602    5.2852    0.6022 H         1 RES1    0.0000
     30 H7         5.2725    1.0349   -1.4782 H         1 RES1    0.0000
     31 H8         5.3972    2.3822   -0.6847 H         1 RES1    0.0000
     32 H9         4.3079    2.2291   -1.8017 H         1 RES1    0.0000
     33 H10       -2.9702    5.5191    5.9241 H         1 RES1    0.0000
     34 H11       -4.4845    6.7665    7.2420 H         1 RES1    0.0000
     35 H12       -4.6954    9.0767    6.8934 H         1 RES1    0.0000
     36 H13       -3.4270   10.1645    5.2310 H         1 RES1    0.0000
@<TRIPOS>BOND
     1    1    2 1
     2    2    3 2
     3    3    4 1
     4    4    5 2
     5    5    6 1
     6    6    1 1
     7    7    5 1
     8    8    7 ar
     9    9    8 ar
    10   10    9 ar
    11   11   10 ar
    12   12    7 ar
    13   13   10 1
    14   14   13 1
    15   15    2 1
    16   16   15 ar
    17   17   16 ar
    18   18   17 ar
    19   19   18 ar
    20   20   15 ar
    21   21   20 1
    22   22   21 2
    23   23   21 2
    24   24    6 1
    25   25    6 1
    26   26    8 1
    27   27    9 1
    28   28   11 1
    29   29   12 1
    30   30   14 1
    31   31   14 1
    32   32   14 1
    33   33   16 1
    34   34   17 1
    35   35   18 1
    36   36   19 1
    37   11   12 ar
    38   19   20 ar
@<TRIPOS>SUBSTRUCTURE
     1 RES1 1

@<TRIPOS>CRYSIN
  10.1440   12.6130    6.1840 100.8200  95.7100 109.6000   2 1

