# MOL2 file generated by ConQuest
# Please check atom types

@<TRIPOS>MOLECULE
DEPVUP
    29    31     1
SMALL
NO_CHARGES
****
Generated from CSD

@<TRIPOS>ATOM
      1 O1        15.1320    0.4999    1.5178 O.3       1 RES1    0.0000
      2 O2        15.1489   -1.6905    1.0736 O.2       1 RES1    0.0000
      3 O3        16.3028   -0.8758    2.7174 O.2       1 RES1    0.0000
      4 O4        16.3491    2.3156   -0.3297 O.3       1 RES1    0.0000
      5 O5        16.5679    4.1576   -1.5839 O.2       1 RES1    0.0000
      6 O6        17.9873    3.7053   -0.0057 O.2       1 RES1    0.0000
      7 N1        15.5600   -0.8107    1.7755 N.pl3     1 RES1    0.0000
      8 N2        17.0205    3.5048   -0.6835 N.pl3     1 RES1    0.0000
      9 C1        14.8089    0.5316   -0.9710 C.3       1 RES1    0.0000
     10 C2        14.1799    0.6230    0.4418 C.3       1 RES1    0.0000
     11 C3        13.6520    2.0733    0.5215 C.3       1 RES1    0.0000
     12 C4        13.9121    2.6247   -0.9050 C.3       1 RES1    0.0000
     13 C5        13.0735    1.8218   -1.8714 C.ar      1 RES1    0.0000
     14 C6        13.6240    0.5354   -1.9125 C.ar      1 RES1    0.0000
     15 C7        15.2698    1.9771   -1.2326 C.3       1 RES1    0.0000
     16 C8        11.9706    2.1474   -2.6476 C.ar      1 RES1    0.0000
     17 C9        11.4350    1.1588   -3.4666 C.ar      1 RES1    0.0000
     18 C10       11.9731   -0.1130   -3.5006 C.ar      1 RES1    0.0000
     19 C11       13.0814   -0.4458   -2.7210 C.ar      1 RES1    0.0000
     20 H1        15.4602   -0.1622   -1.0598 H         1 RES1    0.0000
     21 H2        13.4590   -0.0245    0.6245 H         1 RES1    0.0000
     22 H3        14.1104    2.5653    1.1728 H         1 RES1    0.0000
     23 H4        12.6890    2.0865    0.7714 H         1 RES1    0.0000
     24 H5        13.9075    3.5733   -1.0027 H         1 RES1    0.0000
     25 H6        15.5915    2.1061   -2.1360 H         1 RES1    0.0000
     26 H7        11.5772    3.0400   -2.6149 H         1 RES1    0.0000
     27 H8        10.6760    1.3477   -3.9836 H         1 RES1    0.0000
     28 H9        11.6264   -0.7542   -4.0530 H         1 RES1    0.0000
     29 H10       13.4895   -1.3498   -2.7469 H         1 RES1    0.0000
@<TRIPOS>BOND
     1    1    7 1
     2    2    7 2
     3    3    7 2
     4    4    8 1
     5    5    8 2
     6    6    8 2
     7    9   10 1
     8   10    1 1
     9   11   10 1
    10   12   11 1
    11   13   12 1
    12   14    9 1
    13   15    4 1
    14   16   13 ar
    15   17   16 ar
    16   18   17 ar
    17   19   14 ar
    18   20    9 1
    19   21   10 1
    20   22   11 1
    21   23   11 1
    22   24   12 1
    23   25   15 1
    24   26   16 1
    25   27   17 1
    26   28   18 1
    27   29   19 1
    28    9   15 1
    29   12   15 1
    30   13   14 ar
    31   18   19 ar
@<TRIPOS>SUBSTRUCTURE
     1 RES1 1

@<TRIPOS>CRYSIN
  24.1000    6.9900   17.5240  90.0000 129.0700  90.0000  15 1

