# MOL2 file generated by ConQuest
# Please check atom types

@<TRIPOS>MOLECULE
DEQQUO
    50    54     1
SMALL
NO_CHARGES
****
Generated from CSD

@<TRIPOS>ATOM
      1 C1        10.1237   16.1180    4.0041 C.3       1 RES1    0.0000
      2 H1        10.6269   15.3824    4.3841 H         1 RES1    0.0000
      3 H2        10.0566   15.9938    3.0445 H         1 RES1    0.0000
      4 C2         8.7520   16.2233    4.6357 C.3       1 RES1    0.0000
      5 H3         8.1020   16.6019    4.0081 H         1 RES1    0.0000
      6 C3         8.1290   15.1070    5.4634 C.3       1 RES1    0.0000
      7 H4         7.5508   14.5438    4.9262 H         1 RES1    0.0000
      8 H5         8.8060   14.5585    5.8897 H         1 RES1    0.0000
      9 C4         6.8021   15.1688    7.5769 C.3       1 RES1    0.0000
     10 H6         7.5047   14.8871    8.1823 H         1 RES1    0.0000
     11 H7         6.3213   14.3820    7.2747 H         1 RES1    0.0000
     12 C5         5.8584   16.1275    8.2722 C.3       1 RES1    0.0000
     13 H8         5.0615   16.2357    7.7119 H         1 RES1    0.0000
     14 C6         6.4359   17.4966    8.5467 C.3       1 RES1    0.0000
     15 H9         5.7082   18.1254    8.7314 H         1 RES1    0.0000
     16 C7         8.1079   18.6809    9.5612 C.3       1 RES1    0.0000
     17 C8         7.3348   18.0672    7.4608 C.3       1 RES1    0.0000
     18 H10        6.8027   18.4720    6.7449 H         1 RES1    0.0000
     19 C9         8.2245   16.9722    6.9166 C.3       1 RES1    0.0000
     20 H11        8.7856   16.6346    7.6454 H         1 RES1    0.0000
     21 C10        9.0911   17.1981    5.7129 C.2       1 RES1    0.0000
     22 C11        4.3549   14.7809    9.5414 C.2       1 RES1    0.0000
     23 C12        3.1379   13.4762   11.2557 C.ar      1 RES1    0.0000
     24 C13        2.0619   13.0895   10.4892 C.ar      1 RES1    0.0000
     25 H12        2.0421   13.2835    9.5795 H         1 RES1    0.0000
     26 C14        1.0155   12.4140   11.0744 C.ar      1 RES1    0.0000
     27 H13        0.2825   12.1686   10.5571 H         1 RES1    0.0000
     28 C15        1.0365   12.0987   12.4018 C.ar      1 RES1    0.0000
     29 H14        0.3168   11.6570   12.7920 H         1 RES1    0.0000
     30 C16        2.1264   12.4398   13.1517 C.ar      1 RES1    0.0000
     31 H15        2.1561   12.2062   14.0510 H         1 RES1    0.0000
     32 C17        3.1801   13.1238   12.5914 C.ar      1 RES1    0.0000
     33 H16        3.9183   13.3489   13.1102 H         1 RES1    0.0000
     34 C18        7.4896   19.7940   10.3761 C.3       1 RES1    0.0000
     35 H17        6.5703   19.9040   10.1216 H         1 RES1    0.0000
     36 H18        7.9657   20.6118   10.2143 H         1 RES1    0.0000
     37 H19        7.5390   19.5738   11.3090 H         1 RES1    0.0000
     38 C19        9.5192   18.3674    9.9908 C.3       1 RES1    0.0000
     39 H20        9.5172   18.0682   10.9033 H         1 RES1    0.0000
     40 H21       10.0599   19.1586    9.9153 H         1 RES1    0.0000
     41 H22        9.8801   17.6792    9.4274 H         1 RES1    0.0000
     42 N1        10.1850   17.8062    5.5805 N.2       1 RES1    0.0000
     43 N2         7.3651   15.8825    6.4472 N.3       1 RES1    0.0000
     44 N3         4.2212   14.2292   10.7655 N.am      1 RES1    0.0000
     45 O1        10.7395   17.3869    4.3206 O.3       1 RES1    0.0000
     46 O2         5.4488   15.5765    9.5439 O.3       1 RES1    0.0000
     47 O3         3.6358   14.6297    8.5927 O.2       1 RES1    0.0000
     48 O4         7.3407   17.4809    9.6505 O.3       1 RES1    0.0000
     49 O5         8.0684   19.0562    8.1664 O.3       1 RES1    0.0000
     50 H23        4.7744   14.4556   11.3667 H         1 RES1    0.0000
@<TRIPOS>BOND
     1    1    2 1
     2    3    1 1
     3    4    1 1
     4    5    4 1
     5    6    4 1
     6    7    6 1
     7    8    6 1
     8    9   10 1
     9   11    9 1
    10   12    9 1
    11   13   12 1
    12   14   12 1
    13   15   14 1
    14   16   34 1
    15   17   14 1
    16   18   17 1
    17   19   17 1
    18   20   19 1
    19   21    4 1
    20   22   44 1
    21   23   24 ar
    22   24   25 1
    23   26   24 ar
    24   27   26 1
    25   28   26 ar
    26   29   28 1
    27   30   28 ar
    28   31   30 1
    29   32   23 ar
    30   33   32 1
    31   34   35 1
    32   36   34 1
    33   37   34 1
    34   38   16 1
    35   39   38 1
    36   40   38 1
    37   41   38 1
    38   42   21 2
    39   43    6 1
    40   44   23 1
    41   45    1 1
    42   46   12 1
    43   47   22 2
    44   48   14 1
    45   49   16 1
    46   50   44 1
    47    9   43 1
    48   16   48 1
    49   17   49 1
    50   19   21 1
    51   19   43 1
    52   22   46 1
    53   30   32 ar
    54   42   45 1
@<TRIPOS>SUBSTRUCTURE
     1 RES1 1

@<TRIPOS>CRYSIN
   6.5854   16.3469   17.4873  90.0000  90.0000  90.0000  19 1

