# MOL2 file generated by ConQuest
# Please check atom types

@<TRIPOS>MOLECULE
DEQZOR
    55    57     1
SMALL
NO_CHARGES
****
Generated from CSD

@<TRIPOS>ATOM
      1 O1         4.5925    6.6818   11.5804 O.3       1 RES1    0.0000
      2 H1         4.8086    7.1840   12.2180 H         1 RES1    0.0000
      3 O2         6.5732    2.0777   10.6077 O.2       1 RES1    0.0000
      4 O3         4.5795    1.4957    9.7600 O.3       1 RES1    0.0000
      5 O4         6.2906    1.5460    7.2598 O.2       1 RES1    0.0000
      6 O5         6.2201    3.6483    6.4651 O.3       1 RES1    0.0000
      7 N1         5.7549    6.2035   10.9445 N.2       1 RES1    0.0000
      8 C1         5.4499    5.3264   10.0641 C.2       1 RES1    0.0000
      9 C2         6.4426    4.5763    9.2507 C.2       1 RES1    0.0000
     10 C3         5.6688    3.3472    8.7436 C.3       1 RES1    0.0000
     11 C4         4.2345    3.9256    8.5702 C.3       1 RES1    0.0000
     12 H2         4.1619    4.4506    7.7340 H         1 RES1    0.0000
     13 H3         3.5590    3.2020    8.5566 H         1 RES1    0.0000
     14 C5         4.0562    4.8185    9.7947 C.3       1 RES1    0.0000
     15 H4         3.4359    5.5658    9.6030 H         1 RES1    0.0000
     16 H5         3.7107    4.3014   10.5650 H         1 RES1    0.0000
     17 C6         7.7143    4.9343    8.9700 C.2       1 RES1    0.0000
     18 C7         8.2794    6.2744    9.3243 C.ar      1 RES1    0.0000
     19 C8         7.6989    7.4534    8.8524 C.ar      1 RES1    0.0000
     20 H6         6.9054    7.4106    8.3317 H         1 RES1    0.0000
     21 C9         8.2691    8.6890    9.1360 C.ar      1 RES1    0.0000
     22 H7         7.8659    9.4848    8.8094 H         1 RES1    0.0000
     23 C10        9.4269    8.7590    9.8958 C.ar      1 RES1    0.0000
     24 H8         9.8050    9.6043   10.1078 H         1 RES1    0.0000
     25 C11       10.0332    7.5961   10.3467 C.ar      1 RES1    0.0000
     26 H9        10.8346    7.6438   10.8545 H         1 RES1    0.0000
     27 C12        9.4665    6.3595   10.0543 C.ar      1 RES1    0.0000
     28 H10        9.8918    5.5648   10.3545 H         1 RES1    0.0000
     29 C13        8.6683    4.0710    8.2132 C.ar      1 RES1    0.0000
     30 C14        9.3175    4.6044    7.0941 C.ar      1 RES1    0.0000
     31 H11        9.1625    5.5090    6.8488 H         1 RES1    0.0000
     32 C15       10.1838    3.8295    6.3390 C.ar      1 RES1    0.0000
     33 H12       10.5969    4.1976    5.5667 H         1 RES1    0.0000
     34 C16       10.4502    2.5186    6.7063 C.ar      1 RES1    0.0000
     35 H13       11.0423    1.9861    6.1884 H         1 RES1    0.0000
     36 C17        9.8450    1.9949    7.8343 C.ar      1 RES1    0.0000
     37 H14       10.0355    1.1022    8.0978 H         1 RES1    0.0000
     38 C18        8.9579    2.7624    8.5897 C.ar      1 RES1    0.0000
     39 H15        8.5503    2.3909    9.3631 H         1 RES1    0.0000
     40 C19        5.6850    2.2343    9.8162 C.2       1 RES1    0.0000
     41 C20        4.4325    0.4411   10.7628 C.3       1 RES1    0.0000
     42 H16        5.0067    0.6320   11.5465 H         1 RES1    0.0000
     43 H17        4.7009   -0.4325   10.3823 H         1 RES1    0.0000
     44 C21        3.0054    0.4068   11.1692 C.3       1 RES1    0.0000
     45 H18        2.8660   -0.3201   11.8115 H         1 RES1    0.0000
     46 H19        2.4445    0.2571   10.3796 H         1 RES1    0.0000
     47 H20        2.7634    1.2608   11.5846 H         1 RES1    0.0000
     48 C22        6.1157    2.7272    7.4242 C.2       1 RES1    0.0000
     49 C23        6.6427    3.1529    5.1614 C.3       1 RES1    0.0000
     50 H21        5.9199    2.6187    4.7462 H         1 RES1    0.0000
     51 H22        7.4441    2.5792    5.2552 H         1 RES1    0.0000
     52 C24        6.9579    4.3563    4.3109 C.3       1 RES1    0.0000
     53 H23        7.7481    4.8117    4.6694 H         1 RES1    0.0000
     54 H24        6.1947    4.9710    4.3191 H         1 RES1    0.0000
     55 H25        7.1358    4.0687    3.3911 H         1 RES1    0.0000
@<TRIPOS>BOND
     1    1    2 1
     2    3   40 2
     3    4   40 1
     4    5   48 2
     5    6   48 1
     6    7    1 1
     7    8    7 2
     8    9    8 1
     9   10    9 1
    10   11   10 1
    11   12   11 1
    12   13   11 1
    13   14    8 1
    14   15   14 1
    15   16   14 1
    16   17    9 2
    17   18   17 1
    18   19   18 ar
    19   20   19 1
    20   21   19 ar
    21   22   21 1
    22   23   21 ar
    23   24   23 1
    24   25   23 ar
    25   26   25 1
    26   27   18 ar
    27   28   27 1
    28   29   17 1
    29   30   29 ar
    30   31   30 1
    31   32   30 ar
    32   33   32 1
    33   34   32 ar
    34   35   34 1
    35   36   34 ar
    36   37   36 1
    37   38   29 ar
    38   39   38 1
    39   40   10 1
    40   41    4 1
    41   42   41 1
    42   43   41 1
    43   44   41 1
    44   45   44 1
    45   46   44 1
    46   47   44 1
    47   48   10 1
    48   49    6 1
    49   50   49 1
    50   51   49 1
    51   52   49 1
    52   53   52 1
    53   54   52 1
    54   55   52 1
    55   11   14 1
    56   25   27 ar
    57   36   38 ar
@<TRIPOS>SUBSTRUCTURE
     1 RES1 1

@<TRIPOS>CRYSIN
   8.9363    9.8733   12.3144  78.9860  84.6930  84.8980   2 1

