# MOL2 file generated by ConQuest
# Please check atom types

@<TRIPOS>MOLECULE
DERGIR
    56    58     1
SMALL
NO_CHARGES
****
Generated from CSD

@<TRIPOS>ATOM
      1 C1        -2.7789    4.4801    1.9965 C.3       1 RES1    0.0000
      2 C2        -1.2619    4.2662    1.7765 C.3       1 RES1    0.0000
      3 C3        -0.7795    3.1499    2.7264 C.3       1 RES1    0.0000
      4 C4        -1.1105    3.5245    4.1446 C.2       1 RES1    0.0000
      5 C5        -2.5851    3.7015    4.3993 C.3       1 RES1    0.0000
      6 C6        -2.9406    4.0035    5.8512 C.3       1 RES1    0.0000
      7 C7        -4.4557    4.1163    6.0400 C.3       1 RES1    0.0000
      8 C8        -5.0275    5.1718    5.1028 C.3       1 RES1    0.0000
      9 C9        -4.6693    4.8867    3.6543 C.3       1 RES1    0.0000
     10 C10       -3.1518    4.7881    3.4487 C.3       1 RES1    0.0000
     11 C11       -3.2587    5.5583    1.0508 C.2       1 RES1    0.0000
     12 O1        -3.5569    6.6767    1.3597 O.2       1 RES1    0.0000
     13 O2        -3.2702    5.1223   -0.2120 O.3       1 RES1    0.0000
     14 C12       -3.6075    6.1195   -1.2294 C.3       1 RES1    0.0000
     15 C13       -5.0862    6.2324   -1.4042 C.3       1 RES1    0.0000
     16 C14       -0.4359    5.5387    1.9548 C.3       1 RES1    0.0000
     17 N1        -0.3098    3.7585    5.1178 N.2       1 RES1    0.0000
     18 N2         1.0419    3.6120    4.8544 N.3       1 RES1    0.0000
     19 C15        1.9236    3.7218    5.8630 C.ar      1 RES1    0.0000
     20 C16        3.3250    3.5155    5.6827 C.ar      1 RES1    0.0000
     21 C17        4.2303    3.7413    6.7090 C.ar      1 RES1    0.0000
     22 C18        3.7651    4.1477    7.9294 C.ar      1 RES1    0.0000
     23 C19        2.3876    4.2918    8.1789 C.ar      1 RES1    0.0000
     24 C20        1.4976    4.0843    7.1640 C.ar      1 RES1    0.0000
     25 N3         3.8786    3.0747    4.4214 N.pl3     1 RES1    0.0000
     26 O3         5.0971    2.9379    4.3242 O.2       1 RES1    0.0000
     27 O4         3.1157    2.8384    3.4702 O.2       1 RES1    0.0000
     28 N4         4.7143    4.4680    8.9846 N.pl3     1 RES1    0.0000
     29 O5         4.2769    4.8117   10.0758 O.2       1 RES1    0.0000
     30 O6         5.9203    4.4033    8.7296 O.2       1 RES1    0.0000
     31 H1         1.3505    3.2906    4.0665 H         1 RES1    0.0000
     32 H2        -3.2445    3.6179    1.7959 H         1 RES1    0.0000
     33 H3        -1.1240    3.9964    0.8240 H         1 RES1    0.0000
     34 H4         0.2100    3.0364    2.6326 H         1 RES1    0.0000
     35 H5        -1.2364    2.2918    2.4918 H         1 RES1    0.0000
     36 H6        -3.0145    2.8186    4.2074 H         1 RES1    0.0000
     37 H7        -2.5142    4.8676    6.1188 H         1 RES1    0.0000
     38 H8        -2.5938    3.2667    6.4315 H         1 RES1    0.0000
     39 H9        -4.6522    4.3738    6.9865 H         1 RES1    0.0000
     40 H10       -4.8801    3.2325    5.8399 H         1 RES1    0.0000
     41 H11       -6.0226    5.1823    5.1948 H         1 RES1    0.0000
     42 H12       -4.6595    6.0659    5.3582 H         1 RES1    0.0000
     43 H13       -5.0262    5.6247    3.0820 H         1 RES1    0.0000
     44 H14       -5.0901    4.0215    3.3820 H         1 RES1    0.0000
     45 H15       -2.7483    5.6771    3.6637 H         1 RES1    0.0000
     46 H16       -3.2436    7.0077   -0.9494 H         1 RES1    0.0000
     47 H17       -3.1955    5.8504   -2.1002 H         1 RES1    0.0000
     48 H18       -5.2876    6.9177   -2.1030 H         1 RES1    0.0000
     49 H19       -5.5044    6.5049   -0.5381 H         1 RES1    0.0000
     50 H20       -5.4564    5.3476   -1.6889 H         1 RES1    0.0000
     51 H21        0.5302    5.3328    1.8002 H         1 RES1    0.0000
     52 H22       -0.5583    5.8880    2.8848 H         1 RES1    0.0000
     53 H23       -0.7393    6.2278    1.2973 H         1 RES1    0.0000
     54 H24        5.2095    3.6088    6.5583 H         1 RES1    0.0000
     55 H25        2.0629    4.5437    9.0909 H         1 RES1    0.0000
     56 H26        0.5196    4.1914    7.3443 H         1 RES1    0.0000
@<TRIPOS>BOND
     1    1    2 1
     2    2    3 1
     3    3    4 1
     4    4    5 1
     5    5    6 1
     6    6    7 1
     7    7    8 1
     8    8    9 1
     9    9   10 1
    10   10    1 1
    11   11    1 1
    12   12   11 2
    13   13   11 1
    14   14   13 1
    15   15   14 1
    16   16    2 1
    17   17    4 2
    18   18   17 1
    19   19   18 1
    20   20   19 ar
    21   21   20 ar
    22   22   21 ar
    23   23   22 ar
    24   24   19 ar
    25   25   20 1
    26   26   25 2
    27   27   25 2
    28   28   22 1
    29   29   28 2
    30   30   28 2
    31   31   18 1
    32   32    1 1
    33   33    2 1
    34   34    3 1
    35   35    3 1
    36   36    5 1
    37   37    6 1
    38   38    6 1
    39   39    7 1
    40   40    7 1
    41   41    8 1
    42   42    8 1
    43   43    9 1
    44   44    9 1
    45   45   10 1
    46   46   14 1
    47   47   14 1
    48   48   15 1
    49   49   15 1
    50   50   15 1
    51   51   16 1
    52   52   16 1
    53   53   16 1
    54   54   21 1
    55   55   23 1
    56   56   24 1
    57    5   10 1
    58   23   24 ar
@<TRIPOS>SUBSTRUCTURE
     1 RES1 1

@<TRIPOS>CRYSIN
  12.6942   11.4021   15.3269  90.0000 113.2169  90.0000  14 1

