# MOL2 file generated by ConQuest
# Please check atom types

@<TRIPOS>MOLECULE
DERKUH
    60    61     1
SMALL
NO_CHARGES
****
Generated from CSD

@<TRIPOS>ATOM
      1 O1         0.6521    4.7397    1.6106 O.3       1 RES1    0.0000
      2 O2         0.9132    1.9926   -0.3045 O.2       1 RES1    0.0000
      3 O3        -0.7284    2.4949    1.1155 O.3       1 RES1    0.0000
      4 O4         4.3804    2.3826    2.9058 O.2       1 RES1    0.0000
      5 O5         2.9381    1.1907    1.7622 O.3       1 RES1    0.0000
      6 O6         3.7759    6.1358    0.8693 O.2       1 RES1    0.0000
      7 O7         5.1050    5.3040    2.4505 O.3       1 RES1    0.0000
      8 O8         3.6578    7.1197    4.3263 O.2       1 RES1    0.0000
      9 O9         4.0078    5.6421    5.9685 O.3       1 RES1    0.0000
     10 O10        0.6424    3.0365    4.4875 O.2       1 RES1    0.0000
     11 O11       -0.9778    4.5451    4.2379 O.3       1 RES1    0.0000
     12 O12        0.8193    6.5491    5.9132 O.2       1 RES1    0.0000
     13 N1         1.5090    5.5477    2.4864 N.3       1 RES1    0.0000
     14 N2         0.2793    7.5446    3.9358 N.am      1 RES1    0.0000
     15 H1         0.3196    7.3988    3.0796 H         1 RES1    0.0000
     16 C1         1.3034    3.5424    1.4550 C.2       1 RES1    0.0000
     17 C2         2.4995    3.4666    2.0327 C.2       1 RES1    0.0000
     18 C3         2.8130    4.8278    2.6206 C.3       1 RES1    0.0000
     19 C4         2.7179    4.9265    4.1633 C.3       1 RES1    0.0000
     20 H2         2.8313    4.0623    4.6113 H         1 RES1    0.0000
     21 C5         1.2237    5.3146    3.9588 C.3       1 RES1    0.0000
     22 C6         0.4911    2.5755    0.6418 C.2       1 RES1    0.0000
     23 C7        -1.6437    1.6551    0.3726 C.3       1 RES1    0.0000
     24 H3        -2.4974    1.6453    0.8127 H         1 RES1    0.0000
     25 H4        -1.2954    0.7609    0.3315 H         1 RES1    0.0000
     26 H5        -1.7451    2.0008   -0.5159 H         1 RES1    0.0000
     27 C8         3.3950    2.3065    2.2688 C.2       1 RES1    0.0000
     28 C9         3.7681    0.0078    2.0851 C.3       1 RES1    0.0000
     29 H6         3.1990   -0.7267    2.3257 H         1 RES1    0.0000
     30 H7         4.3497    0.2164    2.8202 H         1 RES1    0.0000
     31 H8         4.2940   -0.2331    1.3179 H         1 RES1    0.0000
     32 C10        3.9457    5.5189    1.8723 C.2       1 RES1    0.0000
     33 C11        6.2604    5.9132    1.8183 C.3       1 RES1    0.0000
     34 H9         6.9685    5.9994    2.4594 H         1 RES1    0.0000
     35 H10        6.0222    6.7819    1.4863 H         1 RES1    0.0000
     36 H11        6.5538    5.3609    1.0907 H         1 RES1    0.0000
     37 C12        3.5228    6.0317    4.8006 C.2       1 RES1    0.0000
     38 C13        4.6421    6.6820    6.7689 C.3       1 RES1    0.0000
     39 H12        4.5929    6.4460    7.6989 H         1 RES1    0.0000
     40 H13        4.1900    7.5164    6.6269 H         1 RES1    0.0000
     41 H14        5.5631    6.7681    6.5093 H         1 RES1    0.0000
     42 C14        0.2770    4.1450    4.2643 C.2       1 RES1    0.0000
     43 C15       -1.9851    3.5178    4.4613 C.3       1 RES1    0.0000
     44 H15       -2.8268    3.9330    4.6621 H         1 RES1    0.0000
     45 H16       -1.7181    2.9625    5.1967 H         1 RES1    0.0000
     46 H17       -2.0754    2.9801    3.6703 H         1 RES1    0.0000
     47 C16        0.7459    6.5626    4.6934 C.2       1 RES1    0.0000
     48 C17       -0.2577    8.8319    4.4301 C.3       1 RES1    0.0000
     49 C18       -1.4955    8.5642    5.2735 C.3       1 RES1    0.0000
     50 H18       -1.2575    8.0178    6.0254 H         1 RES1    0.0000
     51 H19       -2.1521    8.1089    4.7423 H         1 RES1    0.0000
     52 H20       -1.8572    9.3977    5.5844 H         1 RES1    0.0000
     53 C19        0.8028    9.5612    5.2403 C.3       1 RES1    0.0000
     54 H21        1.0496    9.0275    5.9987 H         1 RES1    0.0000
     55 H22        0.4534   10.4024    5.5416 H         1 RES1    0.0000
     56 H23        1.5757    9.7140    4.6915 H         1 RES1    0.0000
     57 C20       -0.6163    9.6356    3.1892 C.3       1 RES1    0.0000
     58 H24       -1.3079    9.1822    2.7026 H         1 RES1    0.0000
     59 H25        0.1598    9.7267    2.6304 H         1 RES1    0.0000
     60 H26       -0.9265   10.5063    3.4511 H         1 RES1    0.0000
@<TRIPOS>BOND
     1    1   13 1
     2    2   22 2
     3    3   22 1
     4    4   27 2
     5    5   27 1
     6    6   32 2
     7    7   32 1
     8    8   37 2
     9    9   37 1
    10   10   42 2
    11   11   42 1
    12   12   47 2
    13   13   18 1
    14   14   15 1
    15   16    1 1
    16   17   16 2
    17   18   17 1
    18   19   18 1
    19   20   19 1
    20   21   13 1
    21   22   16 1
    22   23    3 1
    23   24   23 1
    24   25   23 1
    25   26   23 1
    26   27   17 1
    27   28    5 1
    28   29   28 1
    29   30   28 1
    30   31   28 1
    31   32   18 1
    32   33    7 1
    33   34   33 1
    34   35   33 1
    35   36   33 1
    36   37   19 1
    37   38    9 1
    38   39   38 1
    39   40   38 1
    40   41   38 1
    41   42   21 1
    42   43   11 1
    43   44   43 1
    44   45   43 1
    45   46   43 1
    46   47   14 1
    47   48   14 1
    48   49   48 1
    49   50   49 1
    50   51   49 1
    51   52   49 1
    52   53   48 1
    53   54   53 1
    54   55   53 1
    55   56   53 1
    56   57   48 1
    57   58   57 1
    58   59   57 1
    59   60   57 1
    60   19   21 1
    61   21   47 1
@<TRIPOS>SUBSTRUCTURE
     1 RES1 1

@<TRIPOS>CRYSIN
   9.1177    9.7933   26.7605  90.0000  92.6350  90.0000  14 1

