# MOL2 file generated by ConQuest
# Please check atom types

@<TRIPOS>MOLECULE
DETGIS
    32    34     1
SMALL
NO_CHARGES
****
Generated from CSD

@<TRIPOS>ATOM
      1 C1         1.9143    3.1255    2.9750 C.ar      1 RES1    0.0000
      2 C2         1.9942    2.1165    2.0247 C.ar      1 RES1    0.0000
      3 C3         0.9560    1.9078    1.1449 C.ar      1 RES1    0.0000
      4 C4        -0.1565    2.7184    1.2297 C.ar      1 RES1    0.0000
      5 C5        -0.2655    3.7210    2.1593 C.ar      1 RES1    0.0000
      6 C6         0.7904    3.9370    3.0391 C.ar      1 RES1    0.0000
      7 C7        -2.0082    3.4545   -0.2546 C.2       1 RES1    0.0000
      8 C8        -2.9511    2.7919   -1.0558 C.2       1 RES1    0.0000
      9 C9         2.9490    4.3211    4.7657 C.3       1 RES1    0.0000
     10 C10        4.1947    4.2789    5.6001 C.ar      1 RES1    0.0000
     11 C11        5.1204    5.3008    5.5255 C.ar      1 RES1    0.0000
     12 C12        6.2432    5.2870    6.3412 C.ar      1 RES1    0.0000
     13 C13        6.4461    4.2495    7.2107 C.ar      1 RES1    0.0000
     14 C14        5.5285    3.2275    7.2997 C.ar      1 RES1    0.0000
     15 C15        4.3986    3.2523    6.5048 C.ar      1 RES1    0.0000
     16 N1        -1.2632    2.5107    0.3230 N.pl3     1 RES1    0.0000
     17 N2        -1.5925    1.2756    0.0248 N.2       1 RES1    0.0000
     18 O1        -2.6525    1.4272   -0.8488 O.3       1 RES1    0.0000
     19 O2        -3.8496    3.1117   -1.7928 O.2       1 RES1    0.0000
     20 O3         2.9888    3.2404    3.8155 O.3       1 RES1    0.0000
     21 H1         0.9979    1.1046    0.4265 H         1 RES1    0.0000
     22 H2         2.7574    1.4686    2.0889 H         1 RES1    0.0000
     23 H3         0.6847    4.6299    3.8134 H         1 RES1    0.0000
     24 H4        -1.1082    4.3993    2.2607 H         1 RES1    0.0000
     25 H5        -1.8666    4.5086   -0.1284 H         1 RES1    0.0000
     26 H6         2.8779    5.2723    4.2171 H         1 RES1    0.0000
     27 H7         2.0732    4.2504    5.3848 H         1 RES1    0.0000
     28 H8         4.9510    6.1113    4.8403 H         1 RES1    0.0000
     29 H9         6.9723    6.0672    6.3040 H         1 RES1    0.0000
     30 H10        7.3091    4.2035    7.8359 H         1 RES1    0.0000
     31 H11        3.6927    2.4694    6.5793 H         1 RES1    0.0000
     32 H12        5.6786    2.3775    8.0202 H         1 RES1    0.0000
@<TRIPOS>BOND
     1    1    2 ar
     2    2    3 ar
     3    3    4 ar
     4    4    5 ar
     5    5    6 ar
     6    6    1 ar
     7    7    8 1
     8    8   18 1
     9    9   10 1
    10   10   11 ar
    11   11   12 ar
    12   12   13 ar
    13   13   14 ar
    14   14   15 ar
    15   15   10 ar
    16   16    4 1
    17   17   16 un
    18   18   17 1
    19   19    8 2
    20   20    1 1
    21   21    3 1
    22   22    2 1
    23   23    6 1
    24   24    5 1
    25   25    7 1
    26   26    9 1
    27   27    9 1
    28   28   11 1
    29   29   12 1
    30   30   13 1
    31   31   15 1
    32   32   14 1
    33    7   16 un
    34    9   20 1
@<TRIPOS>SUBSTRUCTURE
     1 RES1 1

@<TRIPOS>CRYSIN
   6.5820    9.1900   20.8480  90.0000  96.7700  90.0000  14 1

