# MOL2 file generated by ConQuest
# Please check atom types

@<TRIPOS>MOLECULE
DEVBUE
    41    43     1
SMALL
NO_CHARGES
****
Generated from CSD

@<TRIPOS>ATOM
      1 O1         2.8004    7.9558    3.1296 O.2       1 RES1    0.0000
      2 O2         4.8003    6.9947    4.6050 O.3       1 RES1    0.0000
      3 O3         4.1575   11.7942    6.4560 O.3       1 RES1    0.0000
      4 H1         4.7267   12.2712    6.1082 H         1 RES1    0.0000
      5 O4         1.1700    4.1000    9.3930 O.3       1 RES1    0.0000
      6 N1         3.9510    7.9889    5.0909 N.am      1 RES1    0.0000
      7 O5         5.7418   10.2576    6.3599 O.2       1 RES1    0.0000
      8 C1         1.9381    9.2736    4.9260 C.ar      1 RES1    0.0000
      9 C2         2.9189    8.3423    4.2994 C.2       1 RES1    0.0000
     10 C3         2.1990    9.8550    6.1686 C.ar      1 RES1    0.0000
     11 C4         3.1618    7.0467    7.2418 C.ar      1 RES1    0.0000
     12 C5         3.9686    8.1265    6.5458 C.3       1 RES1    0.0000
     13 H2         4.8989    8.0432    6.8431 H         1 RES1    0.0000
     14 C6         1.2559   10.7255    6.7169 C.ar      1 RES1    0.0000
     15 H3         1.4186   11.1209    7.5430 H         1 RES1    0.0000
     16 C7         3.4997    9.5513    6.8655 C.3       1 RES1    0.0000
     17 H4         3.3429    9.6062    7.8306 H         1 RES1    0.0000
     18 C8         0.7579    9.5588    4.2438 C.ar      1 RES1    0.0000
     19 H5         0.5934    9.1715    3.4149 H         1 RES1    0.0000
     20 C9         3.2316    6.9567    8.6325 C.ar      1 RES1    0.0000
     21 H6         3.7468    7.5701    9.1058 H         1 RES1    0.0000
     22 C10        0.0813   11.0055    6.0412 C.ar      1 RES1    0.0000
     23 H7        -0.5415   11.5863    6.4141 H         1 RES1    0.0000
     24 C11        1.7808    5.0463    8.6202 C.ar      1 RES1    0.0000
     25 C12       -0.1705   10.4202    4.8043 C.ar      1 RES1    0.0000
     26 H8        -0.9628   10.6072    4.3542 H         1 RES1    0.0000
     27 C13        2.3946    6.1189    6.5638 C.ar      1 RES1    0.0000
     28 H9         2.3427    6.1619    5.6361 H         1 RES1    0.0000
     29 C14        2.5502    5.9754    9.3166 C.ar      1 RES1    0.0000
     30 H10        2.6038    5.9325   10.2447 H         1 RES1    0.0000
     31 C15        4.5950   10.5595    6.5092 C.2       1 RES1    0.0000
     32 C16        1.6963    5.1194    7.2408 C.ar      1 RES1    0.0000
     33 H11        1.1781    4.5078    6.7699 H         1 RES1    0.0000
     34 C17        6.0479    7.6019    4.1956 C.3       1 RES1    0.0000
     35 H12        5.8860    8.2046    3.4664 H         1 RES1    0.0000
     36 H13        6.6597    6.9171    3.9153 H         1 RES1    0.0000
     37 H14        6.4247    8.0860    4.9328 H         1 RES1    0.0000
     38 C18        0.3977    3.1102    8.7271 C.3       1 RES1    0.0000
     39 H15        0.9459    2.6562    8.0834 H         1 RES1    0.0000
     40 H16       -0.3420    3.5288    8.2795 H         1 RES1    0.0000
     41 H17        0.0664    2.4773    9.3685 H         1 RES1    0.0000
@<TRIPOS>BOND
     1    1    9 2
     2    2    6 1
     3    3    4 1
     4    5   24 1
     5    6    9 1
     6    7   31 2
     7    8    9 1
     8   10    8 ar
     9   11   12 1
    10   12    6 1
    11   13   12 1
    12   14   10 ar
    13   15   14 1
    14   16   10 1
    15   17   16 1
    16   18    8 ar
    17   19   18 1
    18   20   11 ar
    19   21   20 1
    20   22   14 ar
    21   23   22 1
    22   24   29 ar
    23   25   18 ar
    24   26   25 1
    25   27   11 ar
    26   28   27 1
    27   29   20 ar
    28   30   29 1
    29   31    3 1
    30   32   24 ar
    31   33   32 1
    32   34    2 1
    33   35   34 1
    34   36   34 1
    35   37   34 1
    36   38    5 1
    37   39   38 1
    38   40   38 1
    39   41   38 1
    40   12   16 1
    41   16   31 1
    42   22   25 ar
    43   27   32 ar
@<TRIPOS>SUBSTRUCTURE
     1 RES1 1

@<TRIPOS>CRYSIN
   8.7062   10.9760   16.6273  90.0000  90.8240  90.0000  14 1

