# MOL2 file generated by ConQuest
# Please check atom types

@<TRIPOS>MOLECULE
DEVBOY
    38    40     1
SMALL
NO_CHARGES
****
Generated from CSD

@<TRIPOS>ATOM
      1 O1         6.8570    3.5584    8.1579 O.2       1 RES1    0.0000
      2 O2         1.3952    9.7178    9.5085 O.3       1 RES1    0.0000
      3 O3         7.4783    7.4500    8.5718 O.3       1 RES1    0.0000
      4 H1         7.6812    8.1914    8.2850 H         1 RES1    0.0000
      5 O4         7.8802    7.7709    5.9336 O.2       1 RES1    0.0000
      6 O5         5.5299    2.7655    6.5397 O.3       1 RES1    0.0000
      7 H2         6.1011    2.1794    6.4845 H         1 RES1    0.0000
      8 N1         6.7385    6.7653    7.6063 N.am      1 RES1    0.0000
      9 C1         5.1277    5.3897    5.7693 C.ar      1 RES1    0.0000
     10 C2         3.6012    6.7573    9.5685 C.ar      1 RES1    0.0000
     11 H3         3.7165    5.9563   10.0258 H         1 RES1    0.0000
     12 C3         4.4685    7.0755    8.5301 C.ar      1 RES1    0.0000
     13 C4         5.9365    3.6958    7.3728 C.2       1 RES1    0.0000
     14 C5         2.3856    8.8097    9.2469 C.ar      1 RES1    0.0000
     15 C6         6.9851    6.9935    6.3090 C.2       1 RES1    0.0000
     16 C7         4.2874    8.2835    7.8529 C.ar      1 RES1    0.0000
     17 H4         4.8616    8.5127    7.1592 H         1 RES1    0.0000
     18 C8         6.0985    6.2993    5.3421 C.ar      1 RES1    0.0000
     19 C9         2.5620    7.6104    9.9392 C.ar      1 RES1    0.0000
     20 H5         1.9937    7.3828   10.6387 H         1 RES1    0.0000
     21 C10        5.1047    4.9787    7.2236 C.3       1 RES1    0.0000
     22 H6         4.1782    4.7604    7.4571 H         1 RES1    0.0000
     23 C11        3.2576    9.1443    8.2069 C.ar      1 RES1    0.0000
     24 H7         3.1470    9.9470    7.7508 H         1 RES1    0.0000
     25 C12        6.2487    6.5916    3.9844 C.ar      1 RES1    0.0000
     26 H8         6.9076    7.1846    3.7030 H         1 RES1    0.0000
     27 C13        4.2810    4.8022    4.8320 C.ar      1 RES1    0.0000
     28 H9         3.6241    4.2045    5.1097 H         1 RES1    0.0000
     29 C14        5.5744    6.0906    8.1732 C.3       1 RES1    0.0000
     30 H10        5.8630    5.6609    9.0064 H         1 RES1    0.0000
     31 C15        4.4154    5.1072    3.4825 C.ar      1 RES1    0.0000
     32 H11        3.8427    4.7202    2.8603 H         1 RES1    0.0000
     33 C16        5.4059    5.9905    3.0586 C.ar      1 RES1    0.0000
     34 H12        5.5029    6.1778    2.1537 H         1 RES1    0.0000
     35 C17        0.5058    9.4250   10.5866 C.3       1 RES1    0.0000
     36 H13        0.0575    8.5930   10.4153 H         1 RES1    0.0000
     37 H14       -0.1437   10.1271   10.6664 H         1 RES1    0.0000
     38 H15        1.0045    9.3575   11.4049 H         1 RES1    0.0000
@<TRIPOS>BOND
     1    1   13 2
     2    2   14 1
     3    3    4 1
     4    5   15 2
     5    6    7 1
     6    8    3 1
     7    9   18 ar
     8   10   11 1
     9   12   10 ar
    10   13    6 1
    11   14   19 ar
    12   15    8 1
    13   16   12 ar
    14   17   16 1
    15   18   15 1
    16   19   10 ar
    17   20   19 1
    18   21    9 1
    19   22   21 1
    20   23   14 ar
    21   24   23 1
    22   25   18 ar
    23   26   25 1
    24   27    9 ar
    25   28   27 1
    26   29    8 1
    27   30   29 1
    28   31   27 ar
    29   32   31 1
    30   33   25 ar
    31   34   33 1
    32   35    2 1
    33   36   35 1
    34   37   35 1
    35   38   35 1
    36   12   29 1
    37   13   21 1
    38   16   23 ar
    39   21   29 1
    40   31   33 ar
@<TRIPOS>SUBSTRUCTURE
     1 RES1 1

@<TRIPOS>CRYSIN
  10.2608   12.9569   21.2817  90.0000  90.0000  90.0000  61 1

