# MOL2 file generated by ConQuest
# Please check atom types

@<TRIPOS>MOLECULE
DEVRUR
    27    28     1
SMALL
NO_CHARGES
****
Generated from CSD

@<TRIPOS>ATOM
      1 C1         1.4711    1.2103    0.6616 C.ar      1 RES1    0.0000
      2 C2         1.0649    2.6470    0.5796 C.3       1 RES1    0.0000
      3 O1         0.0534    2.7973    1.5853 O.3       1 RES1    0.0000
      4 N1         3.0760    3.1854    1.9130 N.pl3     1 RES1    0.0000
      5 C3         2.1855    3.6652    0.7811 C.3       1 RES1    0.0000
      6 O2        -0.9594    1.5542    3.1366 O.2       1 RES1    0.0000
      7 C4         0.8612   -0.7233    1.9767 C.ar      1 RES1    0.0000
      8 C5         0.7191    0.6156    1.6541 C.ar      1 RES1    0.0000
      9 C6        -0.1541    1.6213    2.2453 C.2       1 RES1    0.0000
     10 C7         2.3881    0.4812   -0.0656 C.ar      1 RES1    0.0000
     11 O3         2.6327    3.1205    3.0206 O.2       1 RES1    0.0000
     12 C8         1.7090    5.0691    1.0677 C.3       1 RES1    0.0000
     13 O4         4.2280    2.8954    1.6254 O.2       1 RES1    0.0000
     14 C9         2.5097   -0.8763    0.2645 C.ar      1 RES1    0.0000
     15 C10        1.7749   -1.4507    1.2593 C.ar      1 RES1    0.0000
     16 C11        2.7700    6.0892    1.1862 C.3       1 RES1    0.0000
     17 H1         0.7135    2.8322   -0.2945 H         1 RES1    0.0000
     18 H2         2.7143    3.7277   -0.0179 H         1 RES1    0.0000
     19 H3         0.3502   -1.1408    2.6736 H         1 RES1    0.0000
     20 H4         2.9297    0.8538   -0.7649 H         1 RES1    0.0000
     21 H5         1.1321    5.3568    0.3563 H         1 RES1    0.0000
     22 H6         1.2242    5.0761    1.8960 H         1 RES1    0.0000
     23 H7         3.1458   -1.4040   -0.2243 H         1 RES1    0.0000
     24 H8         1.8788   -2.3838    1.4579 H         1 RES1    0.0000
     25 H9         2.3866    6.9517    1.3662 H         1 RES1    0.0000
     26 H10        3.2656    6.1250    0.3652 H         1 RES1    0.0000
     27 H11        3.3578    5.8443    1.9049 H         1 RES1    0.0000
@<TRIPOS>BOND
     1    1    2 1
     2    2    3 1
     3    3    9 1
     4    4    5 1
     5    5    2 1
     6    6    9 2
     7    7    8 ar
     8    8    1 ar
     9    9    8 1
    10   10    1 ar
    11   11    4 2
    12   12    5 1
    13   13    4 2
    14   14   10 ar
    15   15    7 ar
    16   16   12 1
    17   17    2 1
    18   18    5 1
    19   19    7 1
    20   20   10 1
    21   21   12 1
    22   22   12 1
    23   23   14 1
    24   24   15 1
    25   25   16 1
    26   26   16 1
    27   27   16 1
    28   14   15 ar
@<TRIPOS>SUBSTRUCTURE
     1 RES1 1

@<TRIPOS>CRYSIN
   8.8610   11.7940   10.8910  90.0000 103.6820  90.0000  14 1

