# MOL2 file generated by ConQuest
# Please check atom types

@<TRIPOS>MOLECULE
DEVROL
    32    34     1
SMALL
NO_CHARGES
****
Generated from CSD

@<TRIPOS>ATOM
      1 C1         2.8345    3.5852    5.1622 C.ar      1 RES1    0.0000
      2 O1         4.8298    2.3584    9.4099 O.3       1 RES1    0.0000
      3 C2         4.3289    2.3261    6.4946 C.ar      1 RES1    0.0000
      4 C3         1.9275    0.0462    8.8619 C.ar      1 RES1    0.0000
      5 C4         4.0185    2.8830    5.2733 C.ar      1 RES1    0.0000
      6 O2         0.6525   -1.3469   11.9495 O.2       1 RES1    0.0000
      7 C5         1.9705    3.7629    6.2237 C.ar      1 RES1    0.0000
      8 C6         3.7570    1.8084    8.8666 C.2       1 RES1    0.0000
      9 O3         4.2381    1.0876   11.4970 O.2       1 RES1    0.0000
     10 C7         2.2707    3.1730    7.4262 C.ar      1 RES1    0.0000
     11 C8         3.0043    0.8261    9.4820 C.2       1 RES1    0.0000
     12 C9         3.3010    0.6007   10.8817 C.2       1 RES1    0.0000
     13 O4         3.0181    3.6752    2.8715 O.2       1 RES1    0.0000
     14 O5         2.4578   -0.1692   11.6320 O.3       1 RES1    0.0000
     15 N1         2.4456    4.1129    3.8548 N.pl3     1 RES1    0.0000
     16 C10        1.0943   -0.7230    9.6933 C.ar      1 RES1    0.0000
     17 C11        1.3271   -0.7769   11.1369 C.2       1 RES1    0.0000
     18 C12       -0.1873   -1.4992    7.8270 C.ar      1 RES1    0.0000
     19 C13        0.6462   -0.7846    6.9893 C.ar      1 RES1    0.0000
     20 C14        3.4435    2.4345    7.5608 C.ar      1 RES1    0.0000
     21 O6         1.5745    4.9598    3.8156 O.2       1 RES1    0.0000
     22 C15        0.0467   -1.4838    9.1798 C.ar      1 RES1    0.0000
     23 C16        1.6926   -0.0431    7.4825 C.ar      1 RES1    0.0000
     24 H1         5.1536    1.8500    6.6189 H         1 RES1    0.0000
     25 H2         4.6184    2.7970    4.5301 H         1 RES1    0.0000
     26 H3         1.1828    4.3052    6.1409 H         1 RES1    0.0000
     27 H4         1.6737    3.2512    8.1751 H         1 RES1    0.0000
     28 H5        -0.9336   -1.9962    7.4846 H         1 RES1    0.0000
     29 H6         0.4826   -0.8197    6.0443 H         1 RES1    0.0000
     30 H7        -0.4968   -2.0057    9.7751 H         1 RES1    0.0000
     31 H8         2.2764    0.4201    6.8765 H         1 RES1    0.0000
     32 H9         4.8875    1.9307   10.2711 H         1 RES1    0.0000
@<TRIPOS>BOND
     1    1    5 ar
     2    2    8 1
     3    3    5 ar
     4    4   11 1
     5    5   25 1
     6    6   17 2
     7    7    1 ar
     8    8   11 2
     9    9   12 2
    10   10    7 ar
    11   11   12 1
    12   12   14 1
    13   13   15 2
    14   14   17 1
    15   15    1 1
    16   16    4 ar
    17   17   16 1
    18   18   19 ar
    19   19   23 ar
    20   20    3 ar
    21   21   15 2
    22   22   16 ar
    23   23    4 ar
    24   24    3 1
    25   26    7 1
    26   27   10 1
    27   28   18 1
    28   29   19 1
    29   30   22 1
    30   31   23 1
    31   32    2 1
    32    8   20 1
    33   10   20 ar
    34   18   22 ar
@<TRIPOS>SUBSTRUCTURE
     1 RES1 1

@<TRIPOS>CRYSIN
   5.5530    7.6920   15.6760  90.0000  92.8120  90.0000   7 1

