# MOL2 file generated by ConQuest
# Please check atom types

@<TRIPOS>MOLECULE
DEVWUX
    28    30     1
SMALL
NO_CHARGES
****
Generated from CSD

@<TRIPOS>ATOM
      1 O1        -0.3145    0.6861    7.4912 O.2       1 RES1    0.0000
      2 O2        -0.5828    3.4901    7.1626 O.2       1 RES1    0.0000
      3 O3        -1.0292    2.6831    5.1964 O.2       1 RES1    0.0000
      4 N1        -0.1037    1.0452    9.7100 N.am      1 RES1    0.0000
      5 H1        -0.8346    0.5671    9.8739 H         1 RES1    0.0000
      6 N2        -0.2511    2.9545    6.1080 N.pl3     1 RES1    0.0000
      7 C1         0.3051    1.1779    8.4520 C.2       1 RES1    0.0000
      8 C2         1.6396    1.8252    8.2387 C.ar      1 RES1    0.0000
      9 C3         2.5685    1.7205    9.2515 C.ar      1 RES1    0.0000
     10 C4         2.1288    1.3312   10.6383 C.3       1 RES1    0.0000
     11 H2         2.6737    1.8321   11.3200 H         1 RES1    0.0000
     12 H3         2.3283    0.3708   10.7682 H         1 RES1    0.0000
     13 C5         0.6488    1.5813   10.8391 C.3       1 RES1    0.0000
     14 H4         0.4547    2.5518   10.9154 H         1 RES1    0.0000
     15 H5         0.3083    1.1414   11.6589 H         1 RES1    0.0000
     16 C6         3.9467    1.9150    8.9806 C.ar      1 RES1    0.0000
     17 H6         4.5653    1.8321    9.7267 H         1 RES1    0.0000
     18 C7         4.3709    2.1658    7.7114 C.ar      1 RES1    0.0000
     19 H7         5.3405    2.2392    7.5106 H         1 RES1    0.0000
     20 C8         3.4359    2.3785    6.6632 C.ar      1 RES1    0.0000
     21 C9         2.0378    2.2928    6.9428 C.ar      1 RES1    0.0000
     22 C10        1.1782    2.6943    5.8851 C.ar      1 RES1    0.0000
     23 C11        1.6356    3.0280    4.6336 C.ar      1 RES1    0.0000
     24 H8         1.0069    3.3225    4.0010 H         1 RES1    0.0000
     25 C12        3.0104    2.9953    4.3594 C.ar      1 RES1    0.0000
     26 H9         3.2951    3.2280    3.4971 H         1 RES1    0.0000
     27 C13        3.8851    2.6987    5.3555 C.ar      1 RES1    0.0000
     28 H10        4.8540    2.6900    5.1703 H         1 RES1    0.0000
@<TRIPOS>BOND
     1    1    7 2
     2    2    6 2
     3    3    6 2
     4    4    5 1
     5    6   22 1
     6    7    4 1
     7    8    7 1
     8    9    8 ar
     9   10    9 1
    10   11   10 1
    11   12   10 1
    12   13    4 1
    13   14   13 1
    14   15   13 1
    15   16    9 ar
    16   17   16 1
    17   18   16 ar
    18   19   18 1
    19   20   18 ar
    20   21    8 ar
    21   22   21 ar
    22   23   22 ar
    23   24   23 1
    24   25   23 ar
    25   26   25 1
    26   27   20 ar
    27   28   27 1
    28   10   13 1
    29   20   21 ar
    30   25   27 ar
@<TRIPOS>SUBSTRUCTURE
     1 RES1 1

@<TRIPOS>CRYSIN
   8.3227    7.2702   17.9355  90.0000  98.4040  90.0000 231 1

