# MOL2 file generated by ConQuest
# Please check atom types

@<TRIPOS>MOLECULE
DEXFET
    58    60     1
SMALL
NO_CHARGES
****
Generated from CSD

@<TRIPOS>ATOM
      1 O1         7.5872    0.6731   13.3075 O.2       1 RES1    0.0000
      2 O2         7.6342    2.4128    9.3908 O.3       1 RES1    0.0000
      3 H1         7.1660    1.7299    9.3302 H         1 RES1    0.0000
      4 O3         1.3765   -1.9957   15.0638 O.2       1 RES1    0.0000
      5 O4         1.2791   -2.6197   13.0462 O.2       1 RES1    0.0000
      6 N1         6.4299    2.1061   12.0164 N.am      1 RES1    0.0000
      7 N2         1.7838   -1.9774   13.9299 N.pl3     1 RES1    0.0000
      8 C1         7.6301    2.9181   11.7622 C.3       1 RES1    0.0000
      9 H2         8.2052    2.9022   12.5672 H         1 RES1    0.0000
     10 C2         5.2177    2.8594   11.6638 C.3       1 RES1    0.0000
     11 H3         4.4480    2.5680   12.1976 H         1 RES1    0.0000
     12 H4         5.0044    2.7637   10.7117 H         1 RES1    0.0000
     13 C3         5.4663    4.5789   13.4849 C.3       1 RES1    0.0000
     14 H5         4.5151    4.5674   13.7250 H         1 RES1    0.0000
     15 H6         5.9146    3.8751   13.9978 H         1 RES1    0.0000
     16 C4         6.0591    5.9257   13.8583 C.3       1 RES1    0.0000
     17 H7         5.4819    6.6370   13.5101 H         1 RES1    0.0000
     18 H8         6.0798    6.0075   14.8350 H         1 RES1    0.0000
     19 C5         7.4475    6.1132   13.3210 C.2       1 RES1    0.0000
     20 C6         7.8835    5.3901   12.2907 C.2       1 RES1    0.0000
     21 H9         8.7648    5.5404   11.9978 H         1 RES1    0.0000
     22 C7         6.5091    1.0274   12.8051 C.2       1 RES1    0.0000
     23 C8         5.2612    0.2485   13.0759 C.ar      1 RES1    0.0000
     24 C9         4.9274   -0.0543   14.3925 C.ar      1 RES1    0.0000
     25 H10        5.4851    0.2326   15.0927 H         1 RES1    0.0000
     26 C10        3.7900   -0.7671   14.6741 C.ar      1 RES1    0.0000
     27 H11        3.5537   -0.9563   15.5642 H         1 RES1    0.0000
     28 C11        2.9960   -1.2019   13.6307 C.ar      1 RES1    0.0000
     29 C12        8.4154    2.3476   10.5772 C.3       1 RES1    0.0000
     30 H12        8.6294    1.3994   10.7645 H         1 RES1    0.0000
     31 C13        9.7076    3.0984   10.3321 C.3       1 RES1    0.0000
     32 H13       10.1686    3.2160   11.1882 H         1 RES1    0.0000
     33 H14        9.4918    3.9896    9.9877 H         1 RES1    0.0000
     34 C14       10.6608    2.4107    9.3503 C.3       1 RES1    0.0000
     35 H15       10.1622    2.1748    8.5395 H         1 RES1    0.0000
     36 H16       11.3603    3.0462    9.0939 H         1 RES1    0.0000
     37 C15       11.3176    1.1594    9.8971 C.3       1 RES1    0.0000
     38 H17       10.6205    0.5686   10.2491 H         1 RES1    0.0000
     39 H18       11.8964    1.4123   10.6451 H         1 RES1    0.0000
     40 C16       12.1629    0.3674    8.8613 C.3       1 RES1    0.0000
     41 H19       12.5167   -0.4375    9.2937 H         1 RES1    0.0000
     42 H20       11.5724    0.0794    8.1322 H         1 RES1    0.0000
     43 C17       13.2586    1.1096    8.2981 C.3       1 RES1    0.0000
     44 H21       13.7756    1.5139    9.0134 H         1 RES1    0.0000
     45 H22       12.9143    1.8056    7.7161 H         1 RES1    0.0000
     46 H23       13.8257    0.5114    7.7865 H         1 RES1    0.0000
     47 C18        8.2788    7.1742   13.9702 C.3       1 RES1    0.0000
     48 H24        8.3566    6.9896   14.9193 H         1 RES1    0.0000
     49 H25        7.8577    8.0382   13.8432 H         1 RES1    0.0000
     50 H26        9.1613    7.1835   13.5691 H         1 RES1    0.0000
     51 C19        5.6132    4.2898   12.0015 C.3       1 RES1    0.0000
     52 H27        5.0704    4.9274   11.4736 H         1 RES1    0.0000
     53 C20        7.0808    4.3549   11.5605 C.3       1 RES1    0.0000
     54 H28        7.1063    4.5656   10.5936 H         1 RES1    0.0000
     55 C21        4.4571   -0.2190   12.0435 C.ar      1 RES1    0.0000
     56 H29        4.6857   -0.0295   11.1517 H         1 RES1    0.0000
     57 C22        3.3250   -0.9598   12.3166 C.ar      1 RES1    0.0000
     58 H30        2.7905   -1.2923   11.6194 H         1 RES1    0.0000
@<TRIPOS>BOND
     1    1   22 2
     2    2    3 1
     3    4    7 2
     4    5    7 2
     5    6    8 1
     6    7   28 1
     7    8    9 1
     8   10    6 1
     9   11   10 1
    10   12   10 1
    11   13   14 1
    12   15   13 1
    13   16   13 1
    14   17   16 1
    15   18   16 1
    16   19   16 1
    17   20   19 2
    18   21   20 1
    19   22    6 1
    20   23   22 1
    21   24   23 ar
    22   25   24 1
    23   26   24 ar
    24   27   26 1
    25   28   26 ar
    26   29    2 1
    27   30   29 1
    28   31   29 1
    29   32   31 1
    30   33   31 1
    31   34   31 1
    32   35   34 1
    33   36   34 1
    34   37   34 1
    35   38   37 1
    36   39   37 1
    37   40   37 1
    38   41   40 1
    39   42   40 1
    40   43   40 1
    41   44   43 1
    42   45   43 1
    43   46   43 1
    44   47   19 1
    45   48   47 1
    46   49   47 1
    47   50   47 1
    48   51   10 1
    49   52   51 1
    50   53    8 1
    51   54   53 1
    52   55   23 ar
    53   56   55 1
    54   57   28 ar
    55   58   57 1
    56    8   29 1
    57   13   51 1
    58   20   53 1
    59   51   53 1
    60   55   57 ar
@<TRIPOS>SUBSTRUCTURE
     1 RES1 1

@<TRIPOS>CRYSIN
  21.3178   21.3178   12.5710  90.0000  90.0000 120.0000 232 1

