# MOL2 file generated by ConQuest
# Please check atom types

@<TRIPOS>MOLECULE
DEXQOP
    37    39     1
SMALL
USER_CHARGES
****
Generated from CSD

@<TRIPOS>ATOM
      1 N1         7.5050    7.4396   -0.0788 N.3       1 RES1    0.0000
      2 N2         7.1553    5.9056   -1.5860 N.pl3     1 RES1    1.0000
      3 N3         7.4291    4.2288    2.8483 N.2       1 RES1    0.0000
      4 N4         7.8206    3.2807    1.9468 N.pl3     1 RES1    0.0000
      5 O1         7.7773    8.0031    1.0379 O.2       1 RES1    0.0000
      6 O2         6.9111    4.7750   -2.1398 O.2       1 RES1   -1.0000
      7 C1         7.4201    6.1091   -0.2860 C.2       1 RES1    0.0000
      8 C2         7.0597    8.2133   -1.2792 C.3       1 RES1    0.0000
      9 C3         7.3203    7.1631   -2.3859 C.3       1 RES1    0.0000
     10 C4         5.5884    8.5353   -1.0656 C.3       1 RES1    0.0000
     11 H1         5.2583    9.0348   -1.8164 H         1 RES1    0.0000
     12 H2         5.4880    9.0566   -0.2652 H         1 RES1    0.0000
     13 H3         5.0910    7.7189   -0.9801 H         1 RES1    0.0000
     14 C5         7.8516    9.4976   -1.4088 C.3       1 RES1    0.0000
     15 H4         7.5527    9.9810   -2.1832 H         1 RES1    0.0000
     16 H5         8.7849    9.2909   -1.5017 H         1 RES1    0.0000
     17 H6         7.7191   10.0361   -0.6257 H         1 RES1    0.0000
     18 C6         8.7529    7.1459   -2.8944 C.3       1 RES1    0.0000
     19 H7         8.9167    7.9348   -3.4173 H         1 RES1    0.0000
     20 H8         8.8910    6.3673   -3.4384 H         1 RES1    0.0000
     21 H9         9.3573    7.1263   -2.1485 H         1 RES1    0.0000
     22 C7         6.3478    7.1918   -3.5445 C.3       1 RES1    0.0000
     23 H10        6.4697    8.0025   -4.0443 H         1 RES1    0.0000
     24 H11        5.4497    7.1539   -3.2091 H         1 RES1    0.0000
     25 H12        6.5087    6.4362   -4.1161 H         1 RES1    0.0000
     26 C8         7.5500    5.1189    0.7455 C.2       1 RES1    0.0000
     27 C9         7.9131    3.7650    0.6537 C.2       1 RES1    0.0000
     28 C10        8.3550    2.8640   -0.3370 C.2       1 RES1    0.0000
     29 H13        8.4644    3.1509   -1.2143 H         1 RES1    0.0000
     30 C11        8.6211    1.5755   -0.0031 C.2       1 RES1    0.0000
     31 H14        8.8972    0.9795   -0.6604 H         1 RES1    0.0000
     32 C12        8.4826    1.1311    1.3253 C.2       1 RES1    0.0000
     33 H15        8.6583    0.2423    1.5377 H         1 RES1    0.0000
     34 C13        8.0964    1.9854    2.2883 C.2       1 RES1    0.0000
     35 H16        8.0189    1.7018    3.1707 H         1 RES1    0.0000
     36 C14        7.2806    5.3212    2.1103 C.2       1 RES1    0.0000
     37 H17        7.0228    6.1423    2.4620 H         1 RES1    0.0000
@<TRIPOS>BOND
     1    1    5 1
     2    2    6 1
     3    3    4 1
     4    4   27 1
     5    7    1 1
     6    8    1 1
     7    9    2 1
     8   10    8 1
     9   11   10 1
    10   12   10 1
    11   13   10 1
    12   14    8 1
    13   15   14 1
    14   16   14 1
    15   17   14 1
    16   18    9 1
    17   19   18 1
    18   20   18 1
    19   21   18 1
    20   22    9 1
    21   23   22 1
    22   24   22 1
    23   25   22 1
    24   26    7 1
    25   27   26 2
    26   28   27 1
    27   29   28 1
    28   30   28 2
    29   31   30 1
    30   32   30 1
    31   33   32 1
    32   34    4 1
    33   35   34 1
    34   36    3 2
    35   37   36 1
    36    2    7 2
    37    8    9 1
    38   26   36 1
    39   32   34 2
@<TRIPOS>SUBSTRUCTURE
     1 RES1 1

@<TRIPOS>CRYSIN
   9.9790   11.4830   13.2980  90.0000 111.2900  90.0000  14 1

