# MOL2 file generated by ConQuest
# Please check atom types

@<TRIPOS>MOLECULE
DEXVUY
    33    35     1
SMALL
NO_CHARGES
****
Generated from CSD

@<TRIPOS>ATOM
      1 N1         2.5136    7.6588    1.7758 N.am      1 RES1    0.0000
      2 N2         0.3636   12.0120    1.3066 N.pl3     1 RES1    0.0000
      3 O1         3.4266    5.5833    1.8326 O.2       1 RES1    0.0000
      4 O2         3.2942    7.8617   -0.8924 O.3       1 RES1    0.0000
      5 O3        -0.1416   11.8671    2.4045 O.2       1 RES1    0.0000
      6 O4         0.2394   13.0312    0.6525 O.2       1 RES1    0.0000
      7 C1         3.0844    6.5690    1.2001 C.2       1 RES1    0.0000
      8 C2         3.2228    6.5872   -0.2917 C.3       1 RES1    0.0000
      9 H1         4.0231    6.0940   -0.5290 H         1 RES1    0.0000
     10 H2         2.4670    6.1132   -0.6730 H         1 RES1    0.0000
     11 C3         2.5419    8.8429   -0.3299 C.ar      1 RES1    0.0000
     12 C4         2.2554    9.9467   -1.1047 C.ar      1 RES1    0.0000
     13 H3         2.5358    9.9756   -1.9912 H         1 RES1    0.0000
     14 C5         1.5568   11.0034   -0.5746 C.ar      1 RES1    0.0000
     15 H4         1.3698   11.7572   -1.0858 H         1 RES1    0.0000
     16 C6         1.1439   10.9188    0.7307 C.ar      1 RES1    0.0000
     17 C7         1.4098    9.8256    1.5230 C.ar      1 RES1    0.0000
     18 H5         1.1036    9.7958    2.4005 H         1 RES1    0.0000
     19 C8         2.1375    8.7746    1.0001 C.ar      1 RES1    0.0000
     20 C9         2.2378    7.6276    3.2180 C.3       1 RES1    0.0000
     21 H6         2.4303    8.5006    3.5938 H         1 RES1    0.0000
     22 H7         2.8343    6.9872    3.6372 H         1 RES1    0.0000
     23 C10        0.8172    7.2584    3.5451 C.ar      1 RES1    0.0000
     24 C11        0.0694    8.0256    4.4153 C.ar      1 RES1    0.0000
     25 H8         0.4407    8.7920    4.7889 H         1 RES1    0.0000
     26 C12       -1.2237    7.6660    4.7379 C.ar      1 RES1    0.0000
     27 H9        -1.7151    8.1881    5.3300 H         1 RES1    0.0000
     28 C13       -1.7878    6.5401    4.1889 C.ar      1 RES1    0.0000
     29 H10       -2.6606    6.2988    4.4056 H         1 RES1    0.0000
     30 C14       -1.0544    5.7738    3.3198 C.ar      1 RES1    0.0000
     31 H11       -1.4303    5.0104    2.9451 H         1 RES1    0.0000
     32 C15        0.2342    6.1305    3.0010 C.ar      1 RES1    0.0000
     33 H12        0.7216    5.6046    2.4092 H         1 RES1    0.0000
@<TRIPOS>BOND
     1    1    7 1
     2    2    5 2
     3    3    7 2
     4    4    8 1
     5    6    2 2
     6    7    8 1
     7    8    9 1
     8   10    8 1
     9   11    4 1
    10   12   11 ar
    11   13   12 1
    12   14   12 ar
    13   15   14 1
    14   16    2 1
    15   17   16 ar
    16   18   17 1
    17   19    1 1
    18   20    1 1
    19   21   20 1
    20   22   20 1
    21   23   20 1
    22   24   23 ar
    23   25   24 1
    24   26   24 ar
    25   27   26 1
    26   28   26 ar
    27   29   28 1
    28   30   28 ar
    29   31   30 1
    30   32   23 ar
    31   33   32 1
    32   11   19 ar
    33   14   16 ar
    34   17   19 ar
    35   30   32 ar
@<TRIPOS>SUBSTRUCTURE
     1 RES1 1

@<TRIPOS>CRYSIN
   7.9330    9.6150   17.5140  90.0000  97.9730  90.0000 231 1

