# MOL2 file generated by ConQuest
# Please check atom types

@<TRIPOS>MOLECULE
DEYNED
    47    52     1
SMALL
NO_CHARGES
****
Generated from CSD

@<TRIPOS>ATOM
      1 O1        -0.7343    6.0950    3.8605 O.3       1 RES1    0.0000
      2 O2        -1.1165    4.4995    2.2154 O.3       1 RES1    0.0000
      3 C1        -1.5200    3.6289    4.9378 C.3       1 RES1    0.0000
      4 H1        -1.9848    3.0215    5.5500 H         1 RES1    0.0000
      5 C2         0.5934    6.6850    5.7168 C.ar      1 RES1    0.0000
      6 C3         0.8288    5.1150    7.5419 C.ar      1 RES1    0.0000
      7 C4        -2.5905    6.3202    2.3977 C.ar      1 RES1    0.0000
      8 C5        -1.7573    5.3304    3.1857 C.3       1 RES1    0.0000
      9 C6         1.2020    6.3601    6.9558 C.ar      1 RES1    0.0000
     10 C7        -0.0699    4.2664    6.9464 C.ar      1 RES1    0.0000
     11 H2        -0.3069    3.4782    7.3779 H         1 RES1    0.0000
     12 C8        -0.5341    3.3214    2.6543 C.ar      1 RES1    0.0000
     13 C9        -0.6869    2.8423    3.9553 C.ar      1 RES1    0.0000
     14 C10       -0.6345    4.5629    5.7061 C.ar      1 RES1    0.0000
     15 N1         1.4165    4.6463    8.7997 N.pl3     1 RES1    0.0000
     16 C11       -0.2878    5.7463    5.1078 C.ar      1 RES1    0.0000
     17 O3         0.7490    3.8843    9.4922 O.2       1 RES1    0.0000
     18 C12        0.0119    1.6899    4.3066 C.ar      1 RES1    0.0000
     19 H3        -0.0478    1.3641    5.1756 H         1 RES1    0.0000
     20 C13       -2.5269    4.4792    4.1764 C.3       1 RES1    0.0000
     21 H4        -3.1588    3.9118    3.7085 H         1 RES1    0.0000
     22 H5        -3.0194    5.0459    4.7909 H         1 RES1    0.0000
     23 C14        0.2209    2.6342    1.7166 C.ar      1 RES1    0.0000
     24 H6         0.2780    2.9437    0.8408 H         1 RES1    0.0000
     25 O4         2.5624    4.9819    9.0883 O.2       1 RES1    0.0000
     26 C15        2.0916    7.3112    7.5259 C.ar      1 RES1    0.0000
     27 H7         2.5062    7.1285    8.3378 H         1 RES1    0.0000
     28 C16        0.8873    7.9053    5.0855 C.ar      1 RES1    0.0000
     29 H8         0.4911    8.1082    4.2684 H         1 RES1    0.0000
     30 C17        1.7478    8.7970    5.6589 C.ar      1 RES1    0.0000
     31 H9         1.9401    9.6017    5.2334 H         1 RES1    0.0000
     32 C18        0.7862    1.0301    3.3868 C.ar      1 RES1    0.0000
     33 H10        1.2500    0.2635    3.6387 H         1 RES1    0.0000
     34 C19       -3.5885    5.8375    1.5802 C.ar      1 RES1    0.0000
     35 H11       -3.7113    4.9199    1.4994 H         1 RES1    0.0000
     36 C20       -4.4128    6.7008    0.8758 C.ar      1 RES1    0.0000
     37 H12       -5.0834    6.3603    0.3285 H         1 RES1    0.0000
     38 C21        2.3394    8.4924    6.8877 C.ar      1 RES1    0.0000
     39 H13        2.9153    9.1081    7.2792 H         1 RES1    0.0000
     40 C22        0.8831    1.4915    2.0934 C.ar      1 RES1    0.0000
     41 H14        1.3990    1.0284    1.4739 H         1 RES1    0.0000
     42 C23       -4.2400    8.0576    0.9856 C.ar      1 RES1    0.0000
     43 H15       -4.8008    8.6410    0.5259 H         1 RES1    0.0000
     44 C24       -3.2393    8.5455    1.7734 C.ar      1 RES1    0.0000
     45 H16       -3.1095    9.4643    1.8330 H         1 RES1    0.0000
     46 C25       -2.4115    7.6908    2.4875 C.ar      1 RES1    0.0000
     47 H17       -1.7373    8.0384    3.0260 H         1 RES1    0.0000
@<TRIPOS>BOND
     1    1    8 1
     2    2    8 1
     3    3    4 1
     4    5    9 ar
     5    6    9 ar
     6    7    8 1
     7    8   20 1
     8    9   26 ar
     9   10    6 ar
    10   11   10 1
    11   12    2 1
    12   13    3 1
    13   14    3 1
    14   15    6 1
    15   16    1 1
    16   17   15 2
    17   18   13 ar
    18   19   18 1
    19   20    3 1
    20   21   20 1
    21   22   20 1
    22   23   12 ar
    23   24   23 1
    24   25   15 2
    25   26   27 1
    26   28    5 ar
    27   29   28 1
    28   30   28 ar
    29   31   30 1
    30   32   18 ar
    31   33   32 1
    32   34    7 ar
    33   35   34 1
    34   36   34 ar
    35   37   36 1
    36   38   26 ar
    37   39   38 1
    38   40   23 ar
    39   41   40 1
    40   42   36 ar
    41   43   42 1
    42   44   42 ar
    43   45   44 1
    44   46    7 ar
    45   47   46 1
    46    5   16 ar
    47   10   14 ar
    48   12   13 ar
    49   14   16 ar
    50   30   38 ar
    51   32   40 ar
    52   44   46 ar
@<TRIPOS>SUBSTRUCTURE
     1 RES1 1

@<TRIPOS>CRYSIN
   5.5112   10.0428   17.5286 103.0830  92.5330  98.2810   2 1

