# MOL2 file generated by ConQuest
# Please check atom types

@<TRIPOS>MOLECULE
DEZROP
    23    23     1
SMALL
NO_CHARGES
****
Generated from CSD

@<TRIPOS>ATOM
      1 N1        -1.0687    0.2520    1.6953 N.2       1 RES1    0.0000
      2 O1        -0.4841   -0.8389    2.3282 O.3       1 RES1    0.0000
      3 O2         0.2080    1.5864    4.2903 O.2       1 RES1    0.0000
      4 O3        -0.4267    3.6358    1.7745 O.2       1 RES1    0.0000
      5 C1         0.5593    1.4056    3.1381 C.2       1 RES1    0.0000
      6 C2        -0.5132    1.3423    2.0758 C.2       1 RES1    0.0000
      7 C3        -0.9969    2.6082    1.4640 C.2       1 RES1    0.0000
      8 C4        -2.1252    2.5859    0.5021 C.3       1 RES1    0.0000
      9 C5         1.9694    1.2501    2.7391 C.ar      1 RES1    0.0000
     10 C6         2.9638    1.2443    3.7076 C.ar      1 RES1    0.0000
     11 C7         4.2845    1.1234    3.3443 C.ar      1 RES1    0.0000
     12 C8         4.6198    1.0053    2.0163 C.ar      1 RES1    0.0000
     13 C9         3.6500    1.0218    1.0465 C.ar      1 RES1    0.0000
     14 C10        2.3213    1.1356    1.3993 C.ar      1 RES1    0.0000
     15 H1        -0.9922   -1.4474    2.0216 H         1 RES1    0.0000
     16 H2        -2.1999    1.8147    0.0925 H         1 RES1    0.0000
     17 H3        -2.2498    3.3773    0.0925 H         1 RES1    0.0000
     18 H4        -2.9205    2.5492    1.0174 H         1 RES1    0.0000
     19 H5         2.7048    1.3178    4.6511 H         1 RES1    0.0000
     20 H6         4.9752    1.1666    4.0432 H         1 RES1    0.0000
     21 H7         5.5552    0.9073    1.7706 H         1 RES1    0.0000
     22 H8         3.8663    0.8857    0.1453 H         1 RES1    0.0000
     23 H9         1.6470    1.1306    0.7532 H         1 RES1    0.0000
@<TRIPOS>BOND
     1    1    2 1
     2    2   15 1
     3    3    5 2
     4    4    7 2
     5    5    6 1
     6    6    1 2
     7    7    6 1
     8    8    7 1
     9    9    5 1
    10   10    9 ar
    11   11   10 ar
    12   12   11 ar
    13   13   12 ar
    14   14    9 ar
    15   16    8 1
    16   17    8 1
    17   18    8 1
    18   19   10 1
    19   20   11 1
    20   21   12 1
    21   22   13 1
    22   23   14 1
    23   13   14 ar
@<TRIPOS>SUBSTRUCTURE
     1 RES1 1

@<TRIPOS>CRYSIN
   9.9850    7.2010   14.5780  90.0000 114.9900  90.0000  14 1

