# MOL2 file generated by ConQuest
# Please check atom types

@<TRIPOS>MOLECULE
DEZRAD01
    32    34     1
SMALL
NO_CHARGES
****
Generated from CSD

@<TRIPOS>ATOM
      1 N1         5.3082    4.9473    0.3733 N.2       1 RES1    0.0000
      2 O1         2.0720    5.4458   -0.8543 O.2       1 RES1    0.0000
      3 C1         4.8791    5.6172   -1.9131 C.ar      1 RES1    0.0000
      4 N2         4.3822    5.2977   -0.6299 N.am      1 RES1    0.0000
      5 C2         5.2992    4.3027    2.6982 C.ar      1 RES1    0.0000
      6 N3         3.6112    6.6471   -5.2467 N.pl3     1 RES1    0.0000
      7 O2         2.4487    6.9062   -4.9386 O.2       1 RES1    0.0000
      8 C3         4.6382    4.6911    1.4494 C.2       1 RES1    0.0000
      9 C4         5.1468    3.7757    5.0519 C.ar      1 RES1    0.0000
     10 H1         4.6227    3.6626    5.8366 H         1 RES1    0.0000
     11 C5         4.5417    4.1324    3.8576 C.ar      1 RES1    0.0000
     12 H2         3.6007    4.2630    3.8283 H         1 RES1    0.0000
     13 O3         4.0386    6.7158   -6.3967 O.2       1 RES1    0.0000
     14 C6         6.2549    5.5574   -2.1545 C.ar      1 RES1    0.0000
     15 H3         6.8525    5.3338   -1.4502 H         1 RES1    0.0000
     16 C7         4.0051    5.9794   -2.9339 C.ar      1 RES1    0.0000
     17 H4         3.0692    6.0396   -2.7811 H         1 RES1    0.0000
     18 C8         4.5442    6.2491   -4.1804 C.ar      1 RES1    0.0000
     19 C9         3.1623    4.8312    1.2580 C.3       1 RES1    0.0000
     20 H5         2.7867    5.5303    1.8505 H         1 RES1    0.0000
     21 H6         2.6940    3.9752    1.4263 H         1 RES1    0.0000
     22 C10        5.8946    6.1715   -4.4700 C.ar      1 RES1    0.0000
     23 H7         6.2258    6.3461   -5.3434 H         1 RES1    0.0000
     24 C11        3.0703    5.2320   -0.1923 C.2       1 RES1    0.0000
     25 C12        6.7469    5.8255   -3.4243 C.ar      1 RES1    0.0000
     26 H8         7.6817    5.7720   -3.5831 H         1 RES1    0.0000
     27 C13        6.6828    4.1051    2.7538 C.ar      1 RES1    0.0000
     28 H9         7.2102    4.2153    1.9711 H         1 RES1    0.0000
     29 C14        7.2850    3.7485    3.9517 C.ar      1 RES1    0.0000
     30 H10        8.2256    3.6169    3.9860 H         1 RES1    0.0000
     31 C15        6.5235    3.5830    5.1015 C.ar      1 RES1    0.0000
     32 H11        6.9415    3.3385    5.9187 H         1 RES1    0.0000
@<TRIPOS>BOND
     1    1    4 1
     2    2   24 2
     3    3    4 1
     4    4   24 1
     5    5    8 1
     6    6    7 2
     7    8    1 2
     8    9   10 1
     9   11    5 ar
    10   12   11 1
    11   13    6 2
    12   14    3 ar
    13   15   14 1
    14   16    3 ar
    15   17   16 1
    16   18    6 1
    17   19    8 1
    18   20   19 1
    19   21   19 1
    20   22   18 ar
    21   23   22 1
    22   24   19 1
    23   25   14 ar
    24   26   25 1
    25   27    5 ar
    26   28   27 1
    27   29   27 ar
    28   30   29 1
    29   31    9 ar
    30   32   31 1
    31    9   11 ar
    32   16   18 ar
    33   22   25 ar
    34   29   31 ar
@<TRIPOS>SUBSTRUCTURE
     1 RES1 1

@<TRIPOS>CRYSIN
   7.1042    7.1200   13.5241  78.6130  87.3370  71.4730   2 1

