# MOL2 file generated by ConQuest
# Please check atom types

@<TRIPOS>MOLECULE
DEZRAD
    32    34     1
SMALL
NO_CHARGES
****
Generated from CSD

@<TRIPOS>ATOM
      1 O1         3.9865    2.3227   11.3885 O.2       1 RES1    0.0000
      2 C1         2.8119    2.0160   13.3694 C.ar      1 RES1    0.0000
      3 C2         2.0265    3.1104   13.0937 C.ar      1 RES1    0.0000
      4 H1         2.1587    3.6280   12.3090 H         1 RES1    0.0000
      5 O2         3.1082   -0.8528   16.5337 O.2       1 RES1    0.0000
      6 C3         1.6781    1.5829   15.4240 C.ar      1 RES1    0.0000
      7 N1         0.4761    1.2461   17.4756 N.2       1 RES1    0.0000
      8 C4        -0.5869    0.5353   19.5093 C.ar      1 RES1    0.0000
      9 C5         0.3948    0.3799   18.4252 C.2       1 RES1    0.0000
     10 N2         3.8450    1.6324   12.3922 N.pl3     1 RES1    0.0000
     11 C6         2.6883    1.2316   14.5097 C.ar      1 RES1    0.0000
     12 H2         3.2614    0.4896   14.6645 H         1 RES1    0.0000
     13 C7        -2.4974    0.7904   21.5328 C.ar      1 RES1    0.0000
     14 H3        -3.1515    0.8738   22.2162 H         1 RES1    0.0000
     15 C8         0.8430    2.6681   15.1592 C.ar      1 RES1    0.0000
     16 H4         0.1455    2.8839   15.7655 H         1 RES1    0.0000
     17 O3         4.5317    0.6306   12.6259 O.2       1 RES1    0.0000
     18 C9         1.0215    3.4327   14.0194 C.ar      1 RES1    0.0000
     19 H5         0.4595    4.1822   13.8631 H         1 RES1    0.0000
     20 N3         1.4943    0.8291   16.6048 N.am      1 RES1    0.0000
     21 C10       -0.6660   -0.4084   20.5328 C.ar      1 RES1    0.0000
     22 H6        -0.0601   -1.1401   20.5460 H         1 RES1    0.0000
     23 C11       -1.6287   -0.2857   21.5370 C.ar      1 RES1    0.0000
     24 H7        -1.6871   -0.9410   22.2232 H         1 RES1    0.0000
     25 C12       -2.4151    1.7535   20.5270 C.ar      1 RES1    0.0000
     26 H8        -3.0074    2.4960   20.5344 H         1 RES1    0.0000
     27 C13       -1.4715    1.6303   19.5175 C.ar      1 RES1    0.0000
     28 H9        -1.4225    2.2851   18.8317 H         1 RES1    0.0000
     29 C14        1.3789   -0.7420   18.2845 C.3       1 RES1    0.0000
     30 H10        0.9218   -1.6104   18.1534 H         1 RES1    0.0000
     31 H11        1.9755   -0.8017   19.0710 H         1 RES1    0.0000
     32 C15        2.1404   -0.3201   17.0410 C.2       1 RES1    0.0000
@<TRIPOS>BOND
     1    1   10 2
     2    2    3 ar
     3    3    4 1
     4    5   32 2
     5    6   11 ar
     6    7    9 2
     7    8    9 1
     8    9   29 1
     9   10    2 1
    10   11    2 ar
    11   12   11 1
    12   13   14 1
    13   15    6 ar
    14   16   15 1
    15   17   10 2
    16   18    3 ar
    17   19   18 1
    18   20    6 1
    19   21    8 ar
    20   22   21 1
    21   23   13 ar
    22   24   23 1
    23   25   13 ar
    24   26   25 1
    25   27    8 ar
    26   28   27 1
    27   29   30 1
    28   31   29 1
    29   32   20 1
    30    7   20 1
    31   15   18 ar
    32   21   23 ar
    33   25   27 ar
    34   29   32 1
@<TRIPOS>SUBSTRUCTURE
     1 RES1 1

