# MOL2 file generated by ConQuest
# Please check atom types

@<TRIPOS>MOLECULE
DEZTAD
    31    32     1
SMALL
NO_CHARGES
****
Generated from CSD

@<TRIPOS>ATOM
      1 C1         5.0113   10.1580    6.8225 C.ar      1 RES1    0.0000
      2 C2         4.9766   11.5306    6.8584 C.ar      1 RES1    0.0000
      3 C3         3.8484   12.2063    6.4169 C.ar      1 RES1    0.0000
      4 C4         2.7635   11.4987    5.9470 C.ar      1 RES1    0.0000
      5 C5         2.7821   10.1221    5.9126 C.ar      1 RES1    0.0000
      6 C6         3.9132    9.4317    6.3586 C.ar      1 RES1    0.0000
      7 N1         3.9744    8.0564    6.3601 N.3       1 RES1    0.0000
      8 C7         3.0068    7.1958    5.7749 C.3       1 RES1    0.0000
      9 C8         3.4361    5.7580    5.9336 C.2       1 RES1    0.0000
     10 O1         4.4767    5.4933    6.4977 O.2       1 RES1    0.0000
     11 C9         2.5523    4.6726    5.4038 C.ar      1 RES1    0.0000
     12 C10        1.3451    4.9360    4.7768 C.ar      1 RES1    0.0000
     13 C11        0.5304    3.9078    4.3293 C.ar      1 RES1    0.0000
     14 C12        0.9666    2.6083    4.5373 C.ar      1 RES1    0.0000
     15 N2         0.1252    1.4990    4.0854 N.pl3     1 RES1    0.0000
     16 O2         0.5421    0.3498    4.2156 O.2       1 RES1    0.0000
     17 O3        -0.9569    1.7544    3.5901 O.2       1 RES1    0.0000
     18 C13        2.1707    2.3157    5.1344 C.ar      1 RES1    0.0000
     19 C14        2.9743    3.3598    5.5714 C.ar      1 RES1    0.0000
     20 H1         5.7984    9.6938    7.1173 H         1 RES1    0.0000
     21 H2         5.7292   12.0228    7.1876 H         1 RES1    0.0000
     22 H3         3.8232   13.1667    6.4379 H         1 RES1    0.0000
     23 H4         1.9857   11.9709    5.6402 H         1 RES1    0.0000
     24 H5         2.0216    9.6379    5.5834 H         1 RES1    0.0000
     25 H6         4.5032    7.7385    6.6174 H         1 RES1    0.0000
     26 H7         2.1610    7.3249    6.2104 H         1 RES1    0.0000
     27 H8         2.9221    7.4020    4.8411 H         1 RES1    0.0000
     28 H9         1.0689    5.8471    4.6496 H         1 RES1    0.0000
     29 H10       -0.3044    4.0874    3.8909 H         1 RES1    0.0000
     30 H11        2.4508    1.4046    5.2467 H         1 RES1    0.0000
     31 H12        3.8190    3.1749    5.9889 H         1 RES1    0.0000
@<TRIPOS>BOND
     1    1    2 ar
     2    2    3 ar
     3    3    4 ar
     4    4    5 ar
     5    5    6 ar
     6    6    1 ar
     7    7    6 1
     8    8    7 1
     9    9    8 1
    10   10    9 2
    11   11    9 1
    12   12   11 ar
    13   13   12 ar
    14   14   13 ar
    15   15   14 1
    16   16   15 2
    17   17   15 2
    18   18   14 ar
    19   19   11 ar
    20   20    1 1
    21   21    2 1
    22   22    3 1
    23   23    4 1
    24   24    5 1
    25   25    7 1
    26   26    8 1
    27   27    8 1
    28   28   12 1
    29   29   13 1
    30   30   18 1
    31   31   19 1
    32   18   19 ar
@<TRIPOS>SUBSTRUCTURE
     1 RES1 1

@<TRIPOS>CRYSIN
   6.1300   13.3010   14.9920  90.0000  93.4500  90.0000  14 1

