# MOL2 file generated by ConQuest
# Please check atom types

@<TRIPOS>MOLECULE
DIBFIE
    56    58     1
SMALL
NO_CHARGES
****
Generated from CSD

@<TRIPOS>ATOM
      1 O1         7.8991    5.1695    5.6309 O.2       1 RES1    0.0000
      2 O2        11.7663    5.3253   10.9470 O.2       1 RES1    0.0000
      3 O3        13.1150    6.7581   10.0591 O.2       1 RES1    0.0000
      4 O4         5.1667    3.7754    1.7738 O.2       1 RES1    0.0000
      5 O5         4.4869    1.0790   -4.4701 O.2       1 RES1    0.0000
      6 O6         2.4530    1.8065   -4.4399 O.2       1 RES1    0.0000
      7 N1         8.1858    7.3502    6.1973 N.am      1 RES1    0.0000
      8 H1         7.9476    8.1856    6.0563 H         1 RES1    0.0000
      9 N2        12.0444    6.1753   10.1067 N.pl3     1 RES1    0.0000
     10 N3         4.8945    5.3452    0.1631 N.am      1 RES1    0.0000
     11 H2         4.9223    6.2028   -0.0329 H         1 RES1    0.0000
     12 N4         3.6040    1.8087   -4.0241 N.pl3     1 RES1    0.0000
     13 C1         6.3232    5.7686    3.4476 C.ar      1 RES1    0.0000
     14 H3         6.6668    4.8883    3.5458 H         1 RES1    0.0000
     15 C2         5.4616    6.0572    2.3986 C.ar      1 RES1    0.0000
     16 C3         4.9140    7.3320    2.2916 C.ar      1 RES1    0.0000
     17 H4         4.3033    7.5303    1.5919 H         1 RES1    0.0000
     18 C4         5.2576    8.3057    3.2012 C.ar      1 RES1    0.0000
     19 H5         4.8792    9.1738    3.1224 H         1 RES1    0.0000
     20 C5         6.1442    8.0400    4.2282 C.ar      1 RES1    0.0000
     21 H6         6.3816    8.7254    4.8414 H         1 RES1    0.0000
     22 C6         6.6895    6.7613    4.3609 C.ar      1 RES1    0.0000
     23 C7         7.6321    6.3680    5.4449 C.2       1 RES1    0.0000
     24 C8         9.1452    7.0619    7.2107 C.ar      1 RES1    0.0000
     25 C9         8.7715    6.3009    8.3289 C.ar      1 RES1    0.0000
     26 C10        9.7552    6.0048    9.2684 C.ar      1 RES1    0.0000
     27 H7         9.5469    5.4678   10.0239 H         1 RES1    0.0000
     28 C11       11.0272    6.4908    9.0992 C.ar      1 RES1    0.0000
     29 C12       11.3794    7.2767    8.0343 C.ar      1 RES1    0.0000
     30 H8        12.2648    7.6138    7.9623 H         1 RES1    0.0000
     31 C13       10.4393    7.5778    7.0613 C.ar      1 RES1    0.0000
     32 C14        7.3598    5.8546    8.5566 C.3       1 RES1    0.0000
     33 H9         6.7439    6.5035    8.1568 H         1 RES1    0.0000
     34 H10        7.1877    5.7916    9.5198 H         1 RES1    0.0000
     35 H11        7.2241    4.9769    8.1418 H         1 RES1    0.0000
     36 C15       10.7970    8.4166    5.8760 C.3       1 RES1    0.0000
     37 H12       10.2102    9.2008    5.8423 H         1 RES1    0.0000
     38 H13       10.6863    7.8901    5.0569 H         1 RES1    0.0000
     39 H14       11.7293    8.7086    5.9515 H         1 RES1    0.0000
     40 C16        5.1524    4.9619    1.4213 C.2       1 RES1    0.0000
     41 C17        4.5740    4.4071   -0.8767 C.ar      1 RES1    0.0000
     42 C18        5.5778    3.6073   -1.4185 C.ar      1 RES1    0.0000
     43 C19        5.2513    2.7560   -2.4668 C.ar      1 RES1    0.0000
     44 H15        5.9163    2.2077   -2.8680 H         1 RES1    0.0000
     45 C20        3.9508    2.7193   -2.9150 C.ar      1 RES1    0.0000
     46 C21        2.9522    3.5171   -2.3936 C.ar      1 RES1    0.0000
     47 H16        2.0697    3.4722   -2.7409 H         1 RES1    0.0000
     48 C22        3.2606    4.3909   -1.3481 C.ar      1 RES1    0.0000
     49 C23        6.9976    3.6670   -0.9197 C.3       1 RES1    0.0000
     50 H17        7.3059    4.5966   -0.9231 H         1 RES1    0.0000
     51 H18        7.5729    3.1303   -1.5051 H         1 RES1    0.0000
     52 H19        7.0383    3.3128   -0.0075 H         1 RES1    0.0000
     53 C24        2.2050    5.2797   -0.7672 C.3       1 RES1    0.0000
     54 H20        2.0991    5.0810    0.1870 H         1 RES1    0.0000
     55 H21        1.3551    5.1234   -1.2298 H         1 RES1    0.0000
     56 H22        2.4692    6.2170   -0.8782 H         1 RES1    0.0000
@<TRIPOS>BOND
     1    1   23 2
     2    2    9 2
     3    3    9 2
     4    4   40 2
     5    5   12 2
     6    6   12 2
     7    7    8 1
     8    9   28 1
     9   10   11 1
    10   12   45 1
    11   13   14 1
    12   15   13 ar
    13   16   15 ar
    14   17   16 1
    15   18   16 ar
    16   19   18 1
    17   20   18 ar
    18   21   20 1
    19   22   13 ar
    20   23    7 1
    21   24    7 1
    22   25   24 ar
    23   26   25 ar
    24   27   26 1
    25   28   26 ar
    26   29   28 ar
    27   30   29 1
    28   31   24 ar
    29   32   25 1
    30   33   32 1
    31   34   32 1
    32   35   32 1
    33   36   31 1
    34   37   36 1
    35   38   36 1
    36   39   36 1
    37   40   10 1
    38   41   10 1
    39   42   41 ar
    40   43   42 ar
    41   44   43 1
    42   45   43 ar
    43   46   45 ar
    44   47   46 1
    45   48   41 ar
    46   49   42 1
    47   50   49 1
    48   51   49 1
    49   52   49 1
    50   53   48 1
    51   54   53 1
    52   55   53 1
    53   56   53 1
    54   15   40 1
    55   20   22 ar
    56   22   23 1
    57   29   31 ar
    58   46   48 ar
@<TRIPOS>SUBSTRUCTURE
     1 RES1 1

@<TRIPOS>CRYSIN
  15.0670   12.8503   15.5065  90.0000 105.2410  90.0000  14 1

