# MOL2 file generated by ConQuest
# Please check atom types

@<TRIPOS>MOLECULE
DIBGIF
    43    44     1
SMALL
NO_CHARGES
****
Generated from CSD

@<TRIPOS>ATOM
      1 N1         2.2122    5.7714    2.0318 N.am      1 RES1    0.0000
      2 N2         0.7176    7.2760    8.1032 N.pl3     1 RES1    0.0000
      3 O1         0.0049    5.2139    2.0157 O.2       1 RES1    0.0000
      4 O2         1.3725    6.6345    8.9431 O.2       1 RES1    0.0000
      5 O3         0.0316    8.2482    8.3840 O.2       1 RES1    0.0000
      6 C1         0.9151    6.0334    4.0717 C.ar      1 RES1    0.0000
      7 C2         1.2167    5.1048    5.1172 C.ar      1 RES1    0.0000
      8 C3         1.1767    5.5380    6.4261 C.ar      1 RES1    0.0000
      9 H1         1.4240    4.9570    7.1356 H         1 RES1    0.0000
     10 C4         0.7732    6.8276    6.6828 C.ar      1 RES1    0.0000
     11 C5         0.3916    7.6991    5.7166 C.ar      1 RES1    0.0000
     12 H2         0.0732    8.5622    5.9531 H         1 RES1    0.0000
     13 C6         0.4684    7.3297    4.3902 C.ar      1 RES1    0.0000
     14 C7         1.0084    5.6068    2.6204 C.2       1 RES1    0.0000
     15 C8         2.4065    5.4540    0.6276 C.ar      1 RES1    0.0000
     16 C9         2.3931    6.5019   -0.3104 C.ar      1 RES1    0.0000
     17 C10        2.7448    6.2231   -1.6274 C.ar      1 RES1    0.0000
     18 H3         2.7456    6.9200   -2.2724 H         1 RES1    0.0000
     19 C11        3.0916    4.9436   -2.0036 C.ar      1 RES1    0.0000
     20 H4         3.3488    4.7672   -2.9013 H         1 RES1    0.0000
     21 C12        3.0673    3.9209   -1.0845 C.ar      1 RES1    0.0000
     22 H5         3.2726    3.0360   -1.3626 H         1 RES1    0.0000
     23 C13        2.7460    4.1627    0.2486 C.ar      1 RES1    0.0000
     24 C14        2.7718    3.0477    1.2605 C.3       1 RES1    0.0000
     25 H6         3.3493    3.3013    2.0117 H         1 RES1    0.0000
     26 H7         3.1198    2.2333    0.8412 H         1 RES1    0.0000
     27 H8         1.8634    2.8832    1.5884 H         1 RES1    0.0000
     28 C15        1.9091    7.8754    0.0927 C.3       1 RES1    0.0000
     29 H9         2.0167    8.4934   -0.6612 H         1 RES1    0.0000
     30 H10        2.4348    8.1962    0.8560 H         1 RES1    0.0000
     31 H11        0.9634    7.8284    0.3440 H         1 RES1    0.0000
     32 C16        3.4072    6.2533    2.7400 C.3       1 RES1    0.0000
     33 H12        3.5133    7.2155    2.5841 H         1 RES1    0.0000
     34 H13        4.1971    5.7798    2.4068 H         1 RES1    0.0000
     35 H14        3.3064    6.0871    3.7009 H         1 RES1    0.0000
     36 C17        1.5679    3.6758    4.7961 C.3       1 RES1    0.0000
     37 H15        2.3918    3.6523    4.2679 H         1 RES1    0.0000
     38 H16        0.8388    3.2677    4.2841 H         1 RES1    0.0000
     39 H17        1.7001    3.1770    5.6292 H         1 RES1    0.0000
     40 C18        0.0908    8.3087    3.2910 C.3       1 RES1    0.0000
     41 H18       -0.3722    9.0778    3.6834 H         1 RES1    0.0000
     42 H19       -0.5007    7.8654    2.6473 H         1 RES1    0.0000
     43 H20        0.9015    8.6143    2.8328 H         1 RES1    0.0000
@<TRIPOS>BOND
     1    1   14 1
     2    2    4 2
     3    3   14 2
     4    5    2 2
     5    6    7 ar
     6    7    8 ar
     7    8    9 1
     8   10    2 1
     9   11   10 ar
    10   12   11 1
    11   13    6 ar
    12   14    6 1
    13   15    1 1
    14   16   15 ar
    15   17   16 ar
    16   18   17 1
    17   19   17 ar
    18   20   19 1
    19   21   19 ar
    20   22   21 1
    21   23   15 ar
    22   24   23 1
    23   25   24 1
    24   26   24 1
    25   27   24 1
    26   28   16 1
    27   29   28 1
    28   30   28 1
    29   31   28 1
    30   32    1 1
    31   33   32 1
    32   34   32 1
    33   35   32 1
    34   36    7 1
    35   37   36 1
    36   38   36 1
    37   39   36 1
    38   40   13 1
    39   41   40 1
    40   42   40 1
    41   43   40 1
    42    8   10 ar
    43   11   13 ar
    44   21   23 ar
@<TRIPOS>SUBSTRUCTURE
     1 RES1 1

@<TRIPOS>CRYSIN
   7.1230   16.7920   13.7850  90.0000 102.8810  90.0000 231 1

