# MOL2 file generated by ConQuest
# Please check atom types

@<TRIPOS>MOLECULE
DICDUO
    44    46     1
SMALL
NO_CHARGES
****
Generated from CSD

@<TRIPOS>ATOM
      1 O1         3.9200   10.3185    1.7685 O.3       1 RES1    0.0000
      2 O2         3.1260    8.8604    0.1280 O.3       1 RES1    0.0000
      3 O3         5.2576   12.6755    0.8981 O.3       1 RES1    0.0000
      4 O4         6.3655   13.7650   -0.7216 O.2       1 RES1    0.0000
      5 O5         3.2854   14.9959    4.5752 O.2       1 RES1    0.0000
      6 O6         3.2659   17.1556    4.6277 O.2       1 RES1    0.0000
      7 O7         5.8541   19.6490    1.3676 O.2       1 RES1    0.0000
      8 O8         6.5278   18.6462   -0.3968 O.2       1 RES1    0.0000
      9 N1         3.5934   16.0984    4.1189 N.pl3     1 RES1    0.0000
     10 N2         6.0027   18.6537    0.7020 N.pl3     1 RES1    0.0000
     11 C1         5.2527   10.3573    1.2747 C.3       1 RES1    0.0000
     12 C2         5.4287   11.3958    0.2128 C.3       1 RES1    0.0000
     13 C3         4.4099   11.2523   -0.8727 C.3       1 RES1    0.0000
     14 C4         3.0077   11.1684   -0.2878 C.3       1 RES1    0.0000
     15 C5         2.9285   10.1115    0.7787 C.3       1 RES1    0.0000
     16 C6         2.9911    7.7377    0.9800 C.3       1 RES1    0.0000
     17 C7         1.7112    7.6724    1.6779 C.3       1 RES1    0.0000
     18 C8         1.4471    8.9651    2.4341 C.3       1 RES1    0.0000
     19 C9         1.5938   10.1522    1.5256 C.3       1 RES1    0.0000
     20 C10        5.7641   13.7591    0.3207 C.2       1 RES1    0.0000
     21 C11        5.4463   14.9924    1.0936 C.ar      1 RES1    0.0000
     22 C12        4.7110   14.9580    2.2755 C.ar      1 RES1    0.0000
     23 C13        4.4177   16.1360    2.8973 C.ar      1 RES1    0.0000
     24 C14        4.8225   17.3650    2.4266 C.ar      1 RES1    0.0000
     25 C15        5.5686   17.3669    1.2511 C.ar      1 RES1    0.0000
     26 C16        5.8785   16.2252    0.5889 C.ar      1 RES1    0.0000
     27 H1         5.7299    9.5027    0.9056 H         1 RES1    0.0000
     28 H2         5.7886   10.5344    2.0938 H         1 RES1    0.0000
     29 H3         6.4046   11.3797   -0.1327 H         1 RES1    0.0000
     30 H4         4.6054   10.4723   -1.2920 H         1 RES1    0.0000
     31 H5         4.6250   11.8706   -1.4593 H         1 RES1    0.0000
     32 H6         2.7476   12.0322    0.1211 H         1 RES1    0.0000
     33 H7         2.2881   11.2025   -0.9460 H         1 RES1    0.0000
     34 H8         3.7352    7.7004    1.4708 H         1 RES1    0.0000
     35 H9         3.2365    6.8054    0.3461 H         1 RES1    0.0000
     36 H10        0.7627    7.6134    1.2690 H         1 RES1    0.0000
     37 H11        1.7992    6.8676    2.2611 H         1 RES1    0.0000
     38 H12        1.8969    9.1671    3.1897 H         1 RES1    0.0000
     39 H13        0.5671    9.0117    2.7398 H         1 RES1    0.0000
     40 H14        0.9680   10.2237    0.8594 H         1 RES1    0.0000
     41 H15        1.8089   10.8452    2.0765 H         1 RES1    0.0000
     42 H16        4.3317   14.2324    2.5725 H         1 RES1    0.0000
     43 H17        4.6934   18.1260    2.7802 H         1 RES1    0.0000
     44 H18        6.4828   16.1901   -0.1730 H         1 RES1    0.0000
@<TRIPOS>BOND
     1    1   11 1
     2    2   15 1
     3    3   12 1
     4    4   20 2
     5    5    9 2
     6    6    9 2
     7    7   10 2
     8    8   10 2
     9    9   23 1
    10   10   25 1
    11   11   12 1
    12   12   13 1
    13   13   14 1
    14   14   15 1
    15   15    1 1
    16   16    2 1
    17   17   16 1
    18   18   17 1
    19   19   15 1
    20   20    3 1
    21   21   20 1
    22   22   21 ar
    23   23   22 ar
    24   24   23 ar
    25   25   24 ar
    26   26   21 ar
    27   27   11 1
    28   28   11 1
    29   29   12 1
    30   30   13 1
    31   31   13 1
    32   32   14 1
    33   33   14 1
    34   34   16 1
    35   35   16 1
    36   36   17 1
    37   37   17 1
    38   38   18 1
    39   39   18 1
    40   40   19 1
    41   41   19 1
    42   42   22 1
    43   43   24 1
    44   44   26 1
    45   18   19 1
    46   25   26 ar
@<TRIPOS>SUBSTRUCTURE
     1 RES1 1

@<TRIPOS>CRYSIN
   9.7780   31.0750    5.7680  90.0000  90.0000  90.0000  19 1

