# MOL2 file generated by ConQuest
# Please check atom types

@<TRIPOS>MOLECULE
DICJIJ
    79    81     1
SMALL
NO_CHARGES
****
Generated from CSD

@<TRIPOS>ATOM
      1 O1         2.8870    2.9325    6.2909 O.3       1 RES1    0.0000
      2 O2         6.6893    6.4774    4.5841 O.3       1 RES1    0.0000
      3 O3         8.5429    7.8642    8.2733 O.3       1 RES1    0.0000
      4 O4         1.7042    4.8669    5.6966 O.3       1 RES1    0.0000
      5 O5         6.2247   10.2158    7.6407 O.2       1 RES1    0.0000
      6 O6         5.5340    8.7217    9.0349 O.2       1 RES1    0.0000
      7 O7         7.6738    4.5071    5.0788 O.2       1 RES1    0.0000
      8 N1         5.9775    9.0576    7.9472 N.pl3     1 RES1    0.0000
      9 N2         4.6745    5.5601    6.4507 N.3       1 RES1    0.0000
     10 N3         6.7047    3.2928    8.0398 N.1       1 RES1    0.0000
     11 C1         2.6747    6.8321    4.7505 C.ar      1 RES1    0.0000
     12 C2         6.9181    5.4083    5.3265 C.2       1 RES1    0.0000
     13 C3         1.6316    3.4362    5.8335 C.3       1 RES1    0.0000
     14 C4        11.7916    9.2102    9.3063 C.ar      1 RES1    0.0000
     15 C5         7.4469    6.6981    3.2973 C.3       1 RES1    0.0000
     16 C6         2.7622    5.3268    4.8475 C.3       1 RES1    0.0000
     17 C7         6.4959    4.2288    7.4111 C.1       1 RES1    0.0000
     18 C8         3.0729    7.4468    3.5792 C.ar      1 RES1    0.0000
     19 C9         4.1322    4.7978    5.3079 C.3       1 RES1    0.0000
     20 C10       10.4146    9.1170    9.1133 C.ar      1 RES1    0.0000
     21 C11        6.1205    5.4691    6.6513 C.3       1 RES1    0.0000
     22 C12        4.0033    3.2829    5.4705 C.3       1 RES1    0.0000
     23 C13       12.3927   10.4396    9.5095 C.ar      1 RES1    0.0000
     24 C14        6.6311    6.6859    7.4987 C.3       1 RES1    0.0000
     25 C15        1.1798    2.7891    4.5319 C.3       1 RES1    0.0000
     26 C16        3.9312    5.4294    7.7147 C.3       1 RES1    0.0000
     27 C17        2.4928    9.5998    4.4610 C.ar      1 RES1    0.0000
     28 C18        9.6667   10.2880    9.1060 C.ar      1 RES1    0.0000
     29 C19        6.1863    8.0083    6.8904 C.3       1 RES1    0.0000
     30 C20       11.6366   11.5910    9.5299 C.ar      1 RES1    0.0000
     31 C21       10.2753   11.5148    9.3190 C.ar      1 RES1    0.0000
     32 C22        6.7799    7.9415    2.7590 C.3       1 RES1    0.0000
     33 C23        2.9750    8.8174    3.4353 C.ar      1 RES1    0.0000
     34 C24        0.6678    3.1847    6.9608 C.3       1 RES1    0.0000
     35 C25        8.8984    6.9364    3.6397 C.3       1 RES1    0.0000
     36 C26        8.1353    6.6223    7.7223 C.3       1 RES1    0.0000
     37 C27        7.2546    5.5193    2.3642 C.3       1 RES1    0.0000
     38 C28        2.0951    8.9933    5.6371 C.ar      1 RES1    0.0000
     39 C29        2.1778    7.6214    5.7748 C.ar      1 RES1    0.0000
     40 C30        9.7785    7.7631    8.9633 C.3       1 RES1    0.0000
     41 H1         3.9066    2.8450    4.5487 H         1 RES1    0.0000
     42 H2         7.2021    8.2036    1.8944 H         1 RES1    0.0000
     43 H3         4.7123    4.9821    4.5450 H         1 RES1    0.0000
     44 H4         6.8084    8.3960    6.2677 H         1 RES1    0.0000
     45 H5         0.9877    1.8057    4.6802 H         1 RES1    0.0000
     46 H6         9.3336    6.1652    4.0171 H         1 RES1    0.0000
     47 H7         6.2384    6.5903    8.3721 H         1 RES1    0.0000
     48 H8        12.3532    8.3994    9.2819 H         1 RES1    0.0000
     49 H9         3.3989    6.8865    2.8443 H         1 RES1    0.0000
     50 H10        8.7483   10.2319    8.9713 H         1 RES1    0.0000
     51 H11        2.6172    4.9503    3.9312 H         1 RES1    0.0000
     52 H12        8.6573    6.4631    6.8760 H         1 RES1    0.0000
     53 H13        7.5843    5.8021    1.4468 H         1 RES1    0.0000
     54 H14        4.1595    4.5570    8.2095 H         1 RES1    0.0000
     55 H15        5.7939    7.7819    2.5995 H         1 RES1    0.0000
     56 H16        8.3708    5.8623    8.3648 H         1 RES1    0.0000
     57 H17       10.3788    7.1409    8.4817 H         1 RES1    0.0000
     58 H18        5.3340    7.9308    6.4723 H         1 RES1    0.0000
     59 H19        9.3566    7.1744    2.8388 H         1 RES1    0.0000
     60 H20        1.8978    7.1945    6.5819 H         1 RES1    0.0000
     61 H21        6.2872    5.3352    2.2725 H         1 RES1    0.0000
     62 H22        6.8563    8.6772    3.4343 H         1 RES1    0.0000
     63 H23        2.9946    5.4306    7.5282 H         1 RES1    0.0000
     64 H24        9.5855    7.3434    9.8463 H         1 RES1    0.0000
     65 H25        7.7280    4.7277    2.6835 H         1 RES1    0.0000
     66 H26        1.8182    2.8885    3.8070 H         1 RES1    0.0000
     67 H27        0.3918    3.2165    4.2162 H         1 RES1    0.0000
     68 H28        0.9953    3.6734    7.7784 H         1 RES1    0.0000
     69 H29        1.7483    9.5357    6.3809 H         1 RES1    0.0000
     70 H30        4.7621    2.9002    5.9188 H         1 RES1    0.0000
     71 H31        2.4189   10.5616    4.3532 H         1 RES1    0.0000
     72 H32        0.6390    2.2040    7.1537 H         1 RES1    0.0000
     73 H33        9.0376    7.7149    4.2747 H         1 RES1    0.0000
     74 H34       12.0294   12.4493    9.7166 H         1 RES1    0.0000
     75 H35        4.1615    6.2288    8.3027 H         1 RES1    0.0000
     76 H36       13.2968   10.5013    9.6454 H         1 RES1    0.0000
     77 H37       -0.2165    3.4826    6.7152 H         1 RES1    0.0000
     78 H38        3.2111    9.2077    2.5959 H         1 RES1    0.0000
     79 H39        9.7733   12.3288    9.2983 H         1 RES1    0.0000
@<TRIPOS>BOND
     1    1   13 1
     2    2   12 1
     3    3   36 1
     4    4   13 1
     5    5    8 2
     6    6    8 2
     7    7   12 2
     8    8   29 1
     9    9   19 1
    10   10   17 3
    11   11   16 1
    12   12   21 1
    13   13   25 1
    14   14   20 ar
    15   15    2 1
    16   16    4 1
    17   17   21 1
    18   18   11 ar
    19   19   16 1
    20   20   28 ar
    21   21    9 1
    22   22    1 1
    23   23   14 ar
    24   24   21 1
    25   25   45 1
    26   26    9 1
    27   27   33 ar
    28   28   31 ar
    29   29   24 1
    30   30   23 ar
    31   31   30 ar
    32   32   15 1
    33   33   18 ar
    34   34   13 1
    35   35   15 1
    36   36   24 1
    37   37   15 1
    38   38   27 ar
    39   39   11 ar
    40   40    3 1
    41   41   22 1
    42   42   32 1
    43   43   19 1
    44   44   29 1
    45   46   35 1
    46   47   24 1
    47   48   14 1
    48   49   18 1
    49   50   28 1
    50   51   16 1
    51   52   36 1
    52   53   37 1
    53   54   26 1
    54   55   32 1
    55   56   36 1
    56   57   40 1
    57   58   29 1
    58   59   35 1
    59   60   39 1
    60   61   37 1
    61   62   32 1
    62   63   26 1
    63   64   40 1
    64   65   37 1
    65   66   25 1
    66   67   25 1
    67   68   34 1
    68   69   38 1
    69   70   22 1
    70   71   27 1
    71   72   34 1
    72   73   35 1
    73   74   30 1
    74   75   26 1
    75   76   23 1
    76   77   34 1
    77   78   33 1
    78   79   31 1
    79   19   22 1
    80   20   40 1
    81   38   39 ar
@<TRIPOS>SUBSTRUCTURE
     1 RES1 1

@<TRIPOS>CRYSIN
   9.5798   16.7352   18.2678  90.0000  90.0000  90.0000  19 1

