# MOL2 file generated by ConQuest
# Please check atom types

@<TRIPOS>MOLECULE
DICPUA
    18    19     1
SMALL
USER_CHARGES
****
Generated from CSD

@<TRIPOS>ATOM
      1 C1        -0.1187    1.9370    1.4516 C.2       1 RES1    0.0000
      2 C2         0.8129    1.8377    2.5141 C.2       1 RES1    0.0000
      3 C3         0.0692    1.7916    0.0152 C.ar      1 RES1    0.0000
      4 C4        -0.9753    1.9703   -0.8924 C.ar      1 RES1    0.0000
      5 C5        -0.7467    1.7967   -2.2476 C.ar      1 RES1    0.0000
      6 C6         0.4971    1.4594   -2.7222 C.ar      1 RES1    0.0000
      7 C7         1.5439    1.2952   -1.8323 C.ar      1 RES1    0.0000
      8 C8         1.3331    1.4611   -0.4746 C.ar      1 RES1    0.0000
      9 N1        -1.2780    2.1751    2.0361 N.pl3     1 RES1    1.0000
     10 N2         0.2688    2.0064    3.6747 N.2       1 RES1    0.0000
     11 O1        -1.0619    2.2264    3.4547 O.3       1 RES1    0.0000
     12 O2        -2.4386    2.3499    1.6504 O.2       1 RES1   -1.0000
     13 H1         1.7689    1.6950    2.4566 H         1 RES1    0.0000
     14 H2        -1.8441    2.2983   -0.5219 H         1 RES1    0.0000
     15 H3        -1.5146    1.9261   -2.8914 H         1 RES1    0.0000
     16 H4         0.6738    1.2836   -3.6569 H         1 RES1    0.0000
     17 H5         2.4440    1.0587   -2.1985 H         1 RES1    0.0000
     18 H6         2.0907    1.2763    0.1506 H         1 RES1    0.0000
@<TRIPOS>BOND
     1    1    2 1
     2    2   10 2
     3    3    1 1
     4    4    3 ar
     5    5    4 ar
     6    6    5 ar
     7    7    6 ar
     8    8    3 ar
     9    9    1 2
    10   10   11 1
    11   11    9 1
    12   12    9 1
    13   13    2 1
    14   14    4 1
    15   15    5 1
    16   16    6 1
    17   17    7 1
    18   18    8 1
    19    7    8 ar
@<TRIPOS>SUBSTRUCTURE
     1 RES1 1

@<TRIPOS>CRYSIN
   6.4380    7.0170    9.1510  74.7500  72.0500  82.5000   2 1

