# MOL2 file generated by ConQuest
# Please check atom types

@<TRIPOS>MOLECULE
DICPUA01
    18    19     1
SMALL
USER_CHARGES
****
Generated from CSD

@<TRIPOS>ATOM
      1 O1         1.5156    1.2477   -3.4539 O.3       1 RES1    0.0000
      2 O2         2.8933    1.1270   -1.6482 O.2       1 RES1   -1.0000
      3 N1         1.7308    1.2982   -2.0307 N.pl3     1 RES1    1.0000
      4 C1         0.5780    1.5409   -1.4553 C.2       1 RES1    0.0000
      5 C2        -0.3589    1.6393   -2.5062 C.2       1 RES1    0.0000
      6 N2         0.1880    1.4751   -3.6764 N.2       1 RES1    0.0000
      7 C3         0.3837    1.6877   -0.0076 C.ar      1 RES1    0.0000
      8 C4        -0.8685    2.0163    0.4696 C.ar      1 RES1    0.0000
      9 C5        -1.0797    2.1759    1.8386 C.ar      1 RES1    0.0000
     10 C6        -0.0324    2.0121    2.7143 C.ar      1 RES1    0.0000
     11 C7         1.1963    1.6809    2.2498 C.ar      1 RES1    0.0000
     12 C8         1.4349    1.5102    0.8893 C.ar      1 RES1    0.0000
     13 H1        -1.2483    1.8300   -2.4791 H         1 RES1    0.0000
     14 H2        -1.6423    2.1633   -0.1354 H         1 RES1    0.0000
     15 H3        -1.9444    2.4211    2.0984 H         1 RES1    0.0000
     16 H4        -0.1940    2.1372    3.6468 H         1 RES1    0.0000
     17 H5         2.0000    1.5436    2.8345 H         1 RES1    0.0000
     18 H6         2.2890    1.2448    0.5754 H         1 RES1    0.0000
@<TRIPOS>BOND
     1    1    3 1
     2    2    3 1
     3    3    4 2
     4    4    5 1
     5    5    6 2
     6    6    1 1
     7    7    4 1
     8    8    7 ar
     9    9    8 ar
    10   10    9 ar
    11   11   10 ar
    12   12    7 ar
    13   13    5 1
    14   14    8 1
    15   15    9 1
    16   16   10 1
    17   17   11 1
    18   18   12 1
    19   11   12 ar
@<TRIPOS>SUBSTRUCTURE
     1 RES1 1

@<TRIPOS>CRYSIN
   6.4390    7.0100    9.1550  74.7500  72.0100  82.4900   2 1

