# MOL2 file generated by ConQuest
# Please check atom types

@<TRIPOS>MOLECULE
DICPAJ
    37    40     1
SMALL
NO_CHARGES
****
Generated from CSD

@<TRIPOS>ATOM
      1 O1         0.3814    8.6061    3.8618 O.3       1 RES1    0.0000
      2 N1        -1.1118    4.4678    0.4554 N.pl3     1 RES1    0.0000
      3 O2        -1.2687    4.7098   -0.7270 O.2       1 RES1    0.0000
      4 O3        -1.1950    3.3464    0.9207 O.2       1 RES1    0.0000
      5 C1         0.0099    7.5636    3.0296 C.ar      1 RES1    0.0000
      6 C2        -0.6291    5.2864    2.7051 C.ar      1 RES1    0.0000
      7 H1        -0.8169    4.4349    3.0296 H         1 RES1    0.0000
      8 C3         0.0413    5.9998    4.9878 C.2       1 RES1    0.0000
      9 H2        -0.5463    5.4131    5.4076 H         1 RES1    0.0000
     10 C4        -0.7649    5.5664    1.3612 C.ar      1 RES1    0.0000
     11 C5         1.2524    6.0454    7.1282 C.ar      1 RES1    0.0000
     12 C6        -0.2067    6.2949    3.5736 C.ar      1 RES1    0.0000
     13 C7         1.7136    8.4477    4.2667 C.ar      1 RES1    0.0000
     14 C8         1.0503    6.5053    5.7355 C.2       1 RES1    0.0000
     15 C9        -0.1599    7.8320    1.6866 C.ar      1 RES1    0.0000
     16 H3        -0.0116    8.6898    1.3612 H         1 RES1    0.0000
     17 C10       -0.5501    6.8221    0.8247 C.ar      1 RES1    0.0000
     18 H4        -0.6644    6.9830   -0.0845 H         1 RES1    0.0000
     19 C11        1.6569    6.9438    8.1177 C.ar      1 RES1    0.0000
     20 H5         1.8098    7.8345    7.8974 H         1 RES1    0.0000
     21 C12        2.0475    7.4507    5.1824 C.ar      1 RES1    0.0000
     22 C13        1.8333    6.5180    9.4309 C.ar      1 RES1    0.0000
     23 H6         2.0959    7.1262   10.0833 H         1 RES1    0.0000
     24 C14        2.6524    9.3196    3.7434 C.ar      1 RES1    0.0000
     25 H7         2.3983    9.9760    3.1356 H         1 RES1    0.0000
     26 C15        4.3455    8.2185    5.0317 C.ar      1 RES1    0.0000
     27 H8         5.2346    8.1386    5.2934 H         1 RES1    0.0000
     28 C16        3.4013    7.3556    5.5385 C.ar      1 RES1    0.0000
     29 H9         3.6675    6.6903    6.1321 H         1 RES1    0.0000
     30 C17        3.9807    9.2005    4.1400 C.ar      1 RES1    0.0000
     31 H10        4.6210    9.7834    3.8021 H         1 RES1    0.0000
     32 C18        1.0501    4.7124    7.4925 C.ar      1 RES1    0.0000
     33 H11        0.7960    4.0940    6.8459 H         1 RES1    0.0000
     34 C19        1.2219    4.2980    8.7974 C.ar      1 RES1    0.0000
     35 H12        1.0696    3.4098    9.0284 H         1 RES1    0.0000
     36 C20        1.6224    5.2078    9.7654 C.ar      1 RES1    0.0000
     37 H13        1.7480    4.9265   10.6422 H         1 RES1    0.0000
@<TRIPOS>BOND
     1    1    5 1
     2    2    3 2
     3    4    2 2
     4    5   12 ar
     5    6    7 1
     6    8    9 1
     7   10    2 1
     8   11   14 1
     9   12    6 ar
    10   13    1 1
    11   14    8 2
    12   15    5 ar
    13   16   15 1
    14   17   10 ar
    15   18   17 1
    16   19   11 ar
    17   20   19 1
    18   21   13 ar
    19   22   19 ar
    20   23   22 1
    21   24   13 ar
    22   25   24 1
    23   26   27 1
    24   28   21 ar
    25   29   28 1
    26   30   24 ar
    27   31   30 1
    28   32   11 ar
    29   33   32 1
    30   34   32 ar
    31   35   34 1
    32   36   22 ar
    33   37   36 1
    34    6   10 ar
    35    8   12 1
    36   14   21 1
    37   15   17 ar
    38   26   28 ar
    39   26   30 ar
    40   34   36 ar
@<TRIPOS>SUBSTRUCTURE
     1 RES1 1

@<TRIPOS>CRYSIN
   7.2086   12.6711    8.3699  90.0000  98.4080  90.0000   4 1

