# MOL2 file generated by ConQuest
# Please check atom types

@<TRIPOS>MOLECULE
DICREN01
    63    64     1
SMALL
NO_CHARGES
****
Generated from CSD

@<TRIPOS>ATOM
      1 C1         5.1776    3.8040    6.0801 C.3       1 RES1    0.0000
      2 C2         4.3928    4.4950    4.9662 C.2       1 RES1    0.0000
      3 C3         3.1669    3.7319    4.6073 C.3       1 RES1    0.0000
      4 H1         3.2076    3.4213    3.6920 H         1 RES1    0.0000
      5 H2         2.3733    4.2758    4.7203 H         1 RES1    0.0000
      6 C4         3.1664    2.5696    5.5685 C.3       1 RES1    0.0000
      7 H3         3.2636    1.7483    5.0804 H         1 RES1    0.0000
      8 H4         2.3221    2.5417    6.0292 H         1 RES1    0.0000
      9 C5         4.2287    2.6810    6.5421 C.3       1 RES1    0.0000
     10 H5         4.7071    1.8447    6.6067 H         1 RES1    0.0000
     11 H6         3.8606    2.8875    7.4126 H         1 RES1    0.0000
     12 C6         6.4949    3.2881    5.5076 C.2       1 RES1    0.0000
     13 O1         7.5714    3.7037    5.8293 O.2       1 RES1    0.0000
     14 O2         6.2798    2.3248    4.6247 O.3       1 RES1    0.0000
     15 C7         7.3980    1.6836    3.8820 C.3       1 RES1    0.0000
     16 C8         8.2851    0.9450    4.8780 C.3       1 RES1    0.0000
     17 H7         7.7643    0.2898    5.3474 H         1 RES1    0.0000
     18 H8         8.6503    1.5714    5.5089 H         1 RES1    0.0000
     19 H9         9.0003    0.5096    4.4086 H         1 RES1    0.0000
     20 C9         8.1333    2.7206    3.0761 C.3       1 RES1    0.0000
     21 H10        8.5386    3.3594    3.6684 H         1 RES1    0.0000
     22 H11        8.8142    2.2945    2.5533 H         1 RES1    0.0000
     23 H12        7.5170    3.1700    2.4936 H         1 RES1    0.0000
     24 C10        6.6414    0.6821    2.9954 C.3       1 RES1    0.0000
     25 H13        6.0559    1.1502    2.4104 H         1 RES1    0.0000
     26 H14        6.1314    0.0955    3.5616 H         1 RES1    0.0000
     27 H15        7.2712    0.1718    2.4986 H         1 RES1    0.0000
     28 N1         5.4166    4.8109    7.1220 N.3       1 RES1    0.0000
     29 H16        5.1239    5.6164    7.0761 H         1 RES1    0.0000
     30 N2         6.1665    4.3254    8.2012 N.am      1 RES1    0.0000
     31 H17        6.9647    4.0337    8.0721 H         1 RES1    0.0000
     32 C11        5.6488    4.3155    9.4406 C.2       1 RES1    0.0000
     33 O3         4.5042    4.5362    9.7337 O.2       1 RES1    0.0000
     34 O4         6.6458    4.0249   10.2950 O.3       1 RES1    0.0000
     35 C12        6.4208    3.5566   11.6374 C.3       1 RES1    0.0000
     36 C13        7.7811    3.3017   12.1863 C.3       1 RES1    0.0000
     37 H18        7.7079    2.9866   13.0792 H         1 RES1    0.0000
     38 H19        8.2197    2.6478   11.6548 H         1 RES1    0.0000
     39 H20        8.2832    4.1079   12.1739 H         1 RES1    0.0000
     40 C14        5.6704    4.5248   12.3974 C.3       1 RES1    0.0000
     41 H21        6.1237    5.3448   12.4049 H         1 RES1    0.0000
     42 H22        4.8166    4.6501   11.9938 H         1 RES1    0.0000
     43 H23        5.5742    4.1999   13.2879 H         1 RES1    0.0000
     44 C15        5.6494    2.4163   11.5940 C.3       1 RES1    0.0000
     45 H24        4.8143    2.6344   11.1891 H         1 RES1    0.0000
     46 H25        5.5480    2.1396   12.4757 H         1 RES1    0.0000
     47 H26        6.0499    1.7409   11.1245 H         1 RES1    0.0000
     48 N3         4.8415    5.6065    4.5427 N.2       1 RES1    0.0000
     49 N4         4.1274    6.2673    3.5741 N.pl3     1 RES1    0.0000
     50 H27        3.4480    5.8960    3.2015 H         1 RES1    0.0000
     51 C16        4.5211    7.5417    3.2065 C.ar      1 RES1    0.0000
     52 C17        5.5605    8.1950    3.8597 C.ar      1 RES1    0.0000
     53 H28        5.9857    7.7917    4.5812 H         1 RES1    0.0000
     54 C18        5.9546    9.4374    3.4350 C.ar      1 RES1    0.0000
     55 H29        6.6491    9.8800    3.8659 H         1 RES1    0.0000
     56 C19        5.3170   10.0265    2.3645 C.ar      1 RES1    0.0000
     57 C20        4.2583    9.3957    1.7361 C.ar      1 RES1    0.0000
     58 H30        3.8150    9.8162    1.0357 H         1 RES1    0.0000
     59 C21        3.8660    8.1512    2.1484 C.ar      1 RES1    0.0000
     60 H31        3.1653    7.7163    1.7200 H         1 RES1    0.0000
     61 N5         5.7414   11.3391    1.9125 N.pl3     1 RES1    0.0000
     62 O5         5.1099   11.8897    1.0233 O.2       1 RES1    0.0000
     63 O6         6.7169   11.8448    2.4291 O.2       1 RES1    0.0000
@<TRIPOS>BOND
     1    1    2 1
     2    2    3 1
     3    3    4 1
     4    5    3 1
     5    6    3 1
     6    7    6 1
     7    8    6 1
     8    9    1 1
     9   10    9 1
    10   11    9 1
    11   12    1 1
    12   13   12 2
    13   14   12 1
    14   15   14 1
    15   16   15 1
    16   17   16 1
    17   18   16 1
    18   19   16 1
    19   20   15 1
    20   21   20 1
    21   22   20 1
    22   23   20 1
    23   24   15 1
    24   25   24 1
    25   26   24 1
    26   27   24 1
    27   28    1 1
    28   29   28 1
    29   30   28 1
    30   31   30 1
    31   32   30 1
    32   33   32 2
    33   34   32 1
    34   35   34 1
    35   36   35 1
    36   37   36 1
    37   38   36 1
    38   39   36 1
    39   40   35 1
    40   41   40 1
    41   42   40 1
    42   43   40 1
    43   44   35 1
    44   45   44 1
    45   46   44 1
    46   47   44 1
    47   48    2 2
    48   49   48 1
    49   50   49 1
    50   51   49 1
    51   52   51 ar
    52   53   52 1
    53   54   52 ar
    54   55   54 1
    55   56   54 ar
    56   57   56 ar
    57   58   57 1
    58   59   51 ar
    59   60   59 1
    60   61   56 1
    61   62   61 2
    62   63   61 2
    63    6    9 1
    64   57   59 ar
@<TRIPOS>SUBSTRUCTURE
     1 RES1 1

@<TRIPOS>CRYSIN
   9.1937   11.5288   12.5921  87.6480  80.5070  71.0880   2 1

