# MOL2 file generated by ConQuest
# Please check atom types

@<TRIPOS>MOLECULE
DICRAI01
    18    19     1
SMALL
USER_CHARGES
****
Generated from CSD

@<TRIPOS>ATOM
      1 O1         0.5640    4.0867   -3.1687 O.3       1 RES1    0.0000
      2 O2         2.2705    3.8780   -4.6823 O.2       1 RES1   -1.0000
      3 N1         1.9566    4.2416   -3.5422 N.pl3     1 RES1    1.0000
      4 C1         2.5744    4.7369   -2.5017 C.2       1 RES1    0.0000
      5 C2         1.6315    4.8968   -1.4629 C.2       1 RES1    0.0000
      6 N2         0.4415    4.5153   -1.8621 N.2       1 RES1    0.0000
      7 C3         1.8795    5.3890   -0.1039 C.ar      1 RES1    0.0000
      8 C4         0.8924    5.2747    0.8783 C.ar      1 RES1    0.0000
      9 C5         1.1174    5.7633    2.1488 C.ar      1 RES1    0.0000
     10 C6         2.3281    6.3616    2.4631 C.ar      1 RES1    0.0000
     11 C7         3.3199    6.4651    1.4998 C.ar      1 RES1    0.0000
     12 C8         3.0926    5.9803    0.2232 C.ar      1 RES1    0.0000
     13 H1         3.4593    4.9502   -2.5498 H         1 RES1    0.0000
     14 H2         0.0651    4.8098    0.6525 H         1 RES1    0.0000
     15 H3         0.4141    5.6919    2.7987 H         1 RES1    0.0000
     16 H4         2.4692    6.7015    3.3482 H         1 RES1    0.0000
     17 H5         4.1714    6.9280    1.7428 H         1 RES1    0.0000
     18 H6         3.7273    6.0597   -0.4207 H         1 RES1    0.0000
@<TRIPOS>BOND
     1    1    3 1
     2    2    3 1
     3    3    4 2
     4    4    5 1
     5    5    6 2
     6    6    1 1
     7    7    5 1
     8    8    7 ar
     9    9    8 ar
    10   10    9 ar
    11   11   10 ar
    12   12    7 ar
    13   13    4 1
    14   14    8 1
    15   15    9 1
    16   16   10 1
    17   17   11 1
    18   18   12 1
    19   11   12 ar
@<TRIPOS>SUBSTRUCTURE
     1 RES1 1

@<TRIPOS>CRYSIN
   5.7830    7.4240    9.3960 108.2700 102.6100  97.0300   2 1

