# MOL2 file generated by ConQuest
# Please check atom types

@<TRIPOS>MOLECULE
DICRAI
    18    19     1
SMALL
USER_CHARGES
****
Generated from CSD

@<TRIPOS>ATOM
      1 C1         1.0623   -0.4785    2.8208 C.2       1 RES1    0.0000
      2 C2         1.9628   -0.5692    1.7615 C.2       1 RES1    0.0000
      3 C3         1.3149    0.0186    4.1797 C.ar      1 RES1    0.0000
      4 C4         2.5061    0.6438    4.4862 C.ar      1 RES1    0.0000
      5 C5         2.7311    1.1261    5.7609 C.ar      1 RES1    0.0000
      6 C6         1.7774    0.9829    6.7301 C.ar      1 RES1    0.0000
      7 C7         0.5892    0.3551    6.4339 C.ar      1 RES1    0.0000
      8 C8         0.3549   -0.1336    5.1635 C.ar      1 RES1    0.0000
      9 N1        -0.1099   -0.9167    2.4543 N.2       1 RES1    0.0000
     10 N2         1.3422   -1.0812    0.7374 N.pl3     1 RES1    1.0000
     11 O1        -0.0017   -1.3263    1.1451 O.3       1 RES1    0.0000
     12 O2         1.6396   -1.4061   -0.4129 O.2       1 RES1   -1.0000
     13 H1         2.9158   -0.3154    1.6817 H         1 RES1    0.0000
     14 H2         3.1829    0.7612    3.7960 H         1 RES1    0.0000
     15 H3         3.5789    1.6158    5.9661 H         1 RES1    0.0000
     16 H4         1.9002    1.3609    7.6323 H         1 RES1    0.0000
     17 H5        -0.1352    0.2784    7.1010 H         1 RES1    0.0000
     18 H6        -0.4986   -0.5659    4.9806 H         1 RES1    0.0000
@<TRIPOS>BOND
     1    1    2 1
     2    2   10 2
     3    3    1 1
     4    4    3 ar
     5    5    4 ar
     6    6    5 ar
     7    7    6 ar
     8    8    3 ar
     9    9    1 2
    10   10   11 1
    11   11    9 1
    12   12   10 1
    13   13    2 1
    14   14    4 1
    15   15    5 1
    16   16    6 1
    17   17    7 1
    18   18    8 1
    19    7    8 ar
@<TRIPOS>SUBSTRUCTURE
     1 RES1 1

@<TRIPOS>CRYSIN
   5.7780    7.6740    9.5010 109.9900 102.9200  95.6400   2 1

