# MOL2 file generated by ConQuest
# Please check atom types

@<TRIPOS>MOLECULE
DIDWIY
    25    25     1
SMALL
NO_CHARGES
****
Generated from CSD

@<TRIPOS>ATOM
      1 N1        -1.9568    3.5183   -0.4361 N.pl3     1 RES1    0.0000
      2 N2         1.8540    4.6151    4.1206 N.2       1 RES1    0.0000
      3 O1        -0.3745    6.1119    4.1770 O.3       1 RES1    0.0000
      4 O2         2.0399    2.1815    5.6640 O.3       1 RES1    0.0000
      5 H1         1.5841    1.9525    6.3069 H         1 RES1    0.0000
      6 O3        -1.2505    2.6200   -0.8920 O.2       1 RES1    0.0000
      7 O4        -2.9698    3.9146   -1.0104 O.2       1 RES1    0.0000
      8 C1         0.0477    4.4559    2.5364 C.ar      1 RES1    0.0000
      9 C2        -0.7548    5.4935    3.1377 C.ar      1 RES1    0.0000
     10 C3        -2.0018    5.7731    2.5058 C.ar      1 RES1    0.0000
     11 H2        -2.5651    6.4106    2.8809 H         1 RES1    0.0000
     12 C4        -2.3935    5.1326    1.3699 C.ar      1 RES1    0.0000
     13 H3        -3.2090    5.3419    0.9752 H         1 RES1    0.0000
     14 C5        -1.5659    4.1559    0.7968 C.ar      1 RES1    0.0000
     15 C6        -0.3761    3.8055    1.3744 C.ar      1 RES1    0.0000
     16 H4         0.1482    3.1375    0.9963 H         1 RES1    0.0000
     17 C7         1.2956    4.0530    3.1024 C.2       1 RES1    0.0000
     18 H5         1.7367    3.3352    2.7093 H         1 RES1    0.0000
     19 C8         3.0816    4.1045    4.7292 C.3       1 RES1    0.0000
     20 H6         3.6744    4.8448    4.9322 H         1 RES1    0.0000
     21 H7         3.5340    3.5193    4.1028 H         1 RES1    0.0000
     22 C9         2.7731    3.3439    5.9976 C.3       1 RES1    0.0000
     23 H8         3.5981    3.0978    6.4455 H         1 RES1    0.0000
     24 H9         2.2549    3.9010    6.5982 H         1 RES1    0.0000
     25 H10        0.4177    5.8138    4.2978 H         1 RES1    0.0000
@<TRIPOS>BOND
     1    1    6 2
     2    2   17 2
     3    3    9 1
     4    4    5 1
     5    7    1 2
     6    8    9 ar
     7    9   10 ar
     8   10   11 1
     9   12   10 ar
    10   13   12 1
    11   14    1 1
    12   15    8 ar
    13   16   15 1
    14   17    8 1
    15   18   17 1
    16   19    2 1
    17   20   19 1
    18   21   19 1
    19   22    4 1
    20   23   22 1
    21   24   22 1
    22   25    3 1
    23   12   14 ar
    24   14   15 ar
    25   19   22 1
@<TRIPOS>SUBSTRUCTURE
     1 RES1 1

@<TRIPOS>CRYSIN
   8.6660    9.6896   23.4980  90.0000  90.0000  90.0000  61 1

