# MOL2 file generated by ConQuest
# Please check atom types

@<TRIPOS>MOLECULE
DIFGEF
    40    43     1
SMALL
NO_CHARGES
****
Generated from CSD

@<TRIPOS>ATOM
      1 O1        -4.7824    6.7516    6.1064 O.3       1 RES1    0.0000
      2 O2        -3.8142    5.3669    7.7478 O.3       1 RES1    0.0000
      3 O3        -0.7981   10.2373    8.6721 O.2       1 RES1    0.0000
      4 O4        -5.7717   13.5810    5.9435 O.2       1 RES1    0.0000
      5 O5        -4.6455   11.7418    5.6645 O.2       1 RES1    0.0000
      6 N1        -4.9122   12.7732    6.2889 N.pl3     1 RES1    0.0000
      7 C1        -4.9644    5.7054    7.0347 C.3       1 RES1    0.0000
      8 H1        -5.6167    5.9784    7.6135 H         1 RES1    0.0000
      9 H2        -5.1638    4.9284    6.4532 H         1 RES1    0.0000
     10 C2        -3.4975    6.3180    8.7855 C.3       1 RES1    0.0000
     11 H3        -2.9506    5.8425    9.4908 H         1 RES1    0.0000
     12 H4        -4.3417    6.6330    9.1909 H         1 RES1    0.0000
     13 C3        -2.6326    7.4532    8.3136 C.3       1 RES1    0.0000
     14 H5        -1.8779    7.1395    7.9785 H         1 RES1    0.0000
     15 C4        -3.1911    8.3228    7.1077 C.3       1 RES1    0.0000
     16 H6        -2.7297    8.0782    6.2707 H         1 RES1    0.0000
     17 C5        -4.6430    8.0572    6.7139 C.3       1 RES1    0.0000
     18 H7        -5.2816    8.1153    7.5613 H         1 RES1    0.0000
     19 H8        -4.8899    8.6835    5.9839 H         1 RES1    0.0000
     20 C6        -2.9151    9.8174    7.5196 C.3       1 RES1    0.0000
     21 H9        -2.6139   10.2892    6.6879 H         1 RES1    0.0000
     22 C7        -1.8434    9.6309    8.5574 C.2       1 RES1    0.0000
     23 C8        -2.3229    8.4945    9.4087 C.3       1 RES1    0.0000
     24 H10       -1.6915    8.1523   10.1557 H         1 RES1    0.0000
     25 C9        -3.6169    8.9601   10.0709 C.2       1 RES1    0.0000
     26 H11       -3.9038    8.4611   10.9118 H         1 RES1    0.0000
     27 C10       -4.4020    9.8680    9.5129 C.2       1 RES1    0.0000
     28 H12       -5.1604   10.1286    9.9471 H         1 RES1    0.0000
     29 C11       -4.1013   10.5474    8.2041 C.3       1 RES1    0.0000
     30 H13       -4.9406   10.5239    7.5483 H         1 RES1    0.0000
     31 C12       -3.7840   12.0321    8.3957 C.ar      1 RES1    0.0000
     32 C13       -4.1637   13.0511    7.5222 C.ar      1 RES1    0.0000
     33 C14       -3.8565   14.3987    7.7491 C.ar      1 RES1    0.0000
     34 H14       -4.2082   15.0324    7.0399 H         1 RES1    0.0000
     35 C15       -3.1162   14.7384    8.8389 C.ar      1 RES1    0.0000
     36 H15       -2.8742   15.6129    9.0997 H         1 RES1    0.0000
     37 C16       -2.7329   13.7675    9.7450 C.ar      1 RES1    0.0000
     38 H16       -2.2751   13.9701   10.6250 H         1 RES1    0.0000
     39 C17       -3.0738   12.4335    9.5208 C.ar      1 RES1    0.0000
     40 H17       -2.8696   11.9320   10.1948 H         1 RES1    0.0000
@<TRIPOS>BOND
     1    1    7 1
     2    2    7 1
     3    3   22 2
     4    4    6 2
     5    5    6 2
     6    6   32 1
     7    7    8 1
     8    9    7 1
     9   10    2 1
    10   11   10 1
    11   12   10 1
    12   13   10 1
    13   14   13 1
    14   15   13 1
    15   16   15 1
    16   17    1 1
    17   18   17 1
    18   19   17 1
    19   20   15 1
    20   21   20 1
    21   22   20 1
    22   23   13 1
    23   24   23 1
    24   25   23 1
    25   26   25 1
    26   27   25 2
    27   28   27 1
    28   29   20 1
    29   30   29 1
    30   31   29 1
    31   32   31 ar
    32   33   32 ar
    33   34   33 1
    34   35   33 ar
    35   36   35 1
    36   37   35 ar
    37   38   37 1
    38   39   31 ar
    39   40   39 1
    40   15   17 1
    41   22   23 1
    42   27   29 1
    43   37   39 ar
@<TRIPOS>SUBSTRUCTURE
     1 RES1 1

@<TRIPOS>CRYSIN
   9.1079   12.3520   13.6560  90.0000 107.3200  90.0000 231 1

