# MOL2 file generated by ConQuest
# Please check atom types

@<TRIPOS>MOLECULE
DIFZAU
    58    62     1
SMALL
NO_CHARGES
****
Generated from CSD

@<TRIPOS>ATOM
      1 O1         4.0513    8.7357   16.6909 O.2       1 RES1    0.0000
      2 O2         0.5360    8.8517   20.0931 O.2       1 RES1    0.0000
      3 O3         1.4646    5.5596   23.0024 O.3       1 RES1    0.0000
      4 N1         2.4538    8.2752   18.2774 N.am      1 RES1    0.0000
      5 N2         2.4194    7.6860   19.5741 N.am      1 RES1    0.0000
      6 N3         1.7156    6.1037   21.7420 N.2       1 RES1    0.0000
      7 C1         3.7595    8.3862   17.8185 C.2       1 RES1    0.0000
      8 C2         4.6643    8.0389   18.9472 C.3       1 RES1    0.0000
      9 C3         3.7902    7.2419   19.9253 C.3       1 RES1    0.0000
     10 H1         3.8957    6.3048   19.7480 H         1 RES1    0.0000
     11 C4         4.3930    7.5841   21.3070 C.3       1 RES1    0.0000
     12 H2         4.5279    6.7789   21.8103 H         1 RES1    0.0000
     13 H3         3.7856    8.1597   21.7774 H         1 RES1    0.0000
     14 C5         5.6986    8.2880   20.8927 C.3       1 RES1    0.0000
     15 H4         6.1216    8.6659   21.6672 H         1 RES1    0.0000
     16 C6         6.5803    7.2923   20.1234 C.3       1 RES1    0.0000
     17 H5         6.5867    6.4476   20.5785 H         1 RES1    0.0000
     18 H6         7.4749    7.6359   20.0741 H         1 RES1    0.0000
     19 C7         5.9179    7.2053   18.7231 C.3       1 RES1    0.0000
     20 H7         6.4372    7.5956   18.0165 H         1 RES1    0.0000
     21 H8         5.6601    6.3141   18.4763 H         1 RES1    0.0000
     22 C8         5.2041    9.2472   19.7850 C.3       1 RES1    0.0000
     23 C9         6.3262   10.0270   19.0849 C.3       1 RES1    0.0000
     24 H9         6.6271   10.7568   19.6307 H         1 RES1    0.0000
     25 H10        7.0565    9.4246   18.9244 H         1 RES1    0.0000
     26 H11        6.0014   10.3665   18.2464 H         1 RES1    0.0000
     27 C10        4.1526   10.2712   20.2156 C.3       1 RES1    0.0000
     28 H12        4.5618   10.9762   20.7240 H         1 RES1    0.0000
     29 H13        3.7379   10.6408   19.4336 H         1 RES1    0.0000
     30 H14        3.4883    9.8345   20.7545 H         1 RES1    0.0000
     31 C11        1.3374    8.0709   17.4041 C.ar      1 RES1    0.0000
     32 C12        1.0588    9.0437   16.4609 C.ar      1 RES1    0.0000
     33 H15        1.5845    9.8459   16.4422 H         1 RES1    0.0000
     34 C13        0.0257    8.8273   15.5623 C.ar      1 RES1    0.0000
     35 H16       -0.1780    9.5053   14.9124 H         1 RES1    0.0000
     36 C14       -0.7037    7.6670   15.6065 C.ar      1 RES1    0.0000
     37 H17       -1.4001    7.5107   14.9664 H         1 RES1    0.0000
     38 C15       -0.4230    6.7085   16.5499 C.ar      1 RES1    0.0000
     39 H18       -0.9432    5.9032   16.5923 H         1 RES1    0.0000
     40 C16        0.5925    6.9134   17.4609 C.ar      1 RES1    0.0000
     41 H19        0.7817    6.2592   18.1361 H         1 RES1    0.0000
     42 C17        1.3951    8.0378   20.3979 C.2       1 RES1    0.0000
     43 C18        1.2928    7.2884   21.6674 C.2       1 RES1    0.0000
     44 H20        0.9019    7.7011   22.4391 H         1 RES1    0.0000
     45 C19        2.0323    4.2201   23.0634 C.3       1 RES1    0.0000
     46 H21        1.6937    3.6891   22.3382 H         1 RES1    0.0000
     47 H22        1.7827    3.8185   23.8960 H         1 RES1    0.0000
     48 C20        3.5250    4.2121   22.9946 C.ar      1 RES1    0.0000
     49 C21        4.1884    3.8288   21.8429 C.ar      1 RES1    0.0000
     50 H23        3.6939    3.5390   21.0712 H         1 RES1    0.0000
     51 C22        5.5564    3.8413   21.7615 C.ar      1 RES1    0.0000
     52 H24        5.9959    3.5576   20.9539 H         1 RES1    0.0000
     53 C23        6.2904    4.2553   22.8520 C.ar      1 RES1    0.0000
     54 H25        7.2483    4.2988   22.8168 H         1 RES1    0.0000
     55 C24        5.6472    4.6424   24.0124 C.ar      1 RES1    0.0000
     56 H26        6.1840    4.9084   24.7641 H         1 RES1    0.0000
     57 C25        4.2875    4.6134   24.0791 C.ar      1 RES1    0.0000
     58 H27        3.8663    4.8805   24.8979 H         1 RES1    0.0000
@<TRIPOS>BOND
     1    1    7 2
     2    2   42 2
     3    3    6 1
     4    4    5 1
     5    5    9 1
     6    6   43 2
     7    7    4 1
     8    8    7 1
     9    9    8 1
    10   10    9 1
    11   11    9 1
    12   12   11 1
    13   13   11 1
    14   14   11 1
    15   15   14 1
    16   16   14 1
    17   17   16 1
    18   18   16 1
    19   19    8 1
    20   20   19 1
    21   21   19 1
    22   22    8 1
    23   23   22 1
    24   24   23 1
    25   25   23 1
    26   26   23 1
    27   27   22 1
    28   28   27 1
    29   29   27 1
    30   30   27 1
    31   31    4 1
    32   32   31 ar
    33   33   32 1
    34   34   32 ar
    35   35   34 1
    36   36   34 ar
    37   37   36 1
    38   38   36 ar
    39   39   38 1
    40   40   31 ar
    41   41   40 1
    42   42    5 1
    43   43   42 1
    44   44   43 1
    45   45    3 1
    46   46   45 1
    47   47   45 1
    48   48   45 1
    49   49   48 ar
    50   50   49 1
    51   51   49 ar
    52   52   51 1
    53   53   51 ar
    54   54   53 1
    55   55   53 ar
    56   56   55 1
    57   57   48 ar
    58   58   57 1
    59   14   22 1
    60   16   19 1
    61   38   40 ar
    62   55   57 ar
@<TRIPOS>SUBSTRUCTURE
     1 RES1 1

@<TRIPOS>CRYSIN
   9.1750   10.3510   23.4620  90.0000  90.0000  90.0000  19 1

