# MOL2 file generated by ConQuest
# Please check atom types

@<TRIPOS>MOLECULE
DIHHEK
    60    64     1
SMALL
NO_CHARGES
****
Generated from CSD

@<TRIPOS>ATOM
      1 O1         5.4422    5.1737   27.9079 O.3       1 RES1    0.0000
      2 O2         3.3583    7.0659   23.3641 O.2       1 RES1    0.0000
      3 O3         3.7158    4.9079   22.9896 O.3       1 RES1    0.0000
      4 N1         5.6737    5.1433   29.3053 N.2       1 RES1    0.0000
      5 N2         5.7469    5.2485   24.8843 N.ar      1 RES1    0.0000
      6 C1         7.0537    4.6418   31.8037 C.ar      1 RES1    0.0000
      7 H1         7.3350    5.4247   31.3878 H         1 RES1    0.0000
      8 C2         7.3652    4.4247   33.1342 C.ar      1 RES1    0.0000
      9 H2         7.8641    5.0543   33.6021 H         1 RES1    0.0000
     10 C3         6.9391    3.2808   33.7683 C.ar      1 RES1    0.0000
     11 H3         7.1330    3.1460   34.6679 H         1 RES1    0.0000
     12 C4         6.2209    2.3296   33.0630 C.ar      1 RES1    0.0000
     13 H4         5.9364    1.5532   33.4890 H         1 RES1    0.0000
     14 C5         5.9246    2.5305   31.7288 C.ar      1 RES1    0.0000
     15 H5         5.4546    1.8806   31.2581 H         1 RES1    0.0000
     16 C6         6.3247    3.7020   31.0808 C.ar      1 RES1    0.0000
     17 C7         5.9997    3.9565   29.6538 C.2       1 RES1    0.0000
     18 C8         6.0032    2.9509   28.5188 C.3       1 RES1    0.0000
     19 C9         4.7377    2.0867   28.5420 C.3       1 RES1    0.0000
     20 H6         4.7646    1.5004   29.3015 H         1 RES1    0.0000
     21 H7         4.6916    1.5656   27.7369 H         1 RES1    0.0000
     22 H8         3.9648    2.6527   28.6015 H         1 RES1    0.0000
     23 C10        7.2465    2.0624   28.5272 C.3       1 RES1    0.0000
     24 H9         8.0311    2.6110   28.5924 H         1 RES1    0.0000
     25 H10        7.2793    1.5511   27.7156 H         1 RES1    0.0000
     26 H11        7.2085    1.4669   29.2794 H         1 RES1    0.0000
     27 C11        5.8988    3.9353   27.3246 C.3       1 RES1    0.0000
     28 H12        5.2173    3.6074   26.7014 H         1 RES1    0.0000
     29 C12        7.1653    4.2252   26.5573 C.3       1 RES1    0.0000
     30 H13        7.5156    3.3944   26.1994 H         1 RES1    0.0000
     31 H14        7.8276    4.5889   27.1654 H         1 RES1    0.0000
     32 C13        6.9503    5.2029   25.4176 C.ar      1 RES1    0.0000
     33 C14        8.0247    6.0052   24.9355 C.ar      1 RES1    0.0000
     34 C15        9.3485    5.9105   25.4388 C.ar      1 RES1    0.0000
     35 H15        9.5394    5.3032   26.1168 H         1 RES1    0.0000
     36 C16       10.3417    6.6962   24.9419 C.ar      1 RES1    0.0000
     37 H16       11.2033    6.6267   25.2858 H         1 RES1    0.0000
     38 C17       10.0749    7.6079   23.9185 C.ar      1 RES1    0.0000
     39 H17       10.7588    8.1466   23.5918 H         1 RES1    0.0000
     40 C18        8.8281    7.7162   23.3961 C.ar      1 RES1    0.0000
     41 H18        8.6727    8.3184   22.7045 H         1 RES1    0.0000
     42 C19        7.7582    6.9254   23.8873 C.ar      1 RES1    0.0000
     43 C20        6.4322    6.9917   23.3461 C.ar      1 RES1    0.0000
     44 C21        5.5002    6.1259   23.8681 C.ar      1 RES1    0.0000
     45 C22        4.0833    6.1150   23.3889 C.2       1 RES1    0.0000
     46 C23        2.3567    4.7580   22.5140 C.3       1 RES1    0.0000
     47 H19        2.2229    5.3168   21.7448 H         1 RES1    0.0000
     48 H20        1.7444    5.0164   23.2071 H         1 RES1    0.0000
     49 H21        2.2002    3.8416   22.2746 H         1 RES1    0.0000
     50 C24        6.1145    7.9190   22.2299 C.ar      1 RES1    0.0000
     51 C25        6.2087    9.2917   22.3915 C.ar      1 RES1    0.0000
     52 H22        6.4409    9.6409   23.2216 H         1 RES1    0.0000
     53 C26        5.9632   10.1477   21.3378 C.ar      1 RES1    0.0000
     54 H23        6.0443   11.0662   21.4575 H         1 RES1    0.0000
     55 C27        5.6010    9.6495   20.1208 C.ar      1 RES1    0.0000
     56 H24        5.4329   10.2275   19.4120 H         1 RES1    0.0000
     57 C28        5.4853    8.2965   19.9436 C.ar      1 RES1    0.0000
     58 H25        5.2287    7.9570   19.1165 H         1 RES1    0.0000
     59 C29        5.7501    7.4314   20.9941 C.ar      1 RES1    0.0000
     60 H26        5.6807    6.5135   20.8636 H         1 RES1    0.0000
@<TRIPOS>BOND
     1    1    4 1
     2    2   45 2
     3    3   45 1
     4    4   17 2
     5    5   32 ar
     6    6    7 1
     7    8    6 ar
     8    9    8 1
     9   10    8 ar
    10   11   10 1
    11   12   10 ar
    12   13   12 1
    13   14   12 ar
    14   15   14 1
    15   16    6 ar
    16   17   16 1
    17   18   17 1
    18   19   18 1
    19   20   19 1
    20   21   19 1
    21   22   19 1
    22   23   18 1
    23   24   23 1
    24   25   23 1
    25   26   23 1
    26   27    1 1
    27   28   27 1
    28   29   27 1
    29   30   29 1
    30   31   29 1
    31   32   29 1
    32   33   32 ar
    33   34   33 ar
    34   35   34 1
    35   36   34 ar
    36   37   36 1
    37   38   36 ar
    38   39   38 1
    39   40   38 ar
    40   41   40 1
    41   42   33 ar
    42   43   42 ar
    43   44    5 ar
    44   45   44 1
    45   46    3 1
    46   47   46 1
    47   48   46 1
    48   49   46 1
    49   50   43 1
    50   51   50 ar
    51   52   51 1
    52   53   51 ar
    53   54   53 1
    54   55   53 ar
    55   56   55 1
    56   57   55 ar
    57   58   57 1
    58   59   50 ar
    59   60   59 1
    60   14   16 ar
    61   18   27 1
    62   40   42 ar
    63   43   44 ar
    64   57   59 ar
@<TRIPOS>SUBSTRUCTURE
     1 RES1 1

@<TRIPOS>CRYSIN
  10.1449   11.6133   40.0056  90.0000  90.0000  90.0000  61 1

