# MOL2 file generated by ConQuest
# Please check atom types

@<TRIPOS>MOLECULE
DIHIXL10
    12    13     1
SMALL
NO_CHARGES
****
Generated from CSD

@<TRIPOS>ATOM
      1 C1        -0.7798    1.7866    5.5576 C.2       1 RES1    0.0000
      2 C2        -1.2558    3.1986    5.3963 C.3       1 RES1    0.0000
      3 C3        -0.6739    3.5575    4.0710 C.3       1 RES1    0.0000
      4 C4         0.3141    4.5883    4.4566 C.2       1 RES1    0.0000
      5 O1        -0.0149    2.3467    3.5988 O.3       1 RES1    0.0000
      6 O2        -0.6150    4.0740    6.3616 O.3       1 RES1    0.0000
      7 N1        -0.0931    1.3640    4.5990 N.2       1 RES1    0.0000
      8 N2         0.3677    4.8409    5.6864 N.2       1 RES1    0.0000
      9 H1        -0.9506    1.1739    6.2354 H         1 RES1    0.0000
     10 H2        -2.2413    3.2757    5.4944 H         1 RES1    0.0000
     11 H3        -1.2412    3.8906    3.2977 H         1 RES1    0.0000
     12 H4         0.8808    5.1316    3.7882 H         1 RES1    0.0000
@<TRIPOS>BOND
     1    1    2 1
     2    2    3 1
     3    3    4 1
     4    4    8 2
     5    5    3 1
     6    6    2 1
     7    7    1 2
     8    8    6 1
     9    9    1 1
    10   10    2 1
    11   11    3 1
    12   12    4 1
    13    5    7 1
@<TRIPOS>SUBSTRUCTURE
     1 RES1 1

@<TRIPOS>CRYSIN
   8.2400   11.1800    5.3500  90.0000 102.7600  90.0000 231 1

