# MOL2 file generated by ConQuest
# Please check atom types

@<TRIPOS>MOLECULE
DIHWEZ
    52    54     2
SMALL
NO_CHARGES
****
Generated from CSD

@<TRIPOS>ATOM
      1 O1         5.9251   12.8630   14.1819 O.3       1 RES1    0.0000
      2 O2         0.3693    9.4996   16.2052 O.2       1 RES1    0.0000
      3 O3         5.9268    9.9267    9.3096 O.2       1 RES1    0.0000
      4 O4         5.0846   12.0279    8.3678 O.3       1 RES1    0.0000
      5 N1         8.5392   14.0512   10.4632 N.1       1 RES1    0.0000
      6 N2         6.3489    9.7223   11.4806 N.am      1 RES1    0.0000
      7 H1         6.5963    8.9074   11.3650 H         1 RES1    0.0000
      8 H2         6.3642   10.0675   12.2672 H         1 RES1    0.0000
      9 C1         3.7420   16.5482    9.5134 C.ar      1 RES1    0.0000
     10 H3         3.4479   17.4298    9.4915 H         1 RES1    0.0000
     11 C2         4.5796   16.0730    8.5442 C.ar      1 RES1    0.0000
     12 H4         4.8420   16.6310    7.8496 H         1 RES1    0.0000
     13 C3         5.0359   14.7767    8.5870 C.ar      1 RES1    0.0000
     14 H5         5.5978   14.4618    7.9167 H         1 RES1    0.0000
     15 C4         4.6654   13.9428    9.6211 C.ar      1 RES1    0.0000
     16 C5         5.1172   12.5455    9.5953 C.2       1 RES1    0.0000
     17 C6         5.5320   11.8184   10.6666 C.2       1 RES1    0.0000
     18 C7         5.7969   12.4212   11.9929 C.2       1 RES1    0.0000
     19 C8         5.2031   12.2229   13.2039 C.2       1 RES1    0.0000
     20 C9         4.0326   11.5123   13.6762 C.ar      1 RES1    0.0000
     21 C10        3.1669   10.9133   12.7799 C.ar      1 RES1    0.0000
     22 H6         3.3371   10.9663   11.8669 H         1 RES1    0.0000
     23 C11        2.0607   10.2408   13.2273 C.ar      1 RES1    0.0000
     24 H7         1.4812    9.8334   12.6248 H         1 RES1    0.0000
     25 C12        1.8206   10.1758   14.5692 C.ar      1 RES1    0.0000
     26 N3         0.6430    9.4603   15.0417 N.pl3     1 RES1    0.0000
     27 C13        3.8080   14.4258   10.5611 C.ar      1 RES1    0.0000
     28 H8         3.5283   13.8716   11.2532 H         1 RES1    0.0000
     29 C14        3.3476   15.7211   10.5014 C.ar      1 RES1    0.0000
     30 H9         2.7580   16.0289   11.1516 H         1 RES1    0.0000
     31 C15        6.9411   13.2341   12.2666 C.2       1 RES1    0.0000
     32 C16        6.9929   13.4696   13.6083 C.2       1 RES1    0.0000
     33 C17        2.6512   10.7611   15.4788 C.ar      1 RES1    0.0000
     34 H10        2.4692   10.7035   16.3881 H         1 RES1    0.0000
     35 C18        3.7539   11.4314   15.0362 C.ar      1 RES1    0.0000
     36 H11        4.3224   11.8381   15.6484 H         1 RES1    0.0000
     37 C19        7.9090   14.1365   14.5036 C.ar      1 RES1    0.0000
     38 C20        7.6067   14.2590   15.8468 C.ar      1 RES1    0.0000
     39 H12        6.7968   13.9326   16.1686 H         1 RES1    0.0000
     40 C21        8.4878   14.8570   16.7083 C.ar      1 RES1    0.0000
     41 H13        8.2701   14.9418   17.6093 H         1 RES1    0.0000
     42 C22        9.6867   15.3284   16.2495 C.ar      1 RES1    0.0000
     43 H14       10.2882   15.7270   16.8351 H         1 RES1    0.0000
     44 C23        9.9927   15.2104   14.9309 C.ar      1 RES1    0.0000
     45 H15       10.8066   15.5320   14.6182 H         1 RES1    0.0000
     46 C24        9.1117   14.6212   14.0549 C.ar      1 RES1    0.0000
     47 H16        9.3306   14.5517   13.1531 H         1 RES1    0.0000
     48 C25        7.8415   13.6898   11.2794 C.1       1 RES1    0.0000
     49 C26        5.9472   10.4392   10.4569 C.2       1 RES1    0.0000
     50 O5        -0.1490    9.0431   14.2342 O.2       1 RES1    0.0000
     51 H17        5.3683   11.0918    8.5486 H         1 RES1    0.0000
     52 O6         0.1979    8.5682   14.2809 Du        2 SUP2    0.0000
@<TRIPOS>BOND
     1    1   19 1
     2    2   26 2
     3    3   49 2
     4    4   16 1
     5    5   48 3
     6    6    7 1
     7    8    6 1
     8    9   10 1
     9   11    9 ar
    10   12   11 1
    11   13   11 ar
    12   14   13 1
    13   15   13 ar
    14   16   15 1
    15   17   16 2
    16   18   17 1
    17   19   18 2
    18   20   19 1
    19   21   20 ar
    20   22   21 1
    21   23   21 ar
    22   24   23 1
    23   25   23 ar
    24   26   25 1
    25   27   15 ar
    26   28   27 1
    27   29    9 ar
    28   30   29 1
    29   31   18 1
    30   32    1 1
    31   33   25 ar
    32   34   33 1
    33   35   20 ar
    34   36   35 1
    35   37   32 1
    36   38   37 ar
    37   39   38 1
    38   40   38 ar
    39   41   40 1
    40   42   40 ar
    41   43   42 1
    42   44   42 ar
    43   45   44 1
    44   46   37 ar
    45   47   46 1
    46   48   31 1
    47   49    6 1
    48   50   26 2
    49   51    4 1
    50   17   49 1
    51   27   29 ar
    52   31   32 2
    53   33   35 ar
    54   44   46 ar
@<TRIPOS>SUBSTRUCTURE
     1 RES1 1
     2 SUP2 52

@<TRIPOS>CRYSIN
  13.1900   16.9600   20.3200  90.0000  90.0000  90.0000  61 1

