# MOL2 file generated by ConQuest
# Please check atom types

@<TRIPOS>MOLECULE
DIHXIE
    60    65     1
SMALL
NO_CHARGES
****
Generated from CSD

@<TRIPOS>ATOM
      1 C1        -2.1257    5.7436   13.0143 C.2       1 RES1    0.0000
      2 C2        -2.1667    5.5230   14.4742 C.ar      1 RES1    0.0000
      3 C3        -2.3589    6.4417   15.4936 C.ar      1 RES1    0.0000
      4 H1        -2.5282    7.3367   15.3089 H         1 RES1    0.0000
      5 C4        -2.2918    5.9846   16.7863 C.ar      1 RES1    0.0000
      6 H2        -2.4087    6.5850   17.4872 H         1 RES1    0.0000
      7 C5        -2.0534    4.6495   17.0708 C.ar      1 RES1    0.0000
      8 H3        -2.0144    4.3729   17.9575 H         1 RES1    0.0000
      9 C6        -1.8725    3.7259   16.0648 C.ar      1 RES1    0.0000
     10 H4        -1.7172    2.8288   16.2529 H         1 RES1    0.0000
     11 C7        -1.9322    4.1894   14.7614 C.ar      1 RES1    0.0000
     12 C8        -1.7410    3.4394   13.5118 C.2       1 RES1    0.0000
     13 C9        -1.8790    4.4056   12.3307 C.3       1 RES1    0.0000
     14 C10       -3.0515    3.9659   11.4063 C.3       1 RES1    0.0000
     15 H5        -2.8200    3.0767   11.0670 H         1 RES1    0.0000
     16 C11       -4.3720    3.8178   12.1308 C.ar      1 RES1    0.0000
     17 C12       -5.2220    4.8915   12.3431 C.ar      1 RES1    0.0000
     18 H6        -4.9645    5.7399   12.0650 H         1 RES1    0.0000
     19 C13       -6.4446    4.7217   12.9608 C.ar      1 RES1    0.0000
     20 H7        -7.0068    5.4481   13.1054 H         1 RES1    0.0000
     21 C14       -6.8158    3.4608   13.3578 C.ar      1 RES1    0.0000
     22 C15       -6.0025    2.3792   13.1850 C.ar      1 RES1    0.0000
     23 H8        -6.2636    1.5352   13.4770 H         1 RES1    0.0000
     24 C16       -4.7894    2.5667   12.5689 C.ar      1 RES1    0.0000
     25 H9        -4.2296    1.8343   12.4412 H         1 RES1    0.0000
     26 C17       -0.5746    4.3989   11.5122 C.3       1 RES1    0.0000
     27 H10        0.0718    4.9611   11.9675 H         1 RES1    0.0000
     28 H11       -0.2224    3.4953   11.5109 H         1 RES1    0.0000
     29 C18       -0.6813    4.8639   10.0884 C.2       1 RES1    0.0000
     30 C19        0.6226    4.9411    9.3652 C.ar      1 RES1    0.0000
     31 C20        1.6849    5.6879    9.8339 C.ar      1 RES1    0.0000
     32 H12        1.5942    6.1684   10.6254 H         1 RES1    0.0000
     33 C21        2.8900    5.7312    9.1353 C.ar      1 RES1    0.0000
     34 H13        3.5941    6.2470    9.4565 H         1 RES1    0.0000
     35 C22        3.0387    5.0228    7.9882 C.ar      1 RES1    0.0000
     36 H14        3.8425    5.0592    7.5214 H         1 RES1    0.0000
     37 C23        2.0152    4.2599    7.5191 C.ar      1 RES1    0.0000
     38 H15        2.1211    3.7705    6.7356 H         1 RES1    0.0000
     39 C24        0.8262    4.2103    8.2023 C.ar      1 RES1    0.0000
     40 H16        0.1386    3.6739    7.8781 H         1 RES1    0.0000
     41 C25       -3.1568    4.8761   10.1949 C.3       1 RES1    0.0000
     42 H17       -3.7917    4.4925    9.5701 H         1 RES1    0.0000
     43 H18       -3.5054    5.7354   10.4786 H         1 RES1    0.0000
     44 C26       -1.8519    5.0923    9.4882 C.2       1 RES1    0.0000
     45 C27       -1.9530    5.6068    8.0992 C.ar      1 RES1    0.0000
     46 C28       -1.3235    6.7751    7.7290 C.ar      1 RES1    0.0000
     47 H19       -0.8473    7.2582    8.3656 H         1 RES1    0.0000
     48 C29       -1.3867    7.2421    6.4317 C.ar      1 RES1    0.0000
     49 H20       -0.9492    8.0283    6.1977 H         1 RES1    0.0000
     50 C30       -2.0915    6.5449    5.4945 C.ar      1 RES1    0.0000
     51 H21       -2.1276    6.8528    4.6181 H         1 RES1    0.0000
     52 C31       -2.7434    5.3993    5.8421 C.ar      1 RES1    0.0000
     53 H22       -3.2315    4.9319    5.2031 H         1 RES1    0.0000
     54 C32       -2.6824    4.9318    7.1337 C.ar      1 RES1    0.0000
     55 H23       -3.1369    4.1538    7.3619 H         1 RES1    0.0000
     56 N1        -8.1216    3.2807   14.0145 N.pl3     1 RES1    0.0000
     57 O1        -2.2253    6.8155   12.4559 O.2       1 RES1    0.0000
     58 O2        -1.5019    2.2593   13.4104 O.2       1 RES1    0.0000
     59 O3        -8.7799    4.2784   14.2651 O.2       1 RES1    0.0000
     60 O4        -8.4732    2.1388   14.2878 O.2       1 RES1    0.0000
@<TRIPOS>BOND
     1    1    2 1
     2    2    3 ar
     3    3    4 1
     4    5    3 ar
     5    6    5 1
     6    7    5 ar
     7    8    7 1
     8    9    7 ar
     9   10    9 1
    10   11    2 ar
    11   12   11 1
    12   13    1 1
    13   14   13 1
    14   15   14 1
    15   16   14 1
    16   17   16 ar
    17   18   17 1
    18   19   17 ar
    19   20   19 1
    20   21   19 ar
    21   22   21 ar
    22   23   22 1
    23   24   16 ar
    24   25   24 1
    25   26   13 1
    26   27   26 1
    27   28   26 1
    28   29   26 1
    29   30   29 1
    30   31   30 ar
    31   32   31 1
    32   33   31 ar
    33   34   33 1
    34   35   33 ar
    35   36   35 1
    36   37   35 ar
    37   38   37 1
    38   39   30 ar
    39   40   39 1
    40   41   14 1
    41   42   41 1
    42   43   41 1
    43   44   29 2
    44   45   44 1
    45   46   45 ar
    46   47   46 1
    47   48   46 ar
    48   49   48 1
    49   50   48 ar
    50   51   50 1
    51   52   50 ar
    52   53   52 1
    53   54   45 ar
    54   55   54 1
    55   56   21 1
    56   57    1 2
    57   58   12 2
    58   59   56 2
    59   60   56 2
    60    9   11 ar
    61   12   13 1
    62   22   24 ar
    63   37   39 ar
    64   41   44 1
    65   52   54 ar
@<TRIPOS>SUBSTRUCTURE
     1 RES1 1

@<TRIPOS>CRYSIN
  10.1699   11.6903   12.6092  96.8190 108.5250 113.4640   2 1

