# MOL2 file generated by ConQuest
# Please check atom types

@<TRIPOS>MOLECULE
DIJNIU
    51    52     1
SMALL
NO_CHARGES
****
Generated from CSD

@<TRIPOS>ATOM
      1 C1         0.6165   -0.6137   11.8258 C.3       1 RES1    0.0000
      2 C2         0.6886   -1.2093   10.4036 C.3       1 RES1    0.0000
      3 H1         1.0471   -2.1155   10.5056 H         1 RES1    0.0000
      4 C3         1.7753   -0.4000    9.7037 C.3       1 RES1    0.0000
      5 C4         2.7994   -0.1454   10.8021 C.3       1 RES1    0.0000
      6 H2         3.5037   -0.8106   10.7624 H         1 RES1    0.0000
      7 H3         3.1993    0.7316   10.6883 H         1 RES1    0.0000
      8 C5         2.0863   -0.2228   12.1240 C.3       1 RES1    0.0000
      9 H4         2.1210    0.6347   12.5753 H         1 RES1    0.0000
     10 H5         2.5031   -0.8880   12.6917 H         1 RES1    0.0000
     11 C6        -0.2377    0.5720   11.8276 C.1       1 RES1    0.0000
     12 C7         0.1433   -1.6613   12.8690 C.2       1 RES1    0.0000
     13 C8        -0.3668   -1.2703   14.2532 C.3       1 RES1    0.0000
     14 C9        -1.8705   -1.0193   14.1129 C.3       1 RES1    0.0000
     15 H6        -2.0169   -0.2698   13.5320 H         1 RES1    0.0000
     16 H7        -2.2457   -0.8326   14.9757 H         1 RES1    0.0000
     17 H8        -2.2922   -1.7983   13.7424 H         1 RES1    0.0000
     18 C10       -0.1684   -2.4479   15.1888 C.3       1 RES1    0.0000
     19 H9        -0.5816   -3.2287   14.8130 H         1 RES1    0.0000
     20 H10       -0.5673   -2.2520   16.0397 H         1 RES1    0.0000
     21 H11        0.7708   -2.6078   15.3052 H         1 RES1    0.0000
     22 C11        0.2858   -0.0181   14.8209 C.3       1 RES1    0.0000
     23 H12        1.2351   -0.1480   14.8752 H         1 RES1    0.0000
     24 H13       -0.0646    0.1556   15.6982 H         1 RES1    0.0000
     25 H14        0.0969    0.7283   14.2479 H         1 RES1    0.0000
     26 C12       -0.6331   -1.3586    9.6825 C.3       1 RES1    0.0000
     27 H15       -1.0708   -0.5050    9.6376 H         1 RES1    0.0000
     28 H16       -1.1892   -1.9784   10.1603 H         1 RES1    0.0000
     29 H17       -0.4775   -1.6855    8.7946 H         1 RES1    0.0000
     30 C13        2.3127   -1.0624    8.4413 C.3       1 RES1    0.0000
     31 H18        1.6352   -1.0516    7.7611 H         1 RES1    0.0000
     32 H19        2.5558   -1.9709    8.6358 H         1 RES1    0.0000
     33 H20        3.0845   -0.5835    8.1330 H         1 RES1    0.0000
     34 C14        1.7314    1.8852    8.7916 C.2       1 RES1    0.0000
     35 C15        0.7916    3.0034    8.4892 C.ar      1 RES1    0.0000
     36 C16       -0.5693    2.9096    8.7071 C.ar      1 RES1    0.0000
     37 H21       -0.9265    2.1375    9.0831 H         1 RES1    0.0000
     38 C17       -1.4016    3.9565    8.3700 C.ar      1 RES1    0.0000
     39 H22       -2.3185    3.9009    8.5180 H         1 RES1    0.0000
     40 C18       -0.8485    5.0813    7.8126 C.ar      1 RES1    0.0000
     41 C19        0.4972    5.2098    7.5931 C.ar      1 RES1    0.0000
     42 H23        0.8467    5.9860    7.2172 H         1 RES1    0.0000
     43 C20        1.3215    4.1619    7.9424 C.ar      1 RES1    0.0000
     44 H24        2.2388    4.2316    7.8088 H         1 RES1    0.0000
     45 N1        -0.8955    1.4950   11.8038 N.1       1 RES1    0.0000
     46 N2        -1.7431    6.1740    7.3919 N.pl3     1 RES1    0.0000
     47 O1         1.0855    0.8504    9.3349 O.3       1 RES1    0.0000
     48 O2         2.9129    1.9266    8.5712 O.2       1 RES1    0.0000
     49 O3        -2.9306    6.0777    7.6447 O.2       1 RES1    0.0000
     50 O4        -1.2574    7.1058    6.7837 O.2       1 RES1    0.0000
     51 O5         0.2018   -2.8227   12.5497 O.2       1 RES1    0.0000
@<TRIPOS>BOND
     1    1    2 1
     2    2    3 1
     3    4    2 1
     4    5    4 1
     5    6    5 1
     6    7    5 1
     7    8    1 1
     8    9    8 1
     9   10    8 1
    10   11    1 1
    11   12    1 1
    12   13   12 1
    13   14   13 1
    14   15   14 1
    15   16   14 1
    16   17   14 1
    17   18   13 1
    18   19   18 1
    19   20   18 1
    20   21   18 1
    21   22   13 1
    22   23   22 1
    23   24   22 1
    24   25   22 1
    25   26    2 1
    26   27   26 1
    27   28   26 1
    28   29   26 1
    29   30    4 1
    30   31   30 1
    31   32   30 1
    32   33   30 1
    33   34   35 1
    34   35   36 ar
    35   36   37 1
    36   38   36 ar
    37   39   38 1
    38   40   38 ar
    39   41   40 ar
    40   42   41 1
    41   43   35 ar
    42   44   43 1
    43   45   11 3
    44   46   40 1
    45   47    4 1
    46   48   34 2
    47   49   46 2
    48   50   46 2
    49   51   12 2
    50    5    8 1
    51   34   47 1
    52   41   43 ar
@<TRIPOS>SUBSTRUCTURE
     1 RES1 1

@<TRIPOS>CRYSIN
   7.0280   10.3880   13.7690 103.7380  97.8900  90.9540   2 1

