# MOL2 file generated by ConQuest
# Please check atom types

@<TRIPOS>MOLECULE
DIJPAO
    40    41     1
SMALL
NO_CHARGES
****
Generated from CSD

@<TRIPOS>ATOM
      1 C1         2.4273   11.8010    3.7930 C.3       1 RES1    0.0000
      2 C2         1.3689   12.0367    4.8878 C.3       1 RES1    0.0000
      3 H1         1.7950   11.7848    5.7342 H         1 RES1    0.0000
      4 C3         1.1610   13.5596    4.9575 C.3       1 RES1    0.0000
      5 C4         2.5701   14.0775    4.7067 C.3       1 RES1    0.0000
      6 H2         2.5420   14.9803    4.3514 H         1 RES1    0.0000
      7 H3         3.0800   14.0849    5.5322 H         1 RES1    0.0000
      8 C5         3.1931   13.1366    3.7106 C.3       1 RES1    0.0000
      9 H4         4.1301   12.9995    3.9195 H         1 RES1    0.0000
     10 H5         3.1281   13.5050    2.8154 H         1 RES1    0.0000
     11 C6         3.2752   10.5716    4.0716 C.3       1 RES1    0.0000
     12 H6         2.7108    9.7962    4.1134 H         1 RES1    0.0000
     13 H7         3.7319   10.6798    4.9087 H         1 RES1    0.0000
     14 H8         3.9198   10.4603    3.3681 H         1 RES1    0.0000
     15 C7         0.1049   11.2046    4.7961 C.3       1 RES1    0.0000
     16 H9        -0.3900   11.4595    4.0136 H         1 RES1    0.0000
     17 H10       -0.4327   11.3518    5.5775 H         1 RES1    0.0000
     18 H11        0.3374   10.2742    4.7381 H         1 RES1    0.0000
     19 C8         0.2586   14.0185    3.8882 C.1       1 RES1    0.0000
     20 C9         0.5586   14.0081    6.3077 C.3       1 RES1    0.0000
     21 H12        0.5205   14.9666    6.3391 H         1 RES1    0.0000
     22 H13        1.1091   13.6872    7.0264 H         1 RES1    0.0000
     23 H14       -0.3272   13.6500    6.3983 H         1 RES1    0.0000
     24 C10        2.2482   11.4874    1.3595 C.2       1 RES1    0.0000
     25 C11        1.2792   11.5111    0.2345 C.ar      1 RES1    0.0000
     26 C12        1.7775   11.3520   -1.0577 C.ar      1 RES1    0.0000
     27 H15        2.6755   11.1441   -1.1819 H         1 RES1    0.0000
     28 C13        0.9596   11.4997   -2.1479 C.ar      1 RES1    0.0000
     29 H16        1.2945   11.3929   -3.0082 H         1 RES1    0.0000
     30 C14       -0.3622   11.8079   -1.9458 C.ar      1 RES1    0.0000
     31 C15       -0.8964   11.9343   -0.6827 C.ar      1 RES1    0.0000
     32 H17       -1.8007   12.1178   -0.5666 H         1 RES1    0.0000
     33 C16       -0.0644   11.7822    0.4064 C.ar      1 RES1    0.0000
     34 H18       -0.4109   11.8631    1.2655 H         1 RES1    0.0000
     35 N1        -0.4630   14.3956    3.0883 N.1       1 RES1    0.0000
     36 N2        -1.2242   12.0404   -3.1068 N.pl3     1 RES1    0.0000
     37 O1         1.6453   11.6051    2.5528 O.3       1 RES1    0.0000
     38 O2         3.4512   11.4176    1.2171 O.2       1 RES1    0.0000
     39 O3        -2.4036   12.3134   -2.9141 O.2       1 RES1    0.0000
     40 O4        -0.7431   11.9417   -4.2310 O.2       1 RES1    0.0000
@<TRIPOS>BOND
     1    1    2 1
     2    2    3 1
     3    4    2 1
     4    5    4 1
     5    6    5 1
     6    7    5 1
     7    8    1 1
     8    9    8 1
     9   10    8 1
    10   11    1 1
    11   12   11 1
    12   13   11 1
    13   14   11 1
    14   15    2 1
    15   16   15 1
    16   17   15 1
    17   18   15 1
    18   19    4 1
    19   20    4 1
    20   21   20 1
    21   22   20 1
    22   23   20 1
    23   24   25 1
    24   25   26 ar
    25   26   27 1
    26   28   26 ar
    27   29   28 1
    28   30   28 ar
    29   31   30 ar
    30   32   31 1
    31   33   25 ar
    32   34   33 1
    33   35   19 3
    34   36   30 1
    35   37    1 1
    36   38   24 2
    37   39   36 2
    38   40   36 2
    39    5    8 1
    40   24   37 1
    41   31   33 ar
@<TRIPOS>SUBSTRUCTURE
     1 RES1 1

@<TRIPOS>CRYSIN
   6.9492   19.5923   11.7429  90.0000  98.6270  90.0000  14 1

