# MOL2 file generated by ConQuest
# Please check atom types

@<TRIPOS>MOLECULE
DIMNAN
    16    16     1
SMALL
NO_CHARGES
****
Generated from CSD

@<TRIPOS>ATOM
      1 C1         3.0603    2.6294    0.5235 C.ar      1 RES1    0.0000
      2 C2         3.6113    1.5449    1.2308 C.ar      1 RES1    0.0000
      3 C3         4.9155    1.5481    1.6354 C.ar      1 RES1    0.0000
      4 C4         5.7494    2.6115    1.3279 C.ar      1 RES1    0.0000
      5 C5         5.2663    3.7330    0.6261 C.ar      1 RES1    0.0000
      6 C6         3.9401    3.7572    0.2477 C.ar      1 RES1    0.0000
      7 C7         0.9095    1.4298    0.3511 C.3       1 RES1    0.0000
      8 C8         1.1326    3.8481   -0.4189 C.3       1 RES1    0.0000
      9 H1         2.9047    0.5702    1.3156 H         1 RES1    0.0000
     10 H2         5.2067    0.5597    2.2310 H         1 RES1    0.0000
     11 H3         5.6762    4.5197    0.2378 H         1 RES1    0.0000
     12 H4         3.5878    4.7203   -0.2774 H         1 RES1    0.0000
     13 N1         7.0812    2.6580    1.7551 N.pl3     1 RES1    0.0000
     14 N2         1.7622    2.6685    0.1462 N.pl3     1 RES1    0.0000
     15 O1         7.5554    1.6495    2.3475 O.2       1 RES1    0.0000
     16 O2         7.7584    3.6231    1.5268 O.2       1 RES1    0.0000
@<TRIPOS>BOND
     1    1    2 ar
     2    2    3 ar
     3    3    4 ar
     4    4    5 ar
     5    5    6 ar
     6    6    1 ar
     7    7   14 1
     8    8   14 1
     9    9    2 1
    10   10    3 1
    11   11    5 1
    12   12    6 1
    13   13    4 1
    14   14    1 1
    15   15   13 2
    16   16   13 2
@<TRIPOS>SUBSTRUCTURE
     1 RES1 1

@<TRIPOS>CRYSIN
   9.7300   10.5600    3.9640  90.0000  91.4700  90.0000   4 1

