# MOL2 file generated by ConQuest
# Please check atom types

@<TRIPOS>MOLECULE
DIMNAN01
    22    22     1
SMALL
NO_CHARGES
****
Generated from CSD

@<TRIPOS>ATOM
      1 N1        -1.7729   -9.0825   -6.5373 N.3       1 RES1    0.0000
      2 N2        -0.2089   -9.0804  -11.9002 N.pl3     1 RES1    0.0000
      3 O1         0.3641  -10.0843  -12.3519 O.2       1 RES1    0.0000
      4 O2        -0.4136   -8.0665  -12.5836 O.2       1 RES1    0.0000
      5 C1        -1.3926   -9.0906   -7.8409 C.ar      1 RES1    0.0000
      6 C2        -1.6687   -7.9838   -8.6857 C.ar      1 RES1    0.0000
      7 H1        -2.1023   -7.2011   -8.3521 H         1 RES1    0.0000
      8 C3        -1.3139   -7.9980  -10.0103 C.ar      1 RES1    0.0000
      9 H2        -1.4611   -7.2818  -10.5685 H         1 RES1    0.0000
     10 C4        -0.6411   -9.0958  -10.5311 C.ar      1 RES1    0.0000
     11 C5        -0.3355  -10.1900   -9.7250 C.ar      1 RES1    0.0000
     12 H3         0.1707  -10.9191  -10.0549 H         1 RES1    0.0000
     13 C6        -0.7078  -10.1918   -8.3986 C.ar      1 RES1    0.0000
     14 H4        -0.4526  -10.9589   -7.9077 H         1 RES1    0.0000
     15 C7        -2.3591   -7.9044   -5.9436 C.3       1 RES1    0.0000
     16 H5        -1.8036   -7.1015   -6.0474 H         1 RES1    0.0000
     17 H6        -2.6099   -8.0630   -5.0011 H         1 RES1    0.0000
     18 H7        -3.1486   -7.5964   -6.3958 H         1 RES1    0.0000
     19 C8        -1.5096  -10.2358   -5.6876 C.3       1 RES1    0.0000
     20 H8        -1.8481  -10.9652   -6.0214 H         1 RES1    0.0000
     21 H9        -1.9034  -10.0824   -4.8149 H         1 RES1    0.0000
     22 H10       -0.5651  -10.3990   -5.5607 H         1 RES1    0.0000
@<TRIPOS>BOND
     1    1    5 1
     2    2    3 2
     3    4    2 2
     4    5    6 ar
     5    6    7 1
     6    8    6 ar
     7    9    8 1
     8   10    2 1
     9   11   10 ar
    10   12   11 1
    11   13    5 ar
    12   14   13 1
    13   15    1 1
    14   16   15 1
    15   17   15 1
    16   18   15 1
    17   19    1 1
    18   20   19 1
    19   21   19 1
    20   22   19 1
    21    8   10 ar
    22   11   13 ar
@<TRIPOS>SUBSTRUCTURE
     1 RES1 1

@<TRIPOS>CRYSIN
   3.8681   10.4850    9.5990  90.0000  90.0560  90.0000   4 1

