# MOL2 file generated by ConQuest
# Please check atom types

@<TRIPOS>MOLECULE
DINFOV01
    18    17     2
SMALL
NO_CHARGES
****
Generated from CSD

@<TRIPOS>ATOM
      1 C1        -0.9199    7.5563    0.9674 C.ar      1 RES1    0.0000
      2 C2         0.1659    6.7024    0.9412 C.ar      1 RES1    0.0000
      3 C3         0.5265    6.0701    2.1108 C.ar      1 RES1    0.0000
      4 C4        -0.1508    6.2574    3.2931 C.ar      1 RES1    0.0000
      5 C5        -1.2495    7.0709    3.2551 C.ar      1 RES1    0.0000
      6 C6        -1.6506    7.7380    2.1240 C.ar      1 RES1    0.0000
      7 C7        -1.2648    8.3093   -0.2112 C.1       1 RES1    0.0000
      8 N1         1.6742    5.1648    2.1050 N.pl3     1 RES1    0.0000
      9 N2        -2.0356    7.2324    4.4913 N.pl3     1 RES1    0.0000
     10 N3        -1.5221    8.9427   -1.1151 N.1       1 RES1    0.0000
     11 O1         2.3660    5.1447    1.1887 Du        2 SUP2    0.0000
     12 O2         2.2148    4.9106    3.1558 O.2       1 RES1    0.0000
     13 O3        -1.6827    6.6302    5.4796 O.2       1 RES1    0.0000
     14 O4        -3.0272    7.9336    4.4471 O.2       1 RES1    0.0000
     15 H1         0.1158    5.8166    3.9977 H         1 RES1    0.0000
     16 H2        -2.3343    8.2587    2.1015 H         1 RES1    0.0000
     17 H3         0.6516    6.5766    0.2263 H         1 RES1    0.0000
     18 O5         1.8528    4.5196    0.9743 O.2       1 RES1    0.0000
@<TRIPOS>BOND
     1    1    2 ar
     2    2    3 ar
     3    3    4 ar
     4    4    5 ar
     5    5    6 ar
     6    6    1 ar
     7    7    1 1
     8    8    3 1
     9    9    5 1
    10   10    7 3
    11   12    8 2
    12   13    9 2
    13   14    9 2
    14   15    4 1
    15   16    6 1
    16   17    2 1
    17   18    8 2
@<TRIPOS>SUBSTRUCTURE
     1 RES1 1
     2 SUP2 11

@<TRIPOS>CRYSIN
   5.8030    9.3710   15.0260  90.0000  93.9900  90.0000 231 1

