# MOL2 file generated by ConQuest
# Please check atom types

@<TRIPOS>MOLECULE
DIQGOZ
    31    32     1
SMALL
NO_CHARGES
****
Generated from CSD

@<TRIPOS>ATOM
      1 C1        -4.2280    3.0405    9.6108 C.ar      1 RES1    0.0000
      2 C2        -3.5194    2.9647   10.8180 C.ar      1 RES1    0.0000
      3 O1        -3.9134    2.2444   11.8728 O.3       1 RES1    0.0000
      4 H1        -4.9075    2.2227   11.8494 H         1 RES1    0.0000
      5 C3        -2.2792    3.6385   10.9188 C.ar      1 RES1    0.0000
      6 O2        -1.6943    3.5800   12.1503 O.3       1 RES1    0.0000
      7 C4        -0.4910    4.3241   12.3264 C.3       1 RES1    0.0000
      8 H2        -0.1727    4.2093   13.2251 H         1 RES1    0.0000
      9 H3        -0.6640    5.2546   12.1654 H         1 RES1    0.0000
     10 H4         0.1731    4.0111   11.7081 H         1 RES1    0.0000
     11 C5        -1.7548    4.2884    9.8321 C.ar      1 RES1    0.0000
     12 H5        -0.9305    4.7130    9.9034 H         1 RES1    0.0000
     13 C6        -2.4433    4.3198    8.6274 C.ar      1 RES1    0.0000
     14 H6        -2.0736    4.7552    7.8935 H         1 RES1    0.0000
     15 C7        -3.6657    3.7100    8.5168 C.ar      1 RES1    0.0000
     16 H7        -4.1251    3.7403    7.7091 H         1 RES1    0.0000
     17 C8        -5.5370    2.4545    9.3687 C.2       1 RES1    0.0000
     18 H8        -5.8029    2.2996    8.4368 H         1 RES1    0.0000
     19 N1        -6.4689    2.2011   10.2319 N.pl3     1 RES1    0.0000
     20 O3        -6.3440    2.4199   11.5244 O.2       1 RES1    0.0000
     21 C9        -7.7574    1.6421    9.8469 C.ar      1 RES1    0.0000
     22 C10       -8.4279    0.8709   10.7615 C.ar      1 RES1    0.0000
     23 H9        -8.0687    0.7214   11.6060 H         1 RES1    0.0000
     24 C11       -9.6503    0.3174   10.4099 C.ar      1 RES1    0.0000
     25 H10      -10.1180   -0.2047   11.0209 H         1 RES1    0.0000
     26 C12      -10.1683    0.5394    9.1634 C.ar      1 RES1    0.0000
     27 H11      -10.9864    0.1646    8.9298 H         1 RES1    0.0000
     28 C13       -9.4916    1.3085    8.2586 C.ar      1 RES1    0.0000
     29 H12       -9.8497    1.4504    7.4128 H         1 RES1    0.0000
     30 C14       -8.2730    1.8804    8.5967 C.ar      1 RES1    0.0000
     31 H13       -7.8146    2.4134    7.9881 H         1 RES1    0.0000
@<TRIPOS>BOND
     1    1    2 ar
     2    2    3 1
     3    3    4 1
     4    5    2 ar
     5    6    5 1
     6    7    6 1
     7    8    7 1
     8    9    7 1
     9   10    7 1
    10   11    5 ar
    11   12   11 1
    12   13   11 ar
    13   14   13 1
    14   15    1 ar
    15   16   15 1
    16   17    1 1
    17   18   17 1
    18   19   17 2
    19   20   19 1
    20   21   19 1
    21   22   21 ar
    22   23   22 1
    23   24   22 ar
    24   25   24 1
    25   26   24 ar
    26   27   26 1
    27   28   26 ar
    28   29   28 1
    29   30   21 ar
    30   31   30 1
    31   13   15 ar
    32   28   30 ar
@<TRIPOS>SUBSTRUCTURE
     1 RES1 1

@<TRIPOS>CRYSIN
   8.9060   10.8320   12.4930  90.0000 100.2600  90.0000 231 1

