# MOL2 file generated by ConQuest
# Please check atom types

@<TRIPOS>MOLECULE
DIRYAE
    35    37     1
SMALL
NO_CHARGES
****
Generated from CSD

@<TRIPOS>ATOM
      1 O1         3.9878    7.3309    2.0163 O.3       1 RES1    0.0000
      2 O2         0.7438    8.4513    2.5604 O.3       1 RES1    0.0000
      3 O3        -0.0469    9.6298    4.2647 O.2       1 RES1    0.0000
      4 N1         3.7606    7.6481    3.4509 N.3       1 RES1    0.0000
      5 C1         2.8049    7.8686    1.4017 C.3       1 RES1    0.0000
      6 C2         1.7040    7.4041    2.3127 C.3       1 RES1    0.0000
      7 C3         2.3956    7.1067    3.6501 C.3       1 RES1    0.0000
      8 C4         1.5985    7.8902    4.6598 C.3       1 RES1    0.0000
      9 C5         0.6816    8.7553    3.8743 C.2       1 RES1    0.0000
     10 C6         2.7490    7.3732   -0.0267 C.3       1 RES1    0.0000
     11 C7         4.7893    6.8655    4.1800 C.3       1 RES1    0.0000
     12 C8         6.1796    7.3506    3.7990 C.3       1 RES1    0.0000
     13 C9         4.4972    7.0194    5.6444 C.ar      1 RES1    0.0000
     14 C10        3.9779    5.9666    6.3861 C.ar      1 RES1    0.0000
     15 C11        3.6280    6.1534    7.7313 C.ar      1 RES1    0.0000
     16 C12        3.8219    7.3779    8.3177 C.ar      1 RES1    0.0000
     17 C13        4.3484    8.4081    7.6106 C.ar      1 RES1    0.0000
     18 C14        4.6910    8.2373    6.2888 C.ar      1 RES1    0.0000
     19 H1         2.8671    8.9045    1.3954 H         1 RES1    0.0000
     20 H2         1.2352    6.5775    1.9285 H         1 RES1    0.0000
     21 H3         2.4073    6.1177    3.8727 H         1 RES1    0.0000
     22 H4         1.1090    7.2812    5.2838 H         1 RES1    0.0000
     23 H5         2.2360    8.4635    5.2211 H         1 RES1    0.0000
     24 H6         2.6417    6.3523    0.0000 H         1 RES1    0.0000
     25 H7         3.5613    7.5908   -0.5331 H         1 RES1    0.0000
     26 H8         1.9294    7.7410   -0.4860 H         1 RES1    0.0000
     27 H9         4.6973    5.8831    3.9354 H         1 RES1    0.0000
     28 H10        6.3202    8.3133    4.0609 H         1 RES1    0.0000
     29 H11        6.3292    7.2812    2.8065 H         1 RES1    0.0000
     30 H12        6.9063    6.7933    4.2490 H         1 RES1    0.0000
     31 H13        3.8679    5.0481    5.9423 H         1 RES1    0.0000
     32 H14        3.2277    5.3671    8.3099 H         1 RES1    0.0000
     33 H15        3.5703    7.5345    9.2976 H         1 RES1    0.0000
     34 H16        4.4629    9.3361    8.0747 H         1 RES1    0.0000
     35 H17        5.1121    9.0546    5.7699 H         1 RES1    0.0000
@<TRIPOS>BOND
     1    1    4 1
     2    2    6 1
     3    3    9 2
     4    4    7 1
     5    5    1 1
     6    6    5 1
     7    7    6 1
     8    8    7 1
     9    9    2 1
    10   10    5 1
    11   11    4 1
    12   12   11 1
    13   13   11 1
    14   14   13 ar
    15   15   14 ar
    16   16   15 ar
    17   17   16 ar
    18   18   13 ar
    19   19    5 1
    20   20    6 1
    21   21    7 1
    22   22    8 1
    23   23    8 1
    24   24   10 1
    25   25   10 1
    26   26   10 1
    27   27   11 1
    28   28   12 1
    29   29   12 1
    30   30   12 1
    31   31   14 1
    32   32   15 1
    33   33   16 1
    34   34   17 1
    35   35   18 1
    36    8    9 1
    37   17   18 ar
@<TRIPOS>SUBSTRUCTURE
     1 RES1 1

@<TRIPOS>CRYSIN
   9.0160    9.3830   15.6790  90.0000  90.0000  90.0000  19 1

