# MOL2 file generated by ConQuest
# Please check atom types

@<TRIPOS>MOLECULE
DIRYEI
    35    37     1
SMALL
NO_CHARGES
****
Generated from CSD

@<TRIPOS>ATOM
      1 O1         1.7273    5.8856   10.1605 O.3       1 RES1    0.0000
      2 O2         0.6476    3.4166   11.1568 O.3       1 RES1    0.0000
      3 O3         1.9926    1.6564   10.9826 O.2       1 RES1    0.0000
      4 N1         2.7057    5.7853   11.2416 N.3       1 RES1    0.0000
      5 C1         0.4291    5.8031   10.7875 C.3       1 RES1    0.0000
      6 C2         0.6307    4.7208   11.7990 C.3       1 RES1    0.0000
      7 C3         2.0442    4.9470   12.2855 C.3       1 RES1    0.0000
      8 C4         2.6332    3.5682   12.3505 C.3       1 RES1    0.0000
      9 C5         1.7919    2.7466   11.4425 C.2       1 RES1    0.0000
     10 C6        -0.6417    5.6047    9.7483 C.3       1 RES1    0.0000
     11 C7         3.0147    7.1653   11.6793 C.3       1 RES1    0.0000
     12 C8         3.9484    7.1006   12.8870 C.3       1 RES1    0.0000
     13 C9         3.6722    7.9211   10.5460 C.ar      1 RES1    0.0000
     14 C10        3.1746    9.1316   10.1082 C.ar      1 RES1    0.0000
     15 C11        3.8431    9.8595    9.1328 C.ar      1 RES1    0.0000
     16 C12        5.0033    9.3958    8.5789 C.ar      1 RES1    0.0000
     17 C13        5.5118    8.1797    8.9912 C.ar      1 RES1    0.0000
     18 C14        4.8503    7.4484    9.9759 C.ar      1 RES1    0.0000
     19 H1         0.2086    6.6771   11.2404 H         1 RES1    0.0000
     20 H2        -0.0596    4.7598   12.5642 H         1 RES1    0.0000
     21 H3         2.0760    5.4174   13.1912 H         1 RES1    0.0000
     22 H4         3.6255    3.5447   12.0300 H         1 RES1    0.0000
     23 H5         2.6422    3.1657   13.2841 H         1 RES1    0.0000
     24 H6        -0.4867    4.6817    9.3012 H         1 RES1    0.0000
     25 H7        -0.5761    6.2869    9.0109 H         1 RES1    0.0000
     26 H8        -1.5495    5.6069   10.1257 H         1 RES1    0.0000
     27 H9         2.1753    7.6468   11.9487 H         1 RES1    0.0000
     28 H10        4.8274    6.6325   12.5874 H         1 RES1    0.0000
     29 H11        3.5560    6.5321   13.6093 H         1 RES1    0.0000
     30 H12        4.1818    7.9924   13.2261 H         1 RES1    0.0000
     31 H13        2.3243    9.4972   10.5437 H         1 RES1    0.0000
     32 H14        3.4368   10.7569    8.8251 H         1 RES1    0.0000
     33 H15        5.4929    9.9877    7.8845 H         1 RES1    0.0000
     34 H16        6.3571    7.8140    8.5697 H         1 RES1    0.0000
     35 H17        5.2546    6.5544   10.2998 H         1 RES1    0.0000
@<TRIPOS>BOND
     1    1    4 1
     2    2    6 1
     3    3    9 2
     4    4    7 1
     5    5    1 1
     6    6    5 1
     7    7    6 1
     8    8    7 1
     9    9    2 1
    10   10    5 1
    11   11    4 1
    12   12   11 1
    13   13   11 1
    14   14   13 ar
    15   15   14 ar
    16   16   15 ar
    17   17   16 ar
    18   18   13 ar
    19   19    5 1
    20   20    6 1
    21   21    7 1
    22   22    8 1
    23   23    8 1
    24   24   10 1
    25   25   10 1
    26   26   10 1
    27   27   11 1
    28   28   12 1
    29   29   12 1
    30   30   12 1
    31   31   14 1
    32   32   15 1
    33   33   16 1
    34   34   17 1
    35   35   18 1
    36    8    9 1
    37   17   18 ar
@<TRIPOS>SUBSTRUCTURE
     1 RES1 1

@<TRIPOS>CRYSIN
   9.9330   11.1470   11.6120  90.0000  90.0000  90.0000  19 1

