# MOL2 file generated by ConQuest
# Please check atom types

@<TRIPOS>MOLECULE
DISMUO
    51    52     2
SMALL
NO_CHARGES
****
Generated from CSD

@<TRIPOS>ATOM
      1 C1         4.5852   -0.1238   17.8526 C.3       1 RES1    0.0000
      2 H1         5.5216   -0.4086   17.9012 H         1 RES1    0.0000
      3 C2         3.7209   -1.2122   18.4556 C.3       1 RES1    0.0000
      4 H2         2.7849   -0.9337   18.3768 H         1 RES1    0.0000
      5 C3         3.8913   -2.5041   17.6799 C.3       1 RES1    0.0000
      6 H3         3.3243   -3.1883   18.0685 H         1 RES1    0.0000
      7 H4         4.8118   -2.8012   17.7515 H         1 RES1    0.0000
      8 C4         3.5309   -2.3265   16.2108 C.3       1 RES1    0.0000
      9 H5         3.7048   -3.1543   15.7348 H         1 RES1    0.0000
     10 H6         2.5844   -2.1291   16.1333 H         1 RES1    0.0000
     11 C5         4.3300   -1.2067   15.5796 C.3       1 RES1    0.0000
     12 H7         4.0056   -1.0466   14.6803 H         1 RES1    0.0000
     13 H8         5.2620   -1.4696   15.5213 H         1 RES1    0.0000
     14 C6         4.2177    0.0695   16.3903 C.3       1 RES1    0.0000
     15 H9         3.3073    0.3997   16.3337 H         1 RES1    0.0000
     16 H10        4.8007    0.7420   16.0034 H         1 RES1    0.0000
     17 N1         4.4538    1.1423   18.5513 N.am      1 RES1    0.0000
     18 H11        3.6632    1.4176   18.7488 H         1 RES1    0.0000
     19 N2         4.0076   -1.4354   19.8692 N.am      1 RES1    0.0000
     20 H12        4.8057   -1.3101   20.1623 H         1 RES1    0.0000
     21 C7         5.4891    1.9013   18.9040 C.2       1 RES1    0.0000
     22 O1         6.6446    1.4391   19.0135 O.2       1 RES1    0.0000
     23 O2         6.6552    1.6273   18.5630 Du        2 SUP2    0.0000
     24 C8         3.0551   -1.8302   20.7124 C.2       1 RES1    0.0000
     25 O3         1.8750   -1.9750   20.3756 O.2       1 RES1    0.0000
     26 C9         5.1807    3.2724   19.4302 C.ar      1 RES1    0.0000
     27 C10        4.1274    4.0326   18.9562 C.ar      1 RES1    0.0000
     28 H13        3.5484    3.6794   18.3195 H         1 RES1    0.0000
     29 C11        3.9329    5.3203   19.4271 C.ar      1 RES1    0.0000
     30 H14        3.2331    5.8408   19.1055 H         1 RES1    0.0000
     31 C12        4.7902    5.8175   20.3776 C.ar      1 RES1    0.0000
     32 C13        5.8450    5.0904   20.8514 C.ar      1 RES1    0.0000
     33 H15        6.4225    5.4501   21.4854 H         1 RES1    0.0000
     34 C14        6.0360    3.8086   20.3699 C.ar      1 RES1    0.0000
     35 H16        6.7499    3.3012   20.6840 H         1 RES1    0.0000
     36 C15        3.4762   -2.1444   22.1109 C.ar      1 RES1    0.0000
     37 C16        4.5029   -1.4823   22.7505 C.ar      1 RES1    0.0000
     38 H17        4.9597   -0.8083   22.3000 H         1 RES1    0.0000
     39 C17        4.8704   -1.7965   24.0461 C.ar      1 RES1    0.0000
     40 H18        5.5472   -1.3280   24.4796 H         1 RES1    0.0000
     41 C18        4.2077   -2.8191   24.6733 C.ar      1 RES1    0.0000
     42 C19        3.1910   -3.5009   24.0699 C.ar      1 RES1    0.0000
     43 H19        2.7468   -4.1830   24.5192 H         1 RES1    0.0000
     44 C20        2.8350   -3.1629   22.7888 C.ar      1 RES1    0.0000
     45 H20        2.1487   -3.6292   22.3683 H         1 RES1    0.0000
     46 N3         4.5641    7.1867   20.8842 N.pl3     1 RES1    0.0000
     47 O4         3.6577    7.8156   20.4146 O.2       1 RES1    0.0000
     48 O5         5.3151    7.5993   21.7522 O.2       1 RES1    0.0000
     49 N4         4.6032   -3.1876   26.0469 N.pl3     1 RES1    0.0000
     50 O6         5.6079   -2.7019   26.5024 O.2       1 RES1    0.0000
     51 O7         3.8928   -3.9548   26.6653 O.2       1 RES1    0.0000
@<TRIPOS>BOND
     1    1    2 1
     2    3    1 1
     3    4    3 1
     4    5    3 1
     5    6    5 1
     6    7    5 1
     7    8    5 1
     8    9    8 1
     9   10    8 1
    10   11    8 1
    11   12   11 1
    12   13   11 1
    13   14    1 1
    14   15   14 1
    15   16   14 1
    16   17    1 1
    17   18   17 1
    18   19    3 1
    19   20   19 1
    20   21   17 1
    21   22   21 2
    22   24   19 1
    23   25   24 2
    24   26   21 1
    25   27   26 ar
    26   28   27 1
    27   29   27 ar
    28   30   29 1
    29   31   29 ar
    30   32   31 ar
    31   33   32 1
    32   34   26 ar
    33   35   34 1
    34   36   24 1
    35   37   36 ar
    36   38   37 1
    37   39   37 ar
    38   40   39 1
    39   41   39 ar
    40   42   41 ar
    41   43   42 1
    42   44   36 ar
    43   45   44 1
    44   46   31 1
    45   47   46 2
    46   48   46 2
    47   49   41 1
    48   50   49 2
    49   51   49 2
    50   11   14 1
    51   32   34 ar
    52   42   44 ar
@<TRIPOS>SUBSTRUCTURE
     1 RES1 1
     2 SUP2 23

@<TRIPOS>CRYSIN
   5.0133   17.9220   22.0160  90.0000  90.0000  90.0000  19 1

