# MOL2 file generated by ConQuest
# Please check atom types

@<TRIPOS>MOLECULE
DISYIP
    47    49     1
SMALL
NO_CHARGES
****
Generated from CSD

@<TRIPOS>ATOM
      1 O1        -1.8756    0.0045   12.1920 O.3       1 RES1    0.0000
      2 N1         1.0360    0.2751   15.2961 N.am      1 RES1    0.0000
      3 O2        -0.3246   -1.0432   13.3413 O.2       1 RES1    0.0000
      4 O3         0.5065    2.4769   15.5143 O.2       1 RES1    0.0000
      5 N2        -5.2831    1.9784    9.5030 N.3       1 RES1    0.0000
      6 N3         4.8823   -0.5767   19.3010 N.pl3     1 RES1    0.0000
      7 O4         5.1188    0.3135   20.1086 O.2       1 RES1    0.0000
      8 O5         5.4345   -1.6591   19.3354 O.2       1 RES1    0.0000
      9 C1        -0.6664    1.2633   13.8695 C.2       1 RES1    0.0000
     10 C2        -2.3703    2.3312   12.5152 C.ar      1 RES1    0.0000
     11 C3        -1.3742    2.3673   13.5114 C.2       1 RES1    0.0000
     12 H1        -1.1945    3.1744   13.9375 H         1 RES1    0.0000
     13 C4        -4.3328    2.0786   10.4780 C.ar      1 RES1    0.0000
     14 C5        -3.5556    0.9716   10.8700 C.ar      1 RES1    0.0000
     15 H2        -3.6804    0.1456   10.4624 H         1 RES1    0.0000
     16 C6        -3.1592    3.4253   12.1229 C.ar      1 RES1    0.0000
     17 H3        -3.0313    4.2472   12.5389 H         1 RES1    0.0000
     18 C7        -2.6116    1.1200   11.8596 C.ar      1 RES1    0.0000
     19 C8         0.3368    1.3994   14.9628 C.2       1 RES1    0.0000
     20 C9        -0.8971    0.0161   13.1674 C.2       1 RES1    0.0000
     21 C10        1.9881    0.1269   16.3102 C.ar      1 RES1    0.0000
     22 C11       -4.1051    3.3167   11.1507 C.ar      1 RES1    0.0000
     23 H4        -4.6123    4.0615   10.9215 H         1 RES1    0.0000
     24 C12        2.7311   -1.0473   16.3182 C.ar      1 RES1    0.0000
     25 H5         2.5846   -1.6844   15.6565 H         1 RES1    0.0000
     26 C13        3.1708    0.8443   18.2730 C.ar      1 RES1    0.0000
     27 H6         3.3308    1.4788   18.9342 H         1 RES1    0.0000
     28 C14        3.6815   -1.2842   17.2892 C.ar      1 RES1    0.0000
     29 H7         4.1749   -2.0727   17.2868 H         1 RES1    0.0000
     30 C15        3.8848   -0.3320   18.2604 C.ar      1 RES1    0.0000
     31 C16        2.2172    1.0817   17.3035 C.ar      1 RES1    0.0000
     32 H8         1.7294    1.8734   17.3125 H         1 RES1    0.0000
     33 C17       -5.9454    3.1721    8.9746 C.3       1 RES1    0.0000
     34 H9        -6.2630    3.7096    9.7174 H         1 RES1    0.0000
     35 H10       -6.7190    2.8983    8.4575 H         1 RES1    0.0000
     36 C18       -5.5797    0.7095    8.8480 C.3       1 RES1    0.0000
     37 H11       -6.5060    0.7175    8.5604 H         1 RES1    0.0000
     38 H12       -5.4811   -0.0047    9.4971 H         1 RES1    0.0000
     39 C19       -4.7103    0.4048    7.6609 C.3       1 RES1    0.0000
     40 H13       -4.8495    1.0701    6.9831 H         1 RES1    0.0000
     41 H14       -4.9367   -0.4606    7.3120 H         1 RES1    0.0000
     42 H15       -3.7887    0.4104    7.9298 H         1 RES1    0.0000
     43 C20       -5.0484    4.0246    8.1017 C.3       1 RES1    0.0000
     44 H16       -4.2453    4.2390    8.5819 H         1 RES1    0.0000
     45 H17       -5.5068    4.8355    7.8669 H         1 RES1    0.0000
     46 H18       -4.8255    3.5409    7.3034 H         1 RES1    0.0000
     47 H19        0.8404   -0.4248   14.8385 H         1 RES1    0.0000
@<TRIPOS>BOND
     1    1   18 1
     2    2   19 1
     3    3   20 2
     4    4   19 2
     5    5   13 1
     6    6    7 2
     7    8    6 2
     8    9   11 2
     9   10   11 1
    10   11   12 1
    11   13   14 ar
    12   14   15 1
    13   16   10 ar
    14   17   16 1
    15   18   10 ar
    16   19    9 1
    17   20    1 1
    18   21    2 1
    19   22   13 ar
    20   23   22 1
    21   24   21 ar
    22   25   24 1
    23   26   27 1
    24   28   24 ar
    25   29   28 1
    26   30    6 1
    27   31   21 ar
    28   32   31 1
    29   33    5 1
    30   34   33 1
    31   35   33 1
    32   36    5 1
    33   37   36 1
    34   38   36 1
    35   39   36 1
    36   40   39 1
    37   41   39 1
    38   42   39 1
    39   43   33 1
    40   44   43 1
    41   45   43 1
    42   46   43 1
    43   47    2 1
    44    9   20 1
    45   14   18 ar
    46   16   22 ar
    47   26   30 ar
    48   26   31 ar
    49   28   30 ar
@<TRIPOS>SUBSTRUCTURE
     1 RES1 1

@<TRIPOS>CRYSIN
   4.9427   12.5574   14.6612  98.1690  99.3016  92.6732   2 1

