# MOL2 file generated by ConQuest
# Please check atom types

@<TRIPOS>MOLECULE
DIVNAX
    26    30     1
SMALL
NO_CHARGES
****
Generated from CSD

@<TRIPOS>ATOM
      1 C1         1.9893    3.7442    6.2681 C.2       1 RES1    0.0000
      2 N1         2.0225    2.6947    5.5433 N.2       1 RES1    0.0000
      3 O1         0.9228    1.8652    5.8509 O.3       1 RES1    0.0000
      4 C2         0.1035    2.5111    6.8611 C.3       1 RES1    0.0000
      5 C3        -1.2404    2.9583    6.3169 C.3       1 RES1    0.0000
      6 C4        -1.6284    4.2614    6.9291 C.3       1 RES1    0.0000
      7 C5        -1.0645    4.2439    5.5776 C.3       1 RES1    0.0000
      8 C6        -0.2784    4.8410    6.6717 C.3       1 RES1    0.0000
      9 C7         0.7810    3.8503    7.1544 C.3       1 RES1    0.0000
     10 C8         3.0799    4.7311    6.2074 C.ar      1 RES1    0.0000
     11 C9         3.0126    5.8929    6.9666 C.ar      1 RES1    0.0000
     12 C10        4.0530    6.8074    6.9403 C.ar      1 RES1    0.0000
     13 C11        5.1677    6.5826    6.1690 C.ar      1 RES1    0.0000
     14 C12        5.2421    5.4307    5.3922 C.ar      1 RES1    0.0000
     15 C13        4.2128    4.5112    5.4162 C.ar      1 RES1    0.0000
     16 H1         0.0302    1.8740    7.6164 H         1 RES1    0.0000
     17 H2        -1.8697    2.3112    6.0899 H         1 RES1    0.0000
     18 H3        -2.4527    4.6099    7.3367 H         1 RES1    0.0000
     19 H4        -1.4475    4.5724    4.8591 H         1 RES1    0.0000
     20 H5        -0.0804    5.8467    6.7053 H         1 RES1    0.0000
     21 H6         1.0454    4.0103    8.0959 H         1 RES1    0.0000
     22 H7         2.2718    6.0466    7.5524 H         1 RES1    0.0000
     23 H8         3.9504    7.5957    7.5045 H         1 RES1    0.0000
     24 H9         5.9005    7.2584    6.1778 H         1 RES1    0.0000
     25 H10        6.0211    5.2346    4.8831 H         1 RES1    0.0000
     26 H11        4.2620    3.6854    4.9391 H         1 RES1    0.0000
@<TRIPOS>BOND
     1    1    2 2
     2    2    3 1
     3    3    4 1
     4    4    5 1
     5    5    6 1
     6    6    7 1
     7    7    5 1
     8    8    6 1
     9    9    1 1
    10   10    1 1
    11   11   10 ar
    12   12   11 ar
    13   13   12 ar
    14   14   13 ar
    15   15   10 ar
    16   16    4 1
    17   17    5 1
    18   18    6 1
    19   19    7 1
    20   20    8 1
    21   21    9 1
    22   22   11 1
    23   23   12 1
    24   24   13 1
    25   25   14 1
    26   26   15 1
    27    4    9 1
    28    7    8 1
    29    8    9 1
    30   14   15 ar
@<TRIPOS>SUBSTRUCTURE
     1 RES1 1

@<TRIPOS>CRYSIN
  10.0520   12.4930    7.9920  90.0000  90.0000  90.0000  19 1

