# MOL2 file generated by ConQuest
# Please check atom types

@<TRIPOS>MOLECULE
DIWKEB
    42    44     1
SMALL
NO_CHARGES
****
Generated from CSD

@<TRIPOS>ATOM
      1 N1         0.9712    9.5739    3.7238 N.pl3     1 RES1    0.0000
      2 N2         2.4688    5.3030    7.0504 N.pl3     1 RES1    0.0000
      3 N3        -0.0438    8.4707    1.2168 N.pl3     1 RES1    0.0000
      4 N4         0.2787    2.9006    1.6985 N.pl3     1 RES1    0.0000
      5 O1         2.1743    9.3135    1.6550 O.3       1 RES1    0.0000
      6 O2        -1.3283    9.2381    3.0873 O.3       1 RES1    0.0000
      7 O3         3.6380    5.0052    7.0795 O.2       1 RES1    0.0000
      8 O4         1.6296    4.7852    7.7482 O.2       1 RES1    0.0000
      9 O5         1.3068    2.3491    1.3036 O.2       1 RES1    0.0000
     10 O6        -0.6969    2.2769    2.1016 O.2       1 RES1    0.0000
     11 C1         1.9132   10.1322    2.7855 C.3       1 RES1    0.0000
     12 H1         1.5749   10.9867    2.4767 H         1 RES1    0.0000
     13 H2         2.7498   10.2975    3.2479 H         1 RES1    0.0000
     14 C2         1.0980    9.2112    0.7421 C.3       1 RES1    0.0000
     15 H3         1.4223    8.7892   -0.0687 H         1 RES1    0.0000
     16 H4         0.8076   10.1064    0.5079 H         1 RES1    0.0000
     17 C3        -1.1946    9.1940    1.6764 C.3       1 RES1    0.0000
     18 H5        -1.1453   10.1022    1.3409 H         1 RES1    0.0000
     19 H6        -1.9892    8.7849    1.3013 H         1 RES1    0.0000
     20 C4        -0.3721   10.0697    3.7337 C.3       1 RES1    0.0000
     21 H7        -0.6467   10.1958    4.6552 H         1 RES1    0.0000
     22 H8        -0.3820   10.9404    3.3050 H         1 RES1    0.0000
     23 C5         1.3100    8.4606    4.4771 C.ar      1 RES1    0.0000
     24 C6         2.6049    7.9339    4.4502 C.ar      1 RES1    0.0000
     25 H9         3.2308    8.2939    3.8631 H         1 RES1    0.0000
     26 C7         2.9700    6.9011    5.2680 C.ar      1 RES1    0.0000
     27 H10        3.8392    6.5693    5.2447 H         1 RES1    0.0000
     28 C8         2.0442    6.3561    6.1254 C.ar      1 RES1    0.0000
     29 C9         0.7451    6.7949    6.1219 C.ar      1 RES1    0.0000
     30 H11        0.1181    6.3922    6.6776 H         1 RES1    0.0000
     31 C10        0.3676    7.8274    5.3006 C.ar      1 RES1    0.0000
     32 H12       -0.5182    8.1094    5.2901 H         1 RES1    0.0000
     33 C11        0.0617    7.1049    1.4271 C.ar      1 RES1    0.0000
     34 C12        1.2552    6.4297    1.1778 C.ar      1 RES1    0.0000
     35 H13        2.0119    6.9134    0.9343 H         1 RES1    0.0000
     36 C13        1.3331    5.0656    1.2850 C.ar      1 RES1    0.0000
     37 H14        2.1343    4.6269    1.1091 H         1 RES1    0.0000
     38 C14        0.2195    4.3478    1.6566 C.ar      1 RES1    0.0000
     39 C15       -0.9526    4.9924    1.9816 C.ar      1 RES1    0.0000
     40 H15       -1.6886    4.5020    2.2705 H         1 RES1    0.0000
     41 C16       -1.0319    6.3545    1.8803 C.ar      1 RES1    0.0000
     42 H16       -1.8211    6.7877    2.1133 H         1 RES1    0.0000
@<TRIPOS>BOND
     1    1   11 1
     2    2    7 2
     3    3   14 1
     4    4    9 2
     5    5   11 1
     6    6   17 1
     7    8    2 2
     8   10    4 2
     9   11   12 1
    10   13   11 1
    11   14    5 1
    12   15   14 1
    13   16   14 1
    14   17    3 1
    15   18   17 1
    16   19   17 1
    17   20    1 1
    18   21   20 1
    19   22   20 1
    20   23    1 1
    21   24   23 ar
    22   25   24 1
    23   26   24 ar
    24   27   26 1
    25   28    2 1
    26   29   28 ar
    27   30   29 1
    28   31   23 ar
    29   32   31 1
    30   33    3 1
    31   34   33 ar
    32   35   34 1
    33   36   34 ar
    34   37   36 1
    35   38    4 1
    36   39   38 ar
    37   40   39 1
    38   41   33 ar
    39   42   41 1
    40    6   20 1
    41   26   28 ar
    42   29   31 ar
    43   36   38 ar
    44   39   41 ar
@<TRIPOS>SUBSTRUCTURE
     1 RES1 1

@<TRIPOS>CRYSIN
   6.6316   10.5349   11.8234  99.3030  92.0140  96.9180   2 1

