# MOL2 file generated by ConQuest
# Please check atom types

@<TRIPOS>MOLECULE
DIWKAW
    28    29     1
SMALL
NO_CHARGES
****
Generated from CSD

@<TRIPOS>ATOM
      1 O1         7.7295    3.2598    6.7080 O.2       1 RES1    0.0000
      2 O2         6.1405    1.9842    9.3550 O.2       1 RES1    0.0000
      3 O3         4.1784    2.2541   10.2505 O.2       1 RES1    0.0000
      4 N1         7.3572    4.4623    8.6089 N.am      1 RES1    0.0000
      5 N2         6.4223    5.1127    9.4276 N.2       1 RES1    0.0000
      6 N3         9.7341    4.0639    8.4718 N.3       1 RES1    0.0000
      7 N4         4.9799    2.3977    9.3281 N.pl3     1 RES1    0.0000
      8 C1         6.9384    3.7458    7.4977 C.2       1 RES1    0.0000
      9 C2         7.1691    5.6482   10.3835 C.2       1 RES1    0.0000
     10 C3         8.5408    5.3718   10.2310 C.2       1 RES1    0.0000
     11 C4         8.6527    4.6245    9.0907 C.2       1 RES1    0.0000
     12 C5         5.4559    3.6841    7.2715 C.ar      1 RES1    0.0000
     13 C6         4.5217    3.0919    8.1148 C.ar      1 RES1    0.0000
     14 C7         3.1660    3.0804    7.8417 C.ar      1 RES1    0.0000
     15 C8         2.7194    3.6812    6.6748 C.ar      1 RES1    0.0000
     16 C9         3.6228    4.2663    5.8037 C.ar      1 RES1    0.0000
     17 C10        4.9899    4.2649    6.0941 C.ar      1 RES1    0.0000
     18 C11        6.5215    6.4429   11.4734 C.3       1 RES1    0.0000
     19 H1         9.5858    3.7774    7.5911 H         1 RES1    0.0000
     20 H2        10.5441    4.5118    8.6677 H         1 RES1    0.0000
     21 H3         9.2455    5.6482   10.8052 H         1 RES1    0.0000
     22 H4         2.5526    2.6698    8.4410 H         1 RES1    0.0000
     23 H5         1.7920    3.6920    6.4733 H         1 RES1    0.0000
     24 H6         3.3110    4.6719    5.0028 H         1 RES1    0.0000
     25 H7         5.6032    4.6611    5.4855 H         1 RES1    0.0000
     26 H8         5.6135    6.6905   11.2016 H         1 RES1    0.0000
     27 H9         7.0446    7.2541   11.6418 H         1 RES1    0.0000
     28 H10        6.4815    5.9038   12.2916 H         1 RES1    0.0000
@<TRIPOS>BOND
     1    1    8 2
     2    2    7 2
     3    3    7 2
     4    4    5 1
     5    5    9 2
     6    6   11 1
     7    7   13 1
     8    8    4 1
     9    9   10 1
    10   10   11 2
    11   11    4 1
    12   12    8 1
    13   13   12 ar
    14   14   13 ar
    15   15   14 ar
    16   16   15 ar
    17   17   12 ar
    18   18    9 1
    19   19    6 1
    20   20    6 1
    21   21   10 1
    22   22   14 1
    23   23   15 1
    24   24   16 1
    25   25   17 1
    26   26   18 1
    27   27   18 1
    28   28   18 1
    29   16   17 ar
@<TRIPOS>SUBSTRUCTURE
     1 RES1 1

@<TRIPOS>CRYSIN
  11.4212    7.1787   13.2595  90.0000  90.0000  90.0000  33 1

