# MOL2 file generated by ConQuest
# Please check atom types

@<TRIPOS>MOLECULE
DIWNUT
    50    52     1
SMALL
NO_CHARGES
****
Generated from CSD

@<TRIPOS>ATOM
      1 O1         5.1428    0.0612    6.8653 O.3       1 RES1    0.0000
      2 O2         3.0056    0.7331    6.5257 O.2       1 RES1    0.0000
      3 O3         4.8355    1.9052    5.8257 O.3       1 RES1    0.0000
      4 O4         1.4339    6.9517    4.2990 O.2       1 RES1    0.0000
      5 O5         2.2520    6.3908    2.3782 O.2       1 RES1    0.0000
      6 O6         2.2202   -0.4460   12.5980 O.3       1 RES1    0.0000
      7 O7         1.2322    1.2800   13.6891 O.2       1 RES1    0.0000
      8 O8         0.4753   -0.8686   13.7536 O.3       1 RES1    0.0000
      9 O9        -4.6740    1.1650   16.6846 O.2       1 RES1    0.0000
     10 O10       -3.9242   -0.2392   18.1229 O.2       1 RES1    0.0000
     11 N1         2.1221    6.2273    3.5854 N.pl3     1 RES1    0.0000
     12 N2        -3.8707    0.3198   17.0395 N.pl3     1 RES1    0.0000
     13 C1         3.9913   -0.3456    9.7594 C.ar      1 RES1    0.0000
     14 H1         3.3231    0.1804    9.3350 H         1 RES1    0.0000
     15 C2         4.8512   -1.1157    8.9841 C.ar      1 RES1    0.0000
     16 C3         5.8318   -1.8781    9.6113 C.ar      1 RES1    0.0000
     17 H2         6.4359   -2.3956    9.0922 H         1 RES1    0.0000
     18 C4         5.9275   -1.8809   10.9910 C.ar      1 RES1    0.0000
     19 H3         6.5952   -2.4070   11.4166 H         1 RES1    0.0000
     20 C5         5.0592   -1.1270   11.7569 C.ar      1 RES1    0.0000
     21 H4         5.1228   -1.1512   12.7043 H         1 RES1    0.0000
     22 C6         4.0941   -0.3323   11.1498 C.ar      1 RES1    0.0000
     23 C7         4.6992   -1.1948    7.4923 C.3       1 RES1    0.0000
     24 H5         5.2377   -1.9479    7.1441 H         1 RES1    0.0000
     25 H6         3.7503   -1.3623    7.2642 H         1 RES1    0.0000
     26 C8         4.1887    0.8706    6.4315 C.2       1 RES1    0.0000
     27 C9         4.0997    2.9853    5.3147 C.ar      1 RES1    0.0000
     28 C10        3.0237    3.5338    5.9792 C.ar      1 RES1    0.0000
     29 H7         2.7273    3.1714    6.8051 H         1 RES1    0.0000
     30 C11        2.3852    4.6264    5.4148 C.ar      1 RES1    0.0000
     31 H8         1.6484    5.0362    5.8538 H         1 RES1    0.0000
     32 C12        2.8388    5.1074    4.2072 C.ar      1 RES1    0.0000
     33 C13        3.9375    4.5819    3.5547 C.ar      1 RES1    0.0000
     34 H9         4.2392    4.9523    2.7341 H         1 RES1    0.0000
     35 C14        4.5866    3.5041    4.1258 C.ar      1 RES1    0.0000
     36 H10        5.3535    3.1250    3.7108 H         1 RES1    0.0000
     37 C15        3.1657    0.4908   11.9810 C.3       1 RES1    0.0000
     38 H11        3.6687    0.9832   12.6776 H         1 RES1    0.0000
     39 H12        2.6836    1.1458   11.4166 H         1 RES1    0.0000
     40 C16        1.3066    0.1281   13.3648 C.2       1 RES1    0.0000
     41 C17       -0.6384   -0.5390   14.5363 C.ar      1 RES1    0.0000
     42 C18       -0.8565   -1.3340   15.6425 C.ar      1 RES1    0.0000
     43 H13       -0.2765   -2.0628   15.8320 H         1 RES1    0.0000
     44 C19       -1.9305   -1.0579   16.4738 C.ar      1 RES1    0.0000
     45 H14       -2.0867   -1.5715   17.2570 H         1 RES1    0.0000
     46 C20       -2.7653   -0.0161   16.1295 C.ar      1 RES1    0.0000
     47 C21       -2.5978    0.7401   14.9886 C.ar      1 RES1    0.0000
     48 H15       -3.2141    1.4280   14.7671 H         1 RES1    0.0000
     49 C22       -1.5077    0.4725   14.1707 C.ar      1 RES1    0.0000
     50 H16       -1.3623    0.9736   13.3768 H         1 RES1    0.0000
@<TRIPOS>BOND
     1    1   23 1
     2    2   26 2
     3    3   26 1
     4    4   11 2
     5    5   11 2
     6    6   37 1
     7    7   40 2
     8    8   40 1
     9    9   12 2
    10   10   12 2
    11   11   32 1
    12   12   46 1
    13   13   14 1
    14   15   13 ar
    15   16   15 ar
    16   17   16 1
    17   18   16 ar
    18   19   18 1
    19   20   18 ar
    20   21   20 1
    21   22   13 ar
    22   23   15 1
    23   24   23 1
    24   25   23 1
    25   26    1 1
    26   27    3 1
    27   28   27 ar
    28   29   28 1
    29   30   28 ar
    30   31   30 1
    31   32   30 ar
    32   33   32 ar
    33   34   33 1
    34   35   27 ar
    35   36   35 1
    36   37   22 1
    37   38   37 1
    38   39   37 1
    39   40    6 1
    40   41    8 1
    41   42   41 ar
    42   43   42 1
    43   44   42 ar
    44   45   44 1
    45   46   44 ar
    46   47   46 ar
    47   48   47 1
    48   49   41 ar
    49   50   49 1
    50   20   22 ar
    51   33   35 ar
    52   47   49 ar
@<TRIPOS>SUBSTRUCTURE
     1 RES1 1

@<TRIPOS>CRYSIN
   8.5956    9.2367   14.1550  94.0940 107.1340 105.6740   2 1

