# MOL2 file generated by ConQuest
# Please check atom types

@<TRIPOS>MOLECULE
DIWYUE
    47    50     1
SMALL
NO_CHARGES
****
Generated from CSD

@<TRIPOS>ATOM
      1 O1         8.1116    8.8129   12.6619 O.2       1 RES1    0.0000
      2 O2         9.5867    6.0844    8.1133 O.2       1 RES1    0.0000
      3 O3         7.9980    5.6726    6.7409 O.2       1 RES1    0.0000
      4 N1         5.8091    8.7693   12.4849 N.am      1 RES1    0.0000
      5 N2         8.4123    6.0979    7.8085 N.pl3     1 RES1    0.0000
      6 N3         3.6691    7.5992   11.8980 N.3       1 RES1    0.0000
      7 H1         3.0502    8.0450   12.3371 H         1 RES1    0.0000
      8 C1         7.0811    8.5126   12.0671 C.2       1 RES1    0.0000
      9 C2         6.9426    7.8234   10.7484 C.ar      1 RES1    0.0000
     10 C3         7.9161    7.2765    9.9147 C.ar      1 RES1    0.0000
     11 H2         8.8416    7.3097   10.1271 H         1 RES1    0.0000
     12 C4         7.4453    6.6807    8.7550 C.ar      1 RES1    0.0000
     13 C5         6.1015    6.6093    8.4155 C.ar      1 RES1    0.0000
     14 H3         5.8326    6.1821    7.6106 H         1 RES1    0.0000
     15 C6         5.1568    7.1663    9.2587 C.ar      1 RES1    0.0000
     16 H4         4.2309    7.1304    9.0483 H         1 RES1    0.0000
     17 C7         5.6015    7.7750   10.4158 C.ar      1 RES1    0.0000
     18 C8         4.7652    8.4275   11.4876 C.3       1 RES1    0.0000
     19 H5         4.3930    9.2791   11.1195 H         1 RES1    0.0000
     20 C9         5.5147    9.5867   13.6585 C.3       1 RES1    0.0000
     21 H6         4.7529   10.1835   13.4480 H         1 RES1    0.0000
     22 H7         6.2994   10.1577   13.8545 H         1 RES1    0.0000
     23 C10        5.1768    8.7812   14.8936 C.ar      1 RES1    0.0000
     24 C11        6.1675    8.0349   15.5236 C.ar      1 RES1    0.0000
     25 H8         7.0462    8.0177   15.1635 H         1 RES1    0.0000
     26 C12        5.8790    7.3165   16.6728 C.ar      1 RES1    0.0000
     27 H9         6.5609    6.8113   17.0992 H         1 RES1    0.0000
     28 C13        4.6020    7.3343   17.1983 C.ar      1 RES1    0.0000
     29 H10        4.4057    6.8401   17.9849 H         1 RES1    0.0000
     30 C14        3.6126    8.0674   16.5817 C.ar      1 RES1    0.0000
     31 H11        2.7351    8.0809   16.9451 H         1 RES1    0.0000
     32 C15        3.8976    8.7879   15.4265 C.ar      1 RES1    0.0000
     33 H12        3.2117    9.2880   15.0009 H         1 RES1    0.0000
     34 C16        4.0110    6.3239   12.5423 C.3       1 RES1    0.0000
     35 H13        4.5288    6.4917   13.3684 H         1 RES1    0.0000
     36 H14        4.5663    5.7764   11.9323 H         1 RES1    0.0000
     37 C17        2.7361    5.5880   12.8756 C.ar      1 RES1    0.0000
     38 C18        2.2283    5.6234   14.1654 C.ar      1 RES1    0.0000
     39 H15        2.7073    6.0813   14.8468 H         1 RES1    0.0000
     40 C19        1.0264    4.9954   14.4731 C.ar      1 RES1    0.0000
     41 H16        0.6867    5.0311   15.3600 H         1 RES1    0.0000
     42 C20        0.3252    4.3213   13.4975 C.ar      1 RES1    0.0000
     43 H17       -0.4975    3.8944   13.7071 H         1 RES1    0.0000
     44 C21        0.8265    4.2715   12.2119 C.ar      1 RES1    0.0000
     45 H18        0.3480    3.8045   11.5378 H         1 RES1    0.0000
     46 C22        2.0241    4.8980   11.8990 C.ar      1 RES1    0.0000
     47 H19        2.3604    4.8555   11.0111 H         1 RES1    0.0000
@<TRIPOS>BOND
     1    1    8 2
     2    2    5 2
     3    3    5 2
     4    4    8 1
     5    5   12 1
     6    6    7 1
     7    8    9 1
     8    9   10 ar
     9   10   11 1
    10   12   10 ar
    11   13   12 ar
    12   14   13 1
    13   15   13 ar
    14   16   15 1
    15   17    9 ar
    16   18    4 1
    17   19   18 1
    18   20    4 1
    19   21   20 1
    20   22   20 1
    21   23   20 1
    22   24   23 ar
    23   25   24 1
    24   26   24 ar
    25   27   26 1
    26   28   26 ar
    27   29   28 1
    28   30   28 ar
    29   31   30 1
    30   32   23 ar
    31   33   32 1
    32   34    6 1
    33   35   34 1
    34   36   34 1
    35   37   34 1
    36   38   37 ar
    37   39   38 1
    38   40   38 ar
    39   41   40 1
    40   42   40 ar
    41   43   42 1
    42   44   42 ar
    43   45   44 1
    44   46   37 ar
    45   47   46 1
    46    6   18 1
    47   15   17 ar
    48   17   18 1
    49   30   32 ar
    50   44   46 ar
@<TRIPOS>SUBSTRUCTURE
     1 RES1 1

@<TRIPOS>CRYSIN
   7.1365    7.8158   17.4650  81.0470  77.1800  75.3050   2 1

