# MOL2 file generated by ConQuest
# Please check atom types

@<TRIPOS>MOLECULE
DIXBAP
    61    65     1
SMALL
NO_CHARGES
****
Generated from CSD

@<TRIPOS>ATOM
      1 O1         3.7847   10.7665   14.1463 O.2       1 RES1    0.0000
      2 O2         2.8512   10.8207   16.0774 O.2       1 RES1    0.0000
      3 O3         7.3662   12.5751   12.4736 O.3       1 RES1    0.0000
      4 N1         4.4832    7.7663   13.3457 N.2       1 RES1    0.0000
      5 N2         6.1301    9.0982   12.7002 N.pl3     1 RES1    0.0000
      6 N3         3.7773   10.5139   15.3356 N.pl3     1 RES1    0.0000
      7 C1         2.4735    6.4081   11.8069 C.ar      1 RES1    0.0000
      8 H1         2.3723    6.5042   12.7272 H         1 RES1    0.0000
      9 C2         1.4947    5.7592   11.0708 C.ar      1 RES1    0.0000
     10 H2         0.7373    5.4295   11.4983 H         1 RES1    0.0000
     11 C3         1.6392    5.5995    9.7098 C.ar      1 RES1    0.0000
     12 H3         0.9799    5.1663    9.2178 H         1 RES1    0.0000
     13 C4         2.7520    6.0788    9.0859 C.ar      1 RES1    0.0000
     14 H4         2.8522    5.9637    8.1682 H         1 RES1    0.0000
     15 C5         3.7298    6.7324    9.8053 C.ar      1 RES1    0.0000
     16 H5         4.4840    7.0549    9.3657 H         1 RES1    0.0000
     17 C6         3.6048    6.9156   11.1822 C.ar      1 RES1    0.0000
     18 C7         4.5826    7.6956   11.9652 C.2       1 RES1    0.0000
     19 C8         5.6129    8.5002   11.5437 C.2       1 RES1    0.0000
     20 C9         6.1799    8.6869   10.1793 C.ar      1 RES1    0.0000
     21 C10        5.7192    9.6942    9.3420 C.ar      1 RES1    0.0000
     22 H6         5.0726   10.2904    9.6447 H         1 RES1    0.0000
     23 C11        6.2234    9.8138    8.0514 C.ar      1 RES1    0.0000
     24 H7         5.9186   10.4961    7.4992 H         1 RES1    0.0000
     25 C12        7.1611    8.9359    7.5892 C.ar      1 RES1    0.0000
     26 H8         7.5008    9.0266    6.7286 H         1 RES1    0.0000
     27 C13        7.6020    7.9213    8.3962 C.ar      1 RES1    0.0000
     28 H9         8.2307    7.3156    8.0758 H         1 RES1    0.0000
     29 C14        7.1189    7.7906    9.6878 C.ar      1 RES1    0.0000
     30 H10        7.4248    7.0984   10.2287 H         1 RES1    0.0000
     31 C15        5.4039    8.6098   13.7360 C.2       1 RES1    0.0000
     32 C16        5.6856    8.9475   15.1588 C.ar      1 RES1    0.0000
     33 C17        4.9265    9.8151   15.9190 C.ar      1 RES1    0.0000
     34 C18        5.2308   10.0889   17.2466 C.ar      1 RES1    0.0000
     35 H11        4.7055   10.6789   17.7353 H         1 RES1    0.0000
     36 C19        6.3109    9.4841   17.8286 C.ar      1 RES1    0.0000
     37 H12        6.5272    9.6694   18.7128 H         1 RES1    0.0000
     38 C20        7.0651    8.6139   17.1143 C.ar      1 RES1    0.0000
     39 H13        7.7972    8.2024   17.5135 H         1 RES1    0.0000
     40 C21        6.7536    8.3289   15.7865 C.ar      1 RES1    0.0000
     41 H14        7.2698    7.7143   15.3162 H         1 RES1    0.0000
     42 C22        8.9416    7.4655   13.1491 C.ar      1 RES1    0.0000
     43 H15        8.3710    7.1457   12.4888 H         1 RES1    0.0000
     44 C23        9.5176    6.5724   14.0356 C.ar      1 RES1    0.0000
     45 H16        9.3172    5.6659   13.9783 H         1 RES1    0.0000
     46 C24       10.3804    7.0179   14.9945 C.ar      1 RES1    0.0000
     47 H17       10.7612    6.4224   15.5971 H         1 RES1    0.0000
     48 C25       10.6768    8.3481   15.0577 C.ar      1 RES1    0.0000
     49 H18       11.2886    8.6522   15.6877 H         1 RES1    0.0000
     50 C26       10.0756    9.2541   14.1906 C.ar      1 RES1    0.0000
     51 H19       10.2707   10.1601   14.2647 H         1 RES1    0.0000
     52 C27        9.1940    8.8210   13.2232 C.ar      1 RES1    0.0000
     53 C28        8.5065    9.8185   12.3230 C.3       1 RES1    0.0000
     54 H20        8.4374    9.4432   11.4317 H         1 RES1    0.0000
     55 H21        9.0513   10.6188   12.2652 H         1 RES1    0.0000
     56 C29        7.1022   10.2034   12.8131 C.3       1 RES1    0.0000
     57 H22        7.1843   10.4080   13.7676 H         1 RES1    0.0000
     58 C30        6.5732   11.4685   12.1386 C.3       1 RES1    0.0000
     59 H23        6.5746   11.3472   11.1767 H         1 RES1    0.0000
     60 H24        5.6591   11.6283   12.4204 H         1 RES1    0.0000
     61 H25        6.9407   13.0723   13.0968 H         1 RES1    0.0000
@<TRIPOS>BOND
     1    1    6 2
     2    2    6 2
     3    3   58 1
     4    4   18 1
     5    5   19 1
     6    6   33 1
     7    7    8 1
     8    9    7 ar
     9   10    9 1
    10   11    9 ar
    11   12   11 1
    12   13   11 ar
    13   14   13 1
    14   15   13 ar
    15   16   15 1
    16   17    7 ar
    17   18   17 1
    18   19   18 2
    19   20   19 1
    20   21   20 ar
    21   22   21 1
    22   23   21 ar
    23   24   23 1
    24   25   23 ar
    25   26   25 1
    26   27   25 ar
    27   28   27 1
    28   29   20 ar
    29   30   29 1
    30   31    4 2
    31   32   31 1
    32   33   32 ar
    33   34   33 ar
    34   35   34 1
    35   36   34 ar
    36   37   36 1
    37   38   36 ar
    38   39   38 1
    39   40   32 ar
    40   41   40 1
    41   42   43 1
    42   44   42 ar
    43   45   44 1
    44   46   44 ar
    45   47   46 1
    46   48   46 ar
    47   49   48 1
    48   50   48 ar
    49   51   50 1
    50   52   42 ar
    51   53   52 1
    52   54   53 1
    53   55   53 1
    54   56    5 1
    55   57   56 1
    56   58   56 1
    57   59   58 1
    58   60   58 1
    59   61    3 1
    60    5   31 1
    61   15   17 ar
    62   27   29 ar
    63   38   40 ar
    64   50   52 ar
    65   53   56 1
@<TRIPOS>SUBSTRUCTURE
     1 RES1 1

@<TRIPOS>CRYSIN
  10.5481   12.7784   18.4800  90.0000  90.0000  90.0000  19 1

