# MOL2 file generated by ConQuest
# Please check atom types

@<TRIPOS>MOLECULE
DIXBAO
    33    35     1
SMALL
NO_CHARGES
****
Generated from CSD

@<TRIPOS>ATOM
      1 O1         1.1842    8.6151    4.7219 O.2       1 RES1    0.0000
      2 O2         3.4349   13.7923    8.7505 O.2       1 RES1    0.0000
      3 O3         4.0143   12.6174   10.4730 O.2       1 RES1    0.0000
      4 N1         1.2883    5.4820    6.3335 N.ar      1 RES1    0.0000
      5 N2         1.8960    7.9958    6.8146 N.am      1 RES1    0.0000
      6 N3         3.5336   12.7173    9.3461 N.pl3     1 RES1    0.0000
      7 C1         1.0770    6.3084    5.3312 C.ar      1 RES1    0.0000
      8 C2         0.5821    5.9151    4.0684 C.ar      1 RES1    0.0000
      9 H1         0.4359    6.5558    3.3833 H         1 RES1    0.0000
     10 C3         0.3186    4.5922    3.8552 C.ar      1 RES1    0.0000
     11 H2        -0.0237    4.3012    3.0186 H         1 RES1    0.0000
     12 C4         0.3596    2.2669    4.7274 C.ar      1 RES1    0.0000
     13 H3         0.0394    1.9249    3.9010 H         1 RES1    0.0000
     14 C5         0.6286    1.4138    5.7618 C.ar      1 RES1    0.0000
     15 H4         0.5103    0.4788    5.6432 H         1 RES1    0.0000
     16 C6         1.0808    1.9105    7.0050 C.ar      1 RES1    0.0000
     17 H5         1.2520    1.3079    7.7181 H         1 RES1    0.0000
     18 C7         1.2741    3.2530    7.1903 C.ar      1 RES1    0.0000
     19 H6         1.5684    3.5775    8.0336 H         1 RES1    0.0000
     20 C8         1.0367    4.1552    6.1300 C.ar      1 RES1    0.0000
     21 C9         0.5588    3.6597    4.8884 C.ar      1 RES1    0.0000
     22 C10        1.3854    7.7668    5.5770 C.2       1 RES1    0.0000
     23 C11        2.2787    9.2111    7.3878 C.ar      1 RES1    0.0000
     24 C12        2.2418   10.4337    6.7091 C.ar      1 RES1    0.0000
     25 H7         1.9402   10.4739    5.8096 H         1 RES1    0.0000
     26 C13        2.6494   11.5843    7.3624 C.ar      1 RES1    0.0000
     27 H8         2.6340   12.4207    6.9116 H         1 RES1    0.0000
     28 C14        3.0787   11.5093    8.6741 C.ar      1 RES1    0.0000
     29 C15        3.1110   10.3066    9.3654 C.ar      1 RES1    0.0000
     30 H9         3.4039   10.2756   10.2682 H         1 RES1    0.0000
     31 C16        2.7101    9.1590    8.7166 C.ar      1 RES1    0.0000
     32 H10        2.7273    8.3274    9.1755 H         1 RES1    0.0000
     33 H11        1.9436    7.2562    7.3055 H         1 RES1    0.0000
@<TRIPOS>BOND
     1    1   22 2
     2    2    6 2
     3    3    6 2
     4    4    7 ar
     5    5   22 1
     6    6   28 1
     7    7    8 ar
     8    8    9 1
     9   10    8 ar
    10   11   10 1
    11   12   13 1
    12   14   12 ar
    13   15   14 1
    14   16   14 ar
    15   17   16 1
    16   18   16 ar
    17   19   18 1
    18   20    4 ar
    19   21   10 ar
    20   22    7 1
    21   23    5 1
    22   24   23 ar
    23   25   24 1
    24   26   24 ar
    25   27   26 1
    26   28   26 ar
    27   29   28 ar
    28   30   29 1
    29   31   23 ar
    30   32   31 1
    31   33    5 1
    32   12   21 ar
    33   18   20 ar
    34   20   21 ar
    35   29   31 ar
@<TRIPOS>SUBSTRUCTURE
     1 RES1 1

@<TRIPOS>CRYSIN
   7.2928   13.6807   13.3131  90.0000  91.3490  90.0000  14 1

