# MOL2 file generated by ConQuest
# Please check atom types

@<TRIPOS>MOLECULE
DIXDUJ
    21    21     1
SMALL
NO_CHARGES
****
Generated from CSD

@<TRIPOS>ATOM
      1 O1         6.9838    1.0580    7.6388 O.2       1 RES1    0.0000
      2 O2         3.0297   -1.7798    7.2166 O.2       1 RES1    0.0000
      3 O3         1.2630   -0.8046    6.4978 O.2       1 RES1    0.0000
      4 N1         5.2794   -0.3674    7.1582 N.am      1 RES1    0.0000
      5 N2         2.4760   -0.8973    6.5649 N.pl3     1 RES1    0.0000
      6 C1         4.6246    0.3099    6.1297 C.ar      1 RES1    0.0000
      7 C2         3.2785    0.0729    5.8276 C.ar      1 RES1    0.0000
      8 C3         2.6184    0.7655    4.8122 C.ar      1 RES1    0.0000
      9 C4         3.2928    1.6960    4.0662 C.ar      1 RES1    0.0000
     10 C5         4.6197    1.9454    4.3456 C.ar      1 RES1    0.0000
     11 C6         5.2791    1.2736    5.3437 C.ar      1 RES1    0.0000
     12 C7         6.3612    0.0605    7.8835 C.2       1 RES1    0.0000
     13 C8         6.6930   -0.8344    9.0376 C.3       1 RES1    0.0000
     14 H1         1.6948    0.5057    4.6119 H         1 RES1    0.0000
     15 H2         2.8253    2.2061    3.3128 H         1 RES1    0.0000
     16 H3         5.0799    2.5631    3.8541 H         1 RES1    0.0000
     17 H4         6.2055    1.4179    5.4996 H         1 RES1    0.0000
     18 H5         4.8731   -1.0262    7.4916 H         1 RES1    0.0000
     19 H6         5.9963   -1.0560    9.5810 H         1 RES1    0.0000
     20 H7         7.3419   -0.4264    9.7218 H         1 RES1    0.0000
     21 H8         7.1506   -1.5170    8.7258 H         1 RES1    0.0000
@<TRIPOS>BOND
     1    1   12 2
     2    2    5 2
     3    3    5 2
     4    4    6 1
     5    5    7 1
     6    6    7 ar
     7    7    8 ar
     8    8    9 ar
     9    9   10 ar
    10   10   11 ar
    11   11    6 ar
    12   12    4 1
    13   13   12 1
    14   14    8 1
    15   15    9 1
    16   16   10 1
    17   17   11 1
    18   18    4 1
    19   19   13 1
    20   20   13 1
    21   21   13 1
@<TRIPOS>SUBSTRUCTURE
     1 RES1 1

@<TRIPOS>CRYSIN
  15.5070    4.9576   10.9240  90.0000  97.6800  90.0000 231 1

