# MOL2 file generated by ConQuest
# Please check atom types

@<TRIPOS>MOLECULE
DIXGIA
    32    26     2
SMALL
NO_CHARGES
****
Generated from CSD

@<TRIPOS>ATOM
      1 C1         2.6723    1.6617    1.5920 C.3       1 RES1    0.0000
      2 H1         2.3695    0.8812    1.0629 H         1 RES1    0.0000
      3 H2         3.6364    1.5489    1.7868 H         1 RES1    0.0000
      4 C2         2.4502    2.9493    0.7933 C.3       1 RES1    0.0000
      5 H3         3.0635    2.9493    0.0156 H         1 RES1    0.0000
      6 H4         1.5242    2.9493    0.4434 H         1 RES1    0.0000
      7 O1         0.8143   -0.1926    2.4787 O.3       1 RES1    0.0000
      8 H5         0.1695   -0.6205    2.9300 H         1 RES1    0.0000
      9 N1         1.0649    0.8942    3.3487 N.2       1 RES1    0.0000
     10 C3         2.2021    2.9493    3.7591 C.3       1 RES1    0.0000
     11 C4         1.8941    1.7382    2.8821 C.2       1 RES1    0.0000
     12 C5         1.3957    2.9493    5.0538 C.3       1 RES1    0.0000
     13 C6         3.7085    2.9493    4.1339 C.3       1 RES1    0.0000
     14 H6         0.4650    2.9493    4.8399 H         1 RES1    0.0000
     15 H7         1.6482    3.7220    5.5833 H         1 RES1    0.0000
     16 H8         3.9259    3.7338    4.6615 H         1 RES1    0.0000
     17 H9         4.2992    2.9493    3.2900 H         1 RES1    0.0000
     18 C7         2.2676    1.6823    1.3964 Du        2 SUP2    0.0000
     19 H10        2.8496    0.8978    1.2374 Du        2 SUP2    0.0000
     20 H11        1.4445    1.5619    0.8595 Du        2 SUP2    0.0000
     21 C8         2.9929    2.9493    0.9257 Du        2 SUP2    0.0000
     22 H12        3.0463    2.9493   -0.0623 Du        2 SUP2    0.0000
     23 H13        3.9169    2.9493    1.2819 Du        2 SUP2    0.0000
     24 C1C        2.6723    4.2368    1.5920 C.3       1 RES1    0.0000
     25 H1C        2.3695    5.0173    1.0629 H         1 RES1    0.0000
     26 H2C        3.6364    4.3496    1.7868 H         1 RES1    0.0000
     27 C4C        1.8941    4.1603    2.8821 C.2       1 RES1    0.0000
     28 N1C        1.0649    5.0043    3.3487 N.2       1 RES1    0.0000
     29 O1C        0.8143    6.0911    2.4787 O.3       1 RES1    0.0000
     30 H5C        0.1695    6.5190    2.9300 H         1 RES1    0.0000
     31 H7C        1.6482    2.1765    5.5833 H         1 RES1    0.0000
     32 H8C        3.9259    2.1647    4.6615 H         1 RES1    0.0000
@<TRIPOS>BOND
     1    1    2 1
     2    3    1 1
     3    4    1 1
     4    5    4 1
     5    6    4 1
     6    7    8 1
     7    9    7 1
     8   10   11 1
     9   11    1 1
    10   12   10 1
    11   13   10 1
    12   14   12 1
    13   15   12 1
    14   16   13 1
    15   17   13 1
    16   24    4 1
    17   25   24 1
    18   26   24 1
    19   27   10 1
    20   28   27 2
    21   29   28 1
    22   30   29 1
    23   31   12 1
    24   32   13 1
    25    9   11 2
    26   24   27 1
@<TRIPOS>SUBSTRUCTURE
     1 RES1 1
     2 SUP2 18

@<TRIPOS>CRYSIN
  10.0872   11.7970    7.7925  90.0000  90.0000  90.0000  62 1

