# MOL2 file generated by ConQuest
# Please check atom types

@<TRIPOS>MOLECULE
DIYRIM
    58    61     1
SMALL
USER_CHARGES
****
Generated from CSD

@<TRIPOS>ATOM
      1 C1         3.9455    4.4649    7.7801 C.3       1 RES1    0.0000
      2 N1         3.2650    3.4144    8.5882 N.pl3     1 RES1    1.0000
      3 O1         1.9568    3.4517    8.5761 O.2       1 RES1   -1.0000
      4 C2         3.3214    5.8186    8.0838 C.3       1 RES1    0.0000
      5 O2         4.3217    6.8303    7.9602 O.3       1 RES1    0.0000
      6 C3         2.3576    6.0936    6.9086 C.3       1 RES1    0.0000
      7 O3         2.8380    7.3105    6.3326 O.3       1 RES1    0.0000
      8 C4         2.5460    4.9047    5.9684 C.3       1 RES1    0.0000
      9 O4         3.7571    4.2287    6.4066 O.3       1 RES1    0.0000
     10 C5         2.6943    5.2637    4.5001 C.3       1 RES1    0.0000
     11 O5         2.6153    4.0609    3.7477 O.3       1 RES1    0.0000
     12 C6         4.0076    5.8776    4.0485 C.3       1 RES1    0.0000
     13 O6         4.1318    5.3663    2.7148 O.3       1 RES1    0.0000
     14 C7         3.9640    2.5518    9.2405 C.2       1 RES1    0.0000
     15 C8         3.2701    1.4935   10.0328 C.3       1 RES1    0.0000
     16 O7         4.2714    0.6170   10.5266 O.3       1 RES1    0.0000
     17 C9         3.9106   -0.1228   11.6384 C.3       1 RES1    0.0000
     18 C10        3.7566    0.7227   12.9061 C.ar      1 RES1    0.0000
     19 C11        2.8277    0.3466   13.8172 C.ar      1 RES1    0.0000
     20 C12        2.6943    0.9977   14.9713 C.ar      1 RES1    0.0000
     21 C13        3.4179    2.0514   15.2829 C.ar      1 RES1    0.0000
     22 C14        4.3160    2.5643   14.3955 C.ar      1 RES1    0.0000
     23 C15        4.5162    1.7810   13.1543 C.ar      1 RES1    0.0000
     24 C16        3.6755    7.9415    7.3153 C.3       1 RES1    0.0000
     25 C17        4.7055    8.7807    6.6075 C.3       1 RES1    0.0000
     26 C18        2.8642    8.7138    8.3215 C.3       1 RES1    0.0000
     27 C19        3.5370    4.1121    2.6620 C.3       1 RES1    0.0000
     28 C20        4.5623    2.9948    2.8442 C.3       1 RES1    0.0000
     29 C21        2.7867    3.9365    1.3812 C.3       1 RES1    0.0000
     30 H1         4.9113    4.4603    7.9491 H         1 RES1    0.0000
     31 H2         2.8739    5.8590    8.9791 H         1 RES1    0.0000
     32 H3         1.5499    6.0765    7.1304 H         1 RES1    0.0000
     33 H4         1.8013    4.3204    6.0213 H         1 RES1    0.0000
     34 H5         2.0323    5.7813    4.2518 H         1 RES1    0.0000
     35 H6         4.6599    5.6569    4.5159 H         1 RES1    0.0000
     36 H7         4.0491    6.7759    4.0670 H         1 RES1    0.0000
     37 H8         5.0807    2.7041    9.3224 H         1 RES1    0.0000
     38 H9         2.6994    1.8960   10.7221 H         1 RES1    0.0000
     39 H10        2.4634    0.9325    9.4280 H         1 RES1    0.0000
     40 H11        3.0689   -0.5455   11.4562 H         1 RES1    0.0000
     41 H12        4.5777   -0.7941   11.7916 H         1 RES1    0.0000
     42 H13        2.2529   -0.4010   13.6323 H         1 RES1    0.0000
     43 H14        2.0477    0.6869   15.6077 H         1 RES1    0.0000
     44 H15        3.3101    2.4601   16.1438 H         1 RES1    0.0000
     45 H16        4.7830    3.3864   14.5619 H         1 RES1    0.0000
     46 H17        5.1987    2.0390   12.5284 H         1 RES1    0.0000
     47 H18        5.2860    9.2003    7.2097 H         1 RES1    0.0000
     48 H19        5.2346    8.1901    6.0477 H         1 RES1    0.0000
     49 H20        4.3365    9.4800    6.1533 H         1 RES1    0.0000
     50 H21        2.5147    9.3712    7.9755 H         1 RES1    0.0000
     51 H22        2.2837    8.0658    8.5037 H         1 RES1    0.0000
     52 H23        3.4846    9.1226    9.1111 H         1 RES1    0.0000
     53 H24        4.1107    2.1571    2.9578 H         1 RES1    0.0000
     54 H25        5.0961    3.1781    3.6233 H         1 RES1    0.0000
     55 H26        5.1320    2.9481    2.0731 H         1 RES1    0.0000
     56 H27        2.4120    3.0523    1.3389 H         1 RES1    0.0000
     57 H28        3.3923    4.0624    0.6470 H         1 RES1    0.0000
     58 H29        2.0785    4.5830    1.3231 H         1 RES1    0.0000
@<TRIPOS>BOND
     1    1    2 1
     2    2    3 1
     3    4    1 1
     4    5    4 1
     5    6    4 1
     6    7    6 1
     7    8    6 1
     8    9    1 1
     9   10    8 1
    10   11   10 1
    11   12   10 1
    12   13   12 1
    13   14    2 2
    14   15   14 1
    15   16   15 1
    16   17   16 1
    17   18   17 1
    18   19   18 ar
    19   20   19 ar
    20   21   20 ar
    21   22   21 ar
    22   23   18 ar
    23   24    5 1
    24   25   24 1
    25   26   24 1
    26   27   11 1
    27   28   27 1
    28   29   27 1
    29   30    1 1
    30   31    4 1
    31   32    6 1
    32   33    8 1
    33   34   10 1
    34   35   12 1
    35   36   12 1
    36   37   14 1
    37   38   15 1
    38   39   15 1
    39   40   17 1
    40   41   17 1
    41   42   19 1
    42   43   20 1
    43   44   21 1
    44   45   22 1
    45   46   23 1
    46   47   25 1
    47   48   25 1
    48   49   25 1
    49   50   26 1
    50   51   26 1
    51   52   26 1
    52   53   28 1
    53   54   28 1
    54   55   28 1
    55   56   29 1
    56   57   29 1
    57   58   29 1
    58    7   24 1
    59    8    9 1
    60   13   27 1
    61   22   23 ar
@<TRIPOS>SUBSTRUCTURE
     1 RES1 1

@<TRIPOS>CRYSIN
   5.1320   15.5410   26.4090  90.0000  90.0000  90.0000  19 1

