# MOL2 file generated by ConQuest
# Please check atom types

@<TRIPOS>MOLECULE
DMEGLY
    16    15     1
SMALL
NO_CHARGES
****
Generated from CSD

@<TRIPOS>ATOM
      1 C1         0.5874    0.3587   -0.3693 C.2       1 RES1    0.0000
      2 C2         1.5576   -0.4316   -1.1582 C.3       1 RES1    0.0000
      3 H1         2.2211   -0.9762   -0.5340 H         1 RES1    0.0000
      4 H2         1.1046   -1.3814   -1.4445 H         1 RES1    0.0000
      5 H3         2.0350    0.2222   -1.9132 H         1 RES1    0.0000
      6 H4         1.5918    3.1412   -0.7686 H         1 RES1    0.0000
      7 N1         0.6512    1.5891   -0.1415 N.2       1 RES1    0.0000
      8 O1         1.7129    2.1296   -0.7116 O.3       1 RES1    0.0000
      9 C1A       -0.5874   -0.3587    0.3693 C.2       1 RES1    0.0000
     10 C2A       -1.5576    0.4316    1.1582 C.3       1 RES1    0.0000
     11 H1A       -2.2211    0.9762    0.5340 H         1 RES1    0.0000
     12 H2A       -1.1046    1.3814    1.4445 H         1 RES1    0.0000
     13 H3A       -2.0350   -0.2222    1.9132 H         1 RES1    0.0000
     14 H4A       -1.5918   -3.1412    0.7686 H         1 RES1    0.0000
     15 N1A       -0.6512   -1.5891    0.1415 N.2       1 RES1    0.0000
     16 O1A       -1.7129   -2.1296    0.7116 O.3       1 RES1    0.0000
@<TRIPOS>BOND
     1    1    2 1
     2    2    3 1
     3    4    2 1
     4    5    2 1
     5    6    8 1
     6    7    1 2
     7    8    7 1
     8    9    1 1
     9   10    9 1
    10   11   10 1
    11   12   10 1
    12   13   10 1
    13   14   16 1
    14   15    9 2
    15   16   15 1
@<TRIPOS>SUBSTRUCTURE
     1 RES1 1

@<TRIPOS>CRYSIN
   6.0530    6.2920    4.4680 122.3600  91.5600  77.6400   2 1

