# MOL2 file generated by ConQuest
# Please check atom types

@<TRIPOS>MOLECULE
DMEGLY03
    16    15     1
SMALL
NO_CHARGES
****
Generated from CSD

@<TRIPOS>ATOM
      1 H1         1.5536    2.9592   -0.6261 H         1 RES1    0.0000
      2 O1         1.7508    2.1745   -0.8239 O.3       1 RES1    0.0000
      3 N1         0.6398    1.5922   -0.1805 N.2       1 RES1    0.0000
      4 C1         0.5799    0.3145   -0.3286 C.2       1 RES1    0.0000
      5 C2         1.5662   -0.4984   -1.0890 C.3       1 RES1    0.0000
      6 H2         2.0472   -1.0852   -0.5208 H         1 RES1    0.0000
      7 H3         1.1298   -1.0044   -1.7620 H         1 RES1    0.0000
      8 H4         2.1917   -0.0262   -1.5116 H         1 RES1    0.0000
      9 C1A       -0.5799   -0.3145    0.3286 C.2       1 RES1    0.0000
     10 N1A       -0.6398   -1.5922    0.1805 N.2       1 RES1    0.0000
     11 C2A       -1.5662    0.4984    1.0890 C.3       1 RES1    0.0000
     12 O1A       -1.7508   -2.1745    0.8239 O.3       1 RES1    0.0000
     13 H2A       -2.0472    1.0852    0.5208 H         1 RES1    0.0000
     14 H3A       -1.1298    1.0044    1.7620 H         1 RES1    0.0000
     15 H4A       -2.1917    0.0262    1.5116 H         1 RES1    0.0000
     16 H1A       -1.5536   -2.9592    0.6261 H         1 RES1    0.0000
@<TRIPOS>BOND
     1    1    2 1
     2    2    3 1
     3    3    4 2
     4    4    5 1
     5    5    6 1
     6    7    5 1
     7    8    5 1
     8    9    4 1
     9   10    9 2
    10   11    9 1
    11   12   10 1
    12   13   11 1
    13   14   11 1
    14   15   11 1
    15   16   12 1
@<TRIPOS>SUBSTRUCTURE
     1 RES1 1

@<TRIPOS>CRYSIN
   6.0780    6.3190    4.4920 122.6900  91.7100  77.7200   2 1

