# MOL2 file generated by ConQuest
# Please check atom types

@<TRIPOS>MOLECULE
DMNPYO
    20    20     1
SMALL
NO_CHARGES
****
Generated from CSD

@<TRIPOS>ATOM
      1 N1         2.7413    2.7413    0.0000 N.pl3     1 RES1    0.0000
      2 C1         1.5072    3.0107    0.5002 C.ar      1 RES1    0.0000
      3 C2         0.5188    2.0625    0.5244 C.ar      1 RES1    0.0000
      4 C3         0.8120    0.8120    0.0000 C.ar      1 RES1    0.0000
      5 O1         3.6523    3.6523    0.0000 O.2       1 RES1    0.0000
      6 C4        -0.8016    2.4316    1.1578 C.3       1 RES1    0.0000
      7 N2        -0.2263   -0.2263    0.0000 N.pl3     1 RES1    0.0000
      8 O2        -1.3323    0.0744   -0.4222 O.2       1 RES1    0.0000
      9 H1         1.3918    3.8704    0.6992 H         1 RES1    0.0000
     10 H2        -1.3546    2.6199    0.5110 H         1 RES1    0.0000
     11 H3        -0.7220    3.3047    1.6540 H         1 RES1    0.0000
     12 H4        -1.0792    1.7491    1.7078 H         1 RES1    0.0000
     13 C1D        3.0107    1.5072   -0.5002 C.ar      1 RES1    0.0000
     14 C2D        2.0625    0.5188   -0.5244 C.ar      1 RES1    0.0000
     15 O2D        0.0744   -1.3323    0.4222 O.2       1 RES1    0.0000
     16 H1D        3.8704    1.3918   -0.6992 H         1 RES1    0.0000
     17 C4D        2.4316   -0.8016   -1.1578 C.3       1 RES1    0.0000
     18 H2D        2.6199   -1.3546   -0.5110 H         1 RES1    0.0000
     19 H3D        3.3047   -0.7220   -1.6540 H         1 RES1    0.0000
     20 H4D        1.7491   -1.0792   -1.7078 H         1 RES1    0.0000
@<TRIPOS>BOND
     1    1    2 ar
     2    2    3 ar
     3    3    4 ar
     4    4    7 1
     5    5    1 1
     6    6    3 1
     7    7    8 2
     8    9    2 1
     9   10    6 1
    10   11    6 1
    11   12    6 1
    12   13    1 ar
    13   14    4 ar
    14   15    7 2
    15   16   13 1
    16   17   14 1
    17   18   17 1
    18   19   17 1
    19   20   17 1
    20   13   14 ar
@<TRIPOS>SUBSTRUCTURE
     1 RES1 1

@<TRIPOS>CRYSIN
   7.4430    7.4430   13.4470  90.0000  90.0000  90.0000  92 1

