# MOL2 file generated by ConQuest
# Please check atom types

@<TRIPOS>MOLECULE
DMNPPO
    30    31     1
SMALL
NO_CHARGES
****
Generated from CSD

@<TRIPOS>ATOM
      1 N1         2.5023   -2.5934   -0.5745 N.am      1 RES1    0.0000
      2 C1         2.7624   -3.2912   -1.8324 C.3       1 RES1    0.0000
      3 C2         3.4188   -2.5219    0.4581 C.2       1 RES1    0.0000
      4 C3         2.7356   -1.8543    1.6497 C.3       1 RES1    0.0000
      5 C4         1.4983   -1.1927    1.0063 C.3       1 RES1    0.0000
      6 C5         1.3892   -1.8153   -0.3580 C.2       1 RES1    0.0000
      7 C6         3.6397   -0.8893    2.4194 C.ar      1 RES1    0.0000
      8 C7         4.6597   -0.0982    1.8862 C.ar      1 RES1    0.0000
      9 C8         5.4711    0.7232    2.6485 C.ar      1 RES1    0.0000
     10 C9         5.2510    0.8160    4.0065 C.ar      1 RES1    0.0000
     11 C10        4.2382    0.0804    4.5760 C.ar      1 RES1    0.0000
     12 C11        3.4732   -0.7693    3.8037 C.ar      1 RES1    0.0000
     13 C12        2.2900   -3.0422    2.5308 C.3       1 RES1    0.0000
     14 O1         4.5297   -2.9872    0.4256 O.2       1 RES1    0.0000
     15 O2         0.4964   -1.6692   -1.1590 O.2       1 RES1    0.0000
     16 N2         4.9179   -0.0497    0.4393 N.pl3     1 RES1    0.0000
     17 O3         3.9583   -0.1070   -0.3179 O.2       1 RES1    0.0000
     18 O4         6.0698    0.0686    0.0638 O.2       1 RES1    0.0000
     19 H1         2.7438   -2.6845   -2.5158 H         1 RES1    0.0000
     20 H2         3.6089   -3.6779   -1.7899 H         1 RES1    0.0000
     21 H3         2.0556   -3.8553   -2.0026 H         1 RES1    0.0000
     22 H4         0.6526   -1.3718    1.5270 H         1 RES1    0.0000
     23 H5         1.6513   -0.2424    0.8636 H         1 RES1    0.0000
     24 H6         6.1279    1.2003    2.2404 H         1 RES1    0.0000
     25 H7         5.7993    1.3896    4.5310 H         1 RES1    0.0000
     26 H8         4.0510    0.1242    5.4947 H         1 RES1    0.0000
     27 H9         2.8108   -1.2890    4.2306 H         1 RES1    0.0000
     28 H10        1.8283   -3.6897    1.9651 H         1 RES1    0.0000
     29 H11        3.0363   -3.4532    2.9539 H         1 RES1    0.0000
     30 H12        1.6407   -2.7436    3.2292 H         1 RES1    0.0000
@<TRIPOS>BOND
     1    1    2 1
     2    2   19 1
     3    3    1 1
     4    4    3 1
     5    5    4 1
     6    6    1 1
     7    7    4 1
     8    8    7 ar
     9    9    8 ar
    10   10    9 ar
    11   11   10 ar
    12   12    7 ar
    13   13    4 1
    14   14    3 2
    15   15    6 2
    16   16    8 1
    17   17   16 2
    18   18   16 2
    19   20    2 1
    20   21    2 1
    21   22    5 1
    22   23    5 1
    23   24    9 1
    24   25   10 1
    25   26   11 1
    26   27   12 1
    27   28   13 1
    28   29   13 1
    29   30   13 1
    30    5    6 1
    31   11   12 ar
@<TRIPOS>SUBSTRUCTURE
     1 RES1 1

@<TRIPOS>CRYSIN
  16.0430    5.9130   13.8070  90.0000 114.9700  90.0000  14 1

