# MOL2 file generated by ConQuest
# Please check atom types

@<TRIPOS>MOLECULE
DMNPYO01
    20    20     1
SMALL
NO_CHARGES
****
Generated from CSD

@<TRIPOS>ATOM
      1 N1        -2.6985    4.7793    1.4101 N.pl3     1 RES1    0.0000
      2 C1        -3.9049    5.1476    1.8950 C.ar      1 RES1    0.0000
      3 C2        -4.8811    5.6472    1.0735 C.ar      1 RES1    0.0000
      4 C3        -4.5887    5.7620   -0.2812 C.ar      1 RES1    0.0000
      5 C4        -3.3464    5.3967   -0.8020 C.ar      1 RES1    0.0000
      6 C5        -2.4200    4.9060    0.0873 C.ar      1 RES1    0.0000
      7 O1        -1.7846    4.3126    2.2108 O.2       1 RES1    0.0000
      8 C6        -6.1886    6.0856    1.6913 C.3       1 RES1    0.0000
      9 C7        -2.9778    5.4444   -2.2593 C.3       1 RES1    0.0000
     10 N2        -5.6360    6.2675   -1.1927 N.pl3     1 RES1    0.0000
     11 O2        -6.7427    5.7575   -1.1206 O.2       1 RES1    0.0000
     12 O3        -5.3421    7.1637   -1.9490 O.2       1 RES1    0.0000
     13 H1        -4.0896    5.0701    2.8258 H         1 RES1    0.0000
     14 H2        -1.5244    4.6227   -0.1939 H         1 RES1    0.0000
     15 H3        -6.5375    6.9788    1.4960 H         1 RES1    0.0000
     16 H4        -6.8380    5.3683    1.5237 H         1 RES1    0.0000
     17 H5        -5.9878    6.1437    2.7150 H         1 RES1    0.0000
     18 H6        -2.0155    5.0701   -2.4657 H         1 RES1    0.0000
     19 H7        -3.6645    5.0701   -2.8258 H         1 RES1    0.0000
     20 H8        -3.0855    6.3227   -2.6319 H         1 RES1    0.0000
@<TRIPOS>BOND
     1    1    2 ar
     2    2    3 ar
     3    3    4 ar
     4    4    5 ar
     5    5    6 ar
     6    6    1 ar
     7    7    1 1
     8    8    3 1
     9    9    5 1
    10   10    4 1
    11   11   10 2
    12   12   10 2
    13   13    2 1
    14   14    6 1
    15   15    8 1
    16   16    8 1
    17   17    8 1
    18   18    9 1
    19   19    9 1
    20   20    9 1
@<TRIPOS>SUBSTRUCTURE
     1 RES1 1

@<TRIPOS>CRYSIN
   7.3290   14.9120   13.8520  90.0000  90.0000  90.0000  61 1

