# MOL2 file generated by ConQuest
# Please check atom types

@<TRIPOS>MOLECULE
DNBENZ14
    16    16     1
SMALL
NO_CHARGES
****
Generated from CSD

@<TRIPOS>ATOM
      1 C1         1.8964    4.7943    2.1097 C.ar      1 RES1    0.0000
      2 C2         0.7129    4.2465    1.6514 C.ar      1 RES1    0.0000
      3 H1         0.0281    4.7682    1.3005 H         1 RES1    0.0000
      4 C3         0.6144    2.8677    1.7501 C.ar      1 RES1    0.0000
      5 C4         1.6302    2.0691    2.2398 C.ar      1 RES1    0.0000
      6 H2         1.5279    1.1457    2.2832 H         1 RES1    0.0000
      7 C5         2.8047    2.6720    2.6652 C.ar      1 RES1    0.0000
      8 H3         3.5032    2.1497    2.9874 H         1 RES1    0.0000
      9 C6         2.9410    4.0474    2.6125 C.ar      1 RES1    0.0000
     10 H4         3.7198    4.4596    2.9097 H         1 RES1    0.0000
     11 N1        -0.6403    2.2460    1.2885 N.pl3     1 RES1    0.0000
     12 N2         2.0501    6.2583    2.0540 N.pl3     1 RES1    0.0000
     13 O1         2.9987    6.7560    2.6469 O.2       1 RES1    0.0000
     14 O2         1.2368    6.9087    1.4201 O.2       1 RES1    0.0000
     15 O3        -1.4090    2.9218    0.6366 O.2       1 RES1    0.0000
     16 O4        -0.8536    1.0890    1.6137 O.2       1 RES1    0.0000
@<TRIPOS>BOND
     1    1    2 ar
     2    2    3 1
     3    4    2 ar
     4    5    4 ar
     5    6    5 1
     6    7    5 ar
     7    8    7 1
     8    9    1 ar
     9   10    9 1
    10   11    4 1
    11   12    1 1
    12   13   12 2
    13   14   12 2
    14   15   11 2
    15   16   11 2
    16    7    9 ar
@<TRIPOS>SUBSTRUCTURE
     1 RES1 1

@<TRIPOS>CRYSIN
  14.0690   13.2450    3.7380  90.0000  90.0000  90.0000  33 1

