# MOL2 file generated by ConQuest
# Please check atom types

@<TRIPOS>MOLECULE
DNBENZ11
    16    16     1
SMALL
NO_CHARGES
****
Generated from CSD

@<TRIPOS>ATOM
      1 C1         1.8973    8.3905    0.3284 C.ar      1 RES1    0.0000
      2 C2         0.7102    8.9537   -0.1147 C.ar      1 RES1    0.0000
      3 H1         0.0168    8.4391   -0.4611 H         1 RES1    0.0000
      4 C3         0.6225   10.3321   -0.0092 C.ar      1 RES1    0.0000
      5 C4         1.6487   11.1309    0.4802 C.ar      1 RES1    0.0000
      6 H2         1.5482   12.0536    0.5379 H         1 RES1    0.0000
      7 C5         2.8268   10.5163    0.8810 C.ar      1 RES1    0.0000
      8 H3         3.5355   11.0347    1.1888 H         1 RES1    0.0000
      9 C6         2.9567    9.1349    0.8262 C.ar      1 RES1    0.0000
     10 H4         3.7360    8.7186    1.1167 H         1 RES1    0.0000
     11 N1         2.0382    6.9267    0.2787 N.pl3     1 RES1    0.0000
     12 N2        -0.6326   10.9673   -0.4445 N.pl3     1 RES1    0.0000
     13 O1         2.9816    6.4225    0.8770 O.2       1 RES1    0.0000
     14 O2         1.2164    6.2872   -0.3585 O.2       1 RES1    0.0000
     15 O3        -1.4025   10.2996   -1.1244 O.2       1 RES1    0.0000
     16 O4        -0.8444   12.1177   -0.0960 O.2       1 RES1    0.0000
@<TRIPOS>BOND
     1    1    2 ar
     2    2    3 1
     3    4    2 ar
     4    5    4 ar
     5    6    5 1
     6    7    5 ar
     7    8    7 1
     8    9    1 ar
     9   10    9 1
    10   11    1 1
    11   12    4 1
    12   13   11 2
    13   14   11 2
    14   15   12 2
    15   16   12 2
    16    7    9 ar
@<TRIPOS>SUBSTRUCTURE
     1 RES1 1

@<TRIPOS>CRYSIN
  14.0240   13.1820    3.6770  90.0000  90.0000  90.0000  33 1

