# MOL2 file generated by ConQuest
# Please check atom types

@<TRIPOS>MOLECULE
DNBENZ12
    16    16     1
SMALL
NO_CHARGES
****
Generated from CSD

@<TRIPOS>ATOM
      1 C1         5.1236    8.4142    0.4193 C.ar      1 RES1    0.0000
      2 C2         6.3073    8.9738   -0.0266 C.ar      1 RES1    0.0000
      3 H1         6.9989    8.4571   -0.3731 H         1 RES1    0.0000
      4 C3         6.3975   10.3506    0.0750 C.ar      1 RES1    0.0000
      5 C4         5.3756   11.1457    0.5637 C.ar      1 RES1    0.0000
      6 H2         5.4756   12.0695    0.6162 H         1 RES1    0.0000
      7 C5         4.1984   10.5347    0.9745 C.ar      1 RES1    0.0000
      8 H3         3.4932   11.0525    1.2911 H         1 RES1    0.0000
      9 C6         4.0694    9.1592    0.9146 C.ar      1 RES1    0.0000
     10 H4         3.2882    8.7437    1.2020 H         1 RES1    0.0000
     11 N1         4.9775    6.9489    0.3683 N.pl3     1 RES1    0.0000
     12 N2         7.6538   10.9887   -0.3664 N.pl3     1 RES1    0.0000
     13 O1         4.0366    6.4444    0.9623 O.2       1 RES1    0.0000
     14 O2         5.8030    6.3033   -0.2663 O.2       1 RES1    0.0000
     15 O3         8.4239   10.3141   -1.0369 O.2       1 RES1    0.0000
     16 O4         7.8662   12.1419   -0.0218 O.2       1 RES1    0.0000
@<TRIPOS>BOND
     1    1    2 ar
     2    2    3 1
     3    4    2 ar
     4    5    4 ar
     5    6    5 1
     6    7    5 ar
     7    8    7 1
     8    9    1 ar
     9   10    9 1
    10   11    1 1
    11   12    4 1
    12   13   11 2
    13   14   11 2
    14   15   12 2
    15   16   12 2
    16    7    9 ar
@<TRIPOS>SUBSTRUCTURE
     1 RES1 1

@<TRIPOS>CRYSIN
  14.0400   13.2080    3.6940  90.0000  90.0000  90.0000  33 1

