# MOL2 file generated by ConQuest
# Please check atom types

@<TRIPOS>MOLECULE
DNBENZ10
    16    16     1
SMALL
NO_CHARGES
****
Generated from CSD

@<TRIPOS>ATOM
      1 C1         1.8547    5.1303   -0.1134 C.ar      1 RES1    0.0000
      2 C2         2.3863    6.3118   -0.5606 C.ar      1 RES1    0.0000
      3 C3         3.7491    6.4284   -0.4560 C.ar      1 RES1    0.0000
      4 C4         4.5737    5.4225   -0.0141 C.ar      1 RES1    0.0000
      5 C5         3.9771    4.2734    0.4784 C.ar      1 RES1    0.0000
      6 C6         2.6130    4.1217    0.4190 C.ar      1 RES1    0.0000
      7 H1         1.8427    6.8695   -1.3702 H         1 RES1    0.0000
      8 H2         5.4221    5.6052    0.1104 H         1 RES1    0.0000
      9 H3         4.3218    3.4558    0.3045 H         1 RES1    0.0000
     10 H4         2.1741    3.3575    0.5366 H         1 RES1    0.0000
     11 N1         0.3818    4.9603   -0.1583 N.pl3     1 RES1    0.0000
     12 N2         4.3708    7.6829   -0.9538 N.pl3     1 RES1    0.0000
     13 O1        -0.0888    4.0037    0.4826 O.2       1 RES1    0.0000
     14 O2        -0.2651    5.7709   -0.7559 O.2       1 RES1    0.0000
     15 O3         3.6536    8.4414   -1.5730 O.2       1 RES1    0.0000
     16 O4         5.5162    7.9048   -0.5755 O.2       1 RES1    0.0000
@<TRIPOS>BOND
     1    1    2 ar
     2    2    3 ar
     3    3    4 ar
     4    4    5 ar
     5    5    6 ar
     6    6    1 ar
     7    7    2 1
     8    8    4 1
     9    9    5 1
    10   10    6 1
    11   11    1 1
    12   12    3 1
    13   13   11 2
    14   14   11 2
    15   15   12 2
    16   16   12 2
@<TRIPOS>SUBSTRUCTURE
     1 RES1 1

@<TRIPOS>CRYSIN
  13.2570   14.0480    3.8060  90.0000  90.0000  90.0000  33 5

