# MOL2 file generated by ConQuest
# Please check atom types

@<TRIPOS>MOLECULE
DNBOIM
    31    32     1
SMALL
NO_CHARGES
****
Generated from CSD

@<TRIPOS>ATOM
      1 C1         2.3627    6.2273    8.3510 C.3       1 RES1    0.0000
      2 C2         2.2109    7.4113    9.2448 C.2       1 RES1    0.0000
      3 C3         2.1735    8.6557    8.4062 C.3       1 RES1    0.0000
      4 C4         2.3467    8.0111    7.0195 C.3       1 RES1    0.0000
      5 C5         3.8122    7.5551    6.9029 C.3       1 RES1    0.0000
      6 C6         3.8343    6.3702    7.8580 C.3       1 RES1    0.0000
      7 C7         1.5411    6.7057    7.1136 C.3       1 RES1    0.0000
      8 C8         0.0908    6.9105    7.3917 C.3       1 RES1    0.0000
      9 C9         1.7020    5.7604    5.9130 C.3       1 RES1    0.0000
     10 C10        2.0202    4.9056    8.9461 C.3       1 RES1    0.0000
     11 N1         2.1560    7.2691   10.5026 N.2       1 RES1    0.0000
     12 N2         2.0743    8.5259   11.2348 N.pl3     1 RES1    0.0000
     13 N3         1.9706    8.9347    5.9252 N.pl3     1 RES1    0.0000
     14 O1         0.9613    8.9185   11.4353 O.2       1 RES1    0.0000
     15 O2         3.1370    9.0228   11.6112 O.2       1 RES1    0.0000
     16 O3         2.1201    8.6225    4.7696 O.2       1 RES1    0.0000
     17 O4         1.2611    9.8421    6.1789 O.2       1 RES1    0.0000
     18 H1         2.8838    9.3444    8.6107 H         1 RES1    0.0000
     19 H2         1.2893    9.1434    8.4880 H         1 RES1    0.0000
     20 H3         4.5698    8.0845    7.2404 H         1 RES1    0.0000
     21 H4         4.0052    7.2884    5.9314 H         1 RES1    0.0000
     22 H5         4.5011    6.4383    8.6107 H         1 RES1    0.0000
     23 H6        -0.2975    5.9745    7.6290 H         1 RES1    0.0000
     24 H7        -0.0534    7.4276    8.2835 H         1 RES1    0.0000
     25 H8        -0.6103    7.2807    6.7495 H         1 RES1    0.0000
     26 H9         1.2130    4.8925    6.1564 H         1 RES1    0.0000
     27 H10        1.2283    6.1136    5.0723 H         1 RES1    0.0000
     28 H11        2.6320    5.5185    5.6450 H         1 RES1    0.0000
     29 H12        2.8838    5.0548    9.5720 H         1 RES1    0.0000
     30 H13        1.2817    4.4905    9.5925 H         1 RES1    0.0000
     31 H14        2.2506    4.1118    8.2426 H         1 RES1    0.0000
@<TRIPOS>BOND
     1    1    2 1
     2    2    3 1
     3    3    4 1
     4    4    5 1
     5    5    6 1
     6    6    1 1
     7    7    1 1
     8    8    7 1
     9    9    7 1
    10   10    1 1
    11   11    2 2
    12   12   11 1
    13   13    4 1
    14   14   12 2
    15   15   12 2
    16   16   13 2
    17   17   13 2
    18   18    3 1
    19   19    3 1
    20   20    5 1
    21   21    5 1
    22   22    6 1
    23   23    8 1
    24   24    8 1
    25   25    8 1
    26   26    9 1
    27   27    9 1
    28   28    9 1
    29   29   10 1
    30   30   10 1
    31   31   10 1
    32    4    7 1
@<TRIPOS>SUBSTRUCTURE
     1 RES1 1

@<TRIPOS>CRYSIN
   7.6290    7.7290   20.4530  90.0000  90.0000  90.0000  19 1

