# MOL2 file generated by ConQuest
# Please check atom types

@<TRIPOS>MOLECULE
DNBZIL
    30    31     1
SMALL
NO_CHARGES
****
Generated from CSD

@<TRIPOS>ATOM
      1 O1         6.4806    9.1801    2.6636 O.2       1 RES1    0.0000
      2 C1         7.1903    9.2731    3.6423 C.2       1 RES1    0.0000
      3 C2         7.9589    8.1254    4.2009 C.ar      1 RES1    0.0000
      4 C3         7.8786    6.8978    3.5540 C.ar      1 RES1    0.0000
      5 C4         8.6205    5.8240    4.0047 C.ar      1 RES1    0.0000
      6 C5         9.4185    6.0108    5.1078 C.ar      1 RES1    0.0000
      7 C6         9.5197    7.2015    5.7724 C.ar      1 RES1    0.0000
      8 C7         8.7764    8.2814    5.3034 C.ar      1 RES1    0.0000
      9 N1        10.2412    4.8655    5.5965 N.pl3     1 RES1    0.0000
     10 O2        10.3046    3.8957    4.8815 O.2       1 RES1    0.0000
     11 O3        10.7734    4.9547    6.6830 O.2       1 RES1    0.0000
     12 O4         6.7358   10.7074    5.4444 O.2       1 RES1    0.0000
     13 C8         7.2348   10.6348    4.3425 C.2       1 RES1    0.0000
     14 C9         7.8016   11.8145    3.6288 C.ar      1 RES1    0.0000
     15 C10        7.7482   13.0660    4.2419 C.ar      1 RES1    0.0000
     16 C11        8.2651   14.1811    3.6263 C.ar      1 RES1    0.0000
     17 C12        8.8416   14.0219    2.3828 C.ar      1 RES1    0.0000
     18 C13        8.9326   12.8031    1.7531 C.ar      1 RES1    0.0000
     19 C14        8.3971   11.6871    2.3779 C.ar      1 RES1    0.0000
     20 N2         9.4148   15.2113    1.7151 N.pl3     1 RES1    0.0000
     21 O5         9.3168   16.2886    2.2626 O.2       1 RES1    0.0000
     22 O6         9.9908   15.0607    0.6494 O.2       1 RES1    0.0000
     23 H1         7.3571    6.8272    2.8451 H         1 RES1    0.0000
     24 H2         8.5293    4.9866    3.5503 H         1 RES1    0.0000
     25 H3        10.1239    7.3326    6.5303 H         1 RES1    0.0000
     26 H4         8.8723    9.1006    5.7516 H         1 RES1    0.0000
     27 H5         7.3697   13.1072    5.0464 H         1 RES1    0.0000
     28 H6         8.2624   15.0236    4.0224 H         1 RES1    0.0000
     29 H7         9.3395   12.7416    0.9504 H         1 RES1    0.0000
     30 H8         8.3825   10.8434    1.9315 H         1 RES1    0.0000
@<TRIPOS>BOND
     1    1    2 2
     2    2    3 1
     3    3    4 ar
     4    4    5 ar
     5    5    6 ar
     6    6    7 ar
     7    7    8 ar
     8    8    3 ar
     9    9    6 1
    10   10    9 2
    11   11    9 2
    12   12   13 2
    13   13    2 1
    14   14   13 1
    15   15   14 ar
    16   16   15 ar
    17   17   16 ar
    18   18   17 ar
    19   19   14 ar
    20   20   17 1
    21   21   20 2
    22   22   20 2
    23   23    4 1
    24   24    5 1
    25   25    7 1
    26   26    8 1
    27   27   15 1
    28   28   16 1
    29   29   18 1
    30   30   19 1
    31   18   19 ar
@<TRIPOS>SUBSTRUCTURE
     1 RES1 1

@<TRIPOS>CRYSIN
   7.8290   13.4670    7.1870  94.0700  59.1400  87.3500   2 1

