# MOL2 file generated by ConQuest
# Please check atom types

@<TRIPOS>MOLECULE
DNBZPY03
    55    29     2
SMALL
NO_CHARGES
****
Generated from CSD

@<TRIPOS>ATOM
      1 O1         2.5480   -3.9332    5.3650 O.2       1 RES1    0.0000
      2 O2        -0.9238   -5.6898    2.7499 O.2       1 RES1    0.0000
      3 O3         3.6914   -2.1856    4.5038 O.2       1 RES1    0.0000
      4 O4        -1.9625   -4.4348    1.2439 O.2       1 RES1    0.0000
      5 N1         1.3684   -0.5141    6.0551 N.ar      1 RES1    0.0000
      6 N2        -1.1100   -4.6313    2.1743 N.pl3     1 RES1    0.0000
      7 C1         1.5353   -2.5521    3.8024 C.ar      1 RES1    0.0000
      8 C2         1.2390   -1.2487    3.3511 C.ar      1 RES1    0.0000
      9 C3         2.0918    0.3133    5.1744 C.ar      1 RES1    0.0000
     10 C4         2.6180    1.7993    7.0051 C.ar      1 RES1    0.0000
     11 H1         3.0876    2.5491    7.3509 H         1 RES1    0.0000
     12 C5         0.7686   -3.6746    3.4664 C.ar      1 RES1    0.0000
     13 H2         0.9751   -4.5354    3.8115 H         1 RES1    0.0000
     14 C6         0.1008   -1.1209    2.5344 C.ar      1 RES1    0.0000
     15 H3        -0.1578   -0.2525    2.2466 H         1 RES1    0.0000
     16 C7        -0.6650   -2.2160    2.1276 C.ar      1 RES1    0.0000
     17 H4        -1.4059   -2.1050    1.5430 H         1 RES1    0.0000
     18 C8         2.6555    1.5133    5.5948 C.ar      1 RES1    0.0000
     19 H5         3.0480    2.1187    4.9770 H         1 RES1    0.0000
     20 C9         2.0278   -0.0471    3.7324 C.3       1 RES1    0.0000
     21 C10        1.8929    0.9749    7.8640 C.ar      1 RES1    0.0000
     22 H6         1.8123    1.1818    8.7877 H         1 RES1    0.0000
     23 C11       -0.3093   -3.4799    2.6068 C.ar      1 RES1    0.0000
     24 C12        1.3034   -0.1369    7.3411 C.ar      1 RES1    0.0000
     25 H7         0.8061   -0.6875    7.9341 H         1 RES1    0.0000
     26 H8         1.7121    0.6935    3.2170 H         1 RES1    0.0000
     27 H9         3.0883   -0.2677    3.4204 H         1 RES1    0.0000
     28 O5         2.6274   -3.7217    5.5345 Du        2 SUP2    0.0000
     29 O6        -1.0995   -5.6275    2.5887 Du        2 SUP2    0.0000
     30 O7         3.6769   -2.3210    4.5875 Du        2 SUP2    0.0000
     31 O8        -1.7992   -4.3910    1.0216 Du        2 SUP2    0.0000
     32 N3         1.5395   -0.5430    6.0370 Du        2 SUP2    0.0000
     33 H10        1.2471   -1.3263    5.7635 Du        2 SUP2    0.0000
     34 N4        -1.1872   -4.5172    1.9988 Du        2 SUP2    0.0000
     35 C13        1.3048   -1.3506    3.3767 Du        2 SUP2    0.0000
     36 C14        0.2367   -1.0905    2.4877 Du        2 SUP2    0.0000
     37 H11        0.0897   -0.1992    2.1901 Du        2 SUP2    0.0000
     38 C15        2.0103    0.2555    5.2693 Du        2 SUP2    0.0000
     39 C16        2.5963    1.9407    6.8612 Du        2 SUP2    0.0000
     40 H12        2.8813    2.8229    7.0707 Du        2 SUP2    0.0000
     41 C17        1.4431   -2.6890    3.7843 Du        2 SUP2    0.0000
     42 C18       -0.5954   -2.0928    2.0425 Du        2 SUP2    0.0000
     43 H13       -1.3024   -1.9012    1.4375 Du        2 SUP2    0.0000
     44 C19       -0.3855   -3.3704    2.4870 Du        2 SUP2    0.0000
     45 C20        2.7392    1.4099    5.6663 Du        2 SUP2    0.0000
     46 H14        3.3462    1.8084    5.0531 Du        2 SUP2    0.0000
     47 C21        2.2014   -0.1141    3.7015 Du        2 SUP2    0.0000
     48 H15        2.7619    0.3437    3.0867 Du        2 SUP2    0.0000
     49 C22        1.9918    1.1027    7.7917 Du        2 SUP2    0.0000
     50 H16        1.9149    1.3658    8.7018 Du        2 SUP2    0.0000
     51 C23        0.6382   -3.6928    3.3632 Du        2 SUP2    0.0000
     52 H17        0.7699   -4.5872    3.6578 Du        2 SUP2    0.0000
     53 C24        1.4811   -0.1795    7.3502 Du        2 SUP2    0.0000
     54 H18        1.1003   -0.7757    7.9845 Du        2 SUP2    0.0000
     55 N5         2.6682   -2.9121    4.6505 N.pl3     1 RES1    0.0000
@<TRIPOS>BOND
     1    1   55 2
     2    2    6 2
     3    3   55 2
     4    4    6 2
     5    5    9 ar
     6    6   23 1
     7    7    8 ar
     8    8   14 ar
     9    9   18 ar
    10   10   11 1
    11   12    7 ar
    12   13   12 1
    13   14   15 1
    14   16   14 ar
    15   17   16 1
    16   18   10 ar
    17   19   18 1
    18   20    8 1
    19   21   10 ar
    20   22   21 1
    21   23   12 ar
    22   24    5 ar
    23   25   24 1
    24   26   20 1
    25   27   20 1
    26   55    7 1
    27    9   20 1
    28   16   23 ar
    29   21   24 ar
@<TRIPOS>SUBSTRUCTURE
     1 RES1 1
     2 SUP2 28

@<TRIPOS>CRYSIN
   9.9727   15.2094    7.6778  90.0000 101.1060  90.0000  14 1

