# MOL2 file generated by ConQuest
# Please check atom types

@<TRIPOS>MOLECULE
DNBZPY02
    28    29     1
SMALL
NO_CHARGES
****
Generated from CSD

@<TRIPOS>ATOM
      1 O1         9.4079   -2.2276    0.7646 O.2       1 RES1    0.0000
      2 O2         8.2939   -3.8668    1.6510 O.2       1 RES1    0.0000
      3 O3         4.7446   -5.6682   -1.0670 O.2       1 RES1    0.0000
      4 O4         3.8148   -4.4205   -2.5919 O.2       1 RES1    0.0000
      5 N1         7.1465   -0.5248    2.2815 N.ar      1 RES1    0.0000
      6 N2         8.3923   -2.9098    0.8845 N.pl3     1 RES1    0.0000
      7 N3         4.5896   -4.5942   -1.6473 N.pl3     1 RES1    0.0000
      8 C1         7.0833   -0.1493    3.5754 C.ar      1 RES1    0.0000
      9 H1         6.6241   -0.7178    4.1822 H         1 RES1    0.0000
     10 C2         7.6466    1.0151    4.0749 C.ar      1 RES1    0.0000
     11 H2         7.5673    1.2394    4.9947 H         1 RES1    0.0000
     12 C3         8.3312    1.8462    3.1941 C.ar      1 RES1    0.0000
     13 H3         8.7396    2.6461    3.5024 H         1 RES1    0.0000
     14 C4         8.4058    1.4818    1.8511 C.ar      1 RES1    0.0000
     15 H4         8.8682    2.0287    1.2270 H         1 RES1    0.0000
     16 C5         7.7880    0.2950    1.4371 C.ar      1 RES1    0.0000
     17 C6         7.8033   -0.0655   -0.0430 C.3       1 RES1    0.0000
     18 C7         6.9814   -1.2822   -0.4094 C.ar      1 RES1    0.0000
     19 C8         7.2295   -2.5929    0.0302 C.ar      1 RES1    0.0000
     20 C9         6.4489   -3.6807   -0.3329 C.ar      1 RES1    0.0000
     21 H5         6.6315   -4.5532   -0.0038 H         1 RES1    0.0000
     22 C10        5.3896   -3.4410   -1.1974 C.ar      1 RES1    0.0000
     23 C11        5.0831   -2.1764   -1.6668 C.ar      1 RES1    0.0000
     24 H6         4.3535   -2.0409   -2.2603 H         1 RES1    0.0000
     25 C12        5.8696   -1.1092   -1.2484 C.ar      1 RES1    0.0000
     26 H7         5.6467   -0.2327   -1.5405 H         1 RES1    0.0000
     27 H8         8.7078   -0.2129   -0.3512 H         1 RES1    0.0000
     28 H9         7.4693    0.6585   -0.5208 H         1 RES1    0.0000
@<TRIPOS>BOND
     1    1    6 2
     2    2    6 2
     3    3    7 2
     4    4    7 2
     5    5    8 ar
     6    6   19 1
     7    7   22 1
     8    8    9 1
     9   10    8 ar
    10   11   10 1
    11   12   10 ar
    12   13   12 1
    13   14   12 ar
    14   15   14 1
    15   16    5 ar
    16   17   16 1
    17   18   17 1
    18   19   18 ar
    19   20   19 ar
    20   21   20 1
    21   22   20 ar
    22   23   22 ar
    23   24   23 1
    24   25   18 ar
    25   26   25 1
    26   27   17 1
    27   28   17 1
    28   14   16 ar
    29   23   25 ar
@<TRIPOS>SUBSTRUCTURE
     1 RES1 1

@<TRIPOS>CRYSIN
   9.9666   15.2076    7.6800  90.0000 101.0790  90.0000  14 1

