# MOL2 file generated by ConQuest
# Please check atom types

@<TRIPOS>MOLECULE
DNBZFX01
    18    19     1
SMALL
NO_CHARGES
****
Generated from CSD

@<TRIPOS>ATOM
      1 O1        -3.4007   -0.3519    2.5016 O.3       1 RES1    0.0000
      2 O2        -4.3127    1.1653    1.0873 O.2       1 RES1    0.0000
      3 O3         0.0671   -0.7651    4.6138 O.2       1 RES1    0.0000
      4 O4         1.6625    0.6896    4.6511 O.2       1 RES1    0.0000
      5 O5         1.2781    4.4322    1.6007 O.2       1 RES1    0.0000
      6 O6        -0.6000    4.9140    0.6615 O.2       1 RES1    0.0000
      7 N1        -3.3636    0.8245    1.7758 N.pl3     1 RES1    0.0000
      8 N2        -2.1886   -0.4756    3.2312 N.2       1 RES1    0.0000
      9 N3         0.5970    0.2851    4.2709 N.pl3     1 RES1    0.0000
     10 N4         0.1220    4.2157    1.3398 N.pl3     1 RES1    0.0000
     11 C1        -1.4519    0.6092    2.8948 C.2       1 RES1    0.0000
     12 C2        -0.1748    1.0638    3.2964 C.2       1 RES1    0.0000
     13 C3         0.3351    2.2266    2.8007 C.2       1 RES1    0.0000
     14 H1         1.1824    2.5179    3.0523 H         1 RES1    0.0000
     15 C4        -0.4383    2.9700    1.9109 C.2       1 RES1    0.0000
     16 C5        -1.6784    2.6163    1.4842 C.2       1 RES1    0.0000
     17 H2        -2.1699    3.1278    0.8833 H         1 RES1    0.0000
     18 C6        -2.1515    1.4219    2.0218 C.2       1 RES1    0.0000
@<TRIPOS>BOND
     1    1    7 1
     2    2    7 1
     3    3    9 2
     4    4    9 2
     5    5   10 2
     6    6   10 2
     7    7   18 2
     8    8    1 1
     9    9   12 1
    10   10   15 1
    11   11    8 2
    12   12   11 1
    13   13   12 2
    14   14   13 1
    15   15   13 1
    16   16   15 2
    17   17   16 1
    18   18   11 1
    19   16   18 1
@<TRIPOS>SUBSTRUCTURE
     1 RES1 1

@<TRIPOS>CRYSIN
   7.4080    6.1850    9.7960  90.0000 107.9900  90.0000   4 1

