# MOL2 file generated by ConQuest
# Please check atom types

@<TRIPOS>MOLECULE
DNCOOC
    20    20     1
SMALL
NO_CHARGES
****
Generated from CSD

@<TRIPOS>ATOM
      1 C1         1.5294    0.3019    2.9449 C.2       1 RES1    0.0000
      2 C2         1.0982    0.8491    1.6300 C.2       1 RES1    0.0000
      3 C3         1.8429    0.8443    0.5535 C.2       1 RES1    0.0000
      4 C4         3.1661    0.2217    0.4783 C.2       1 RES1    0.0000
      5 C5         4.2749    0.5094    1.1501 C.2       1 RES1    0.0000
      6 C6         4.3797    1.4811    2.2170 C.2       1 RES1    0.0000
      7 C7         3.6315    1.5000    3.3288 C.2       1 RES1    0.0000
      8 C8         2.5687    0.5943    3.6823 C.2       1 RES1    0.0000
      9 N1         0.5408   -0.6509    3.5095 N.pl3     1 RES1    0.0000
     10 N2         3.2863   -0.7453   -0.6286 N.pl3     1 RES1    0.0000
     11 O1         0.7541   -1.1651    4.5765 O.2       1 RES1    0.0000
     12 O2        -0.4631   -0.8632    2.8425 O.2       1 RES1    0.0000
     13 O3         2.3059   -0.9245   -1.3149 O.2       1 RES1    0.0000
     14 O4         4.3326   -1.3585   -0.8094 O.2       1 RES1    0.0000
     15 H1         0.2769    1.3019    1.6700 H         1 RES1    0.0000
     16 H2         1.3833    1.1038   -0.4559 H         1 RES1    0.0000
     17 H3         5.0066   -0.0566    0.8142 H         1 RES1    0.0000
     18 H4         5.1704    2.1227    2.2218 H         1 RES1    0.0000
     19 H5         3.9909    2.1038    4.1350 H         1 RES1    0.0000
     20 H6         2.7172    0.1274    4.6644 H         1 RES1    0.0000
@<TRIPOS>BOND
     1    1    2 1
     2    2    3 2
     3    3    4 1
     4    4    5 2
     5    5    6 1
     6    6    7 2
     7    7    8 1
     8    8    1 2
     9    9    1 1
    10   10    4 1
    11   11    9 2
    12   12    9 2
    13   13   10 2
    14   14   10 2
    15   15    2 1
    16   16    3 1
    17   17    5 1
    18   18    6 1
    19   19    7 1
    20   20    8 1
@<TRIPOS>SUBSTRUCTURE
     1 RES1 1

@<TRIPOS>CRYSIN
  11.7830    4.7170   15.9960  90.0000  90.0000  90.0000  33 4

