# MOL2 file generated by ConQuest
# Please check atom types

@<TRIPOS>MOLECULE
DNEDAM
    16    15     1
SMALL
NO_CHARGES
****
Generated from CSD

@<TRIPOS>ATOM
      1 C1         0.3706    0.0174    0.6682 C.3       1 RES1    0.0000
      2 H1         0.3346   -0.7990    1.1789 H         1 RES1    0.0000
      3 H2         0.0874    0.8349    1.1801 H         1 RES1    0.0000
      4 H3         2.2795   -0.3986    0.3313 H         1 RES1    0.0000
      5 N1         1.7971    0.2555    0.4485 N.pl3     1 RES1    0.0000
      6 N2         2.2985    1.4456    0.2919 N.pl3     1 RES1    0.0000
      7 O1         3.5196    1.5310    0.0923 O.2       1 RES1    0.0000
      8 O2         1.5560    2.4316    0.3582 O.2       1 RES1    0.0000
      9 C1D       -0.3706   -0.0174   -0.6682 C.3       1 RES1    0.0000
     10 H1D       -0.3346    0.7990   -1.1789 H         1 RES1    0.0000
     11 H2D       -0.0874   -0.8349   -1.1801 H         1 RES1    0.0000
     12 N1D       -1.7971   -0.2555   -0.4485 N.pl3     1 RES1    0.0000
     13 H3D       -2.2795    0.3986   -0.3313 H         1 RES1    0.0000
     14 N2D       -2.2985   -1.4456   -0.2919 N.pl3     1 RES1    0.0000
     15 O1D       -3.5196   -1.5310   -0.0923 O.2       1 RES1    0.0000
     16 O2D       -1.5560   -2.4316   -0.3582 O.2       1 RES1    0.0000
@<TRIPOS>BOND
     1    1    2 1
     2    3    1 1
     3    4    5 1
     4    5    1 1
     5    6    5 1
     6    7    6 2
     7    8    6 2
     8    9    1 1
     9   10    9 1
    10   11    9 1
    11   12    9 1
    12   13   12 1
    13   14   12 1
    14   15   14 2
    15   16   14 2
@<TRIPOS>SUBSTRUCTURE
     1 RES1 1

@<TRIPOS>CRYSIN
  10.7930    8.7610    6.1690  90.0000  90.0000  90.0000  61 1

