# MOL2 file generated by ConQuest
# Please check atom types

@<TRIPOS>MOLECULE
DNITPY
    15    15     1
SMALL
NO_CHARGES
****
Generated from CSD

@<TRIPOS>ATOM
      1 C1         3.8247    2.4284   -1.1062 C.ar      1 RES1    0.0000
      2 C2         3.0648    2.1408   -2.2132 C.ar      1 RES1    0.0000
      3 C3         2.0884    2.9862   -2.6413 C.ar      1 RES1    0.0000
      4 C4         1.9231    4.1277   -1.9027 C.ar      1 RES1    0.0000
      5 C5         2.6967    4.3734   -0.7939 C.ar      1 RES1    0.0000
      6 H1         4.5214    1.8102   -0.8541 H         1 RES1    0.0000
      7 H2         1.5337    2.7800   -3.3477 H         1 RES1    0.0000
      8 H3         2.5097    5.2043   -0.2794 H         1 RES1    0.0000
      9 N1         3.6492    3.5356   -0.3956 N.ar      1 RES1    0.0000
     10 N2         3.3175    0.8875   -2.9343 N.pl3     1 RES1    0.0000
     11 N3         0.9059    5.1102   -2.2958 N.pl3     1 RES1    0.0000
     12 O1         4.1015    0.0947   -2.4396 O.2       1 RES1    0.0000
     13 O2         2.7232    0.7107   -3.9756 O.2       1 RES1    0.0000
     14 O3         0.2673    4.8716   -3.2923 O.2       1 RES1    0.0000
     15 O4         0.7794    6.1057   -1.6118 O.2       1 RES1    0.0000
@<TRIPOS>BOND
     1    1    2 ar
     2    2    3 ar
     3    3    4 ar
     4    4    5 ar
     5    5    8 1
     6    6    1 1
     7    7    3 1
     8    9    1 ar
     9   10    2 1
    10   11    4 1
    11   12   10 2
    12   13   10 2
    13   14   11 2
    14   15   11 2
    15    5    9 ar
@<TRIPOS>SUBSTRUCTURE
     1 RES1 1

@<TRIPOS>CRYSIN
  19.9180    6.4650    5.2720  90.0000  90.0000  90.0000  19 1

