# MOL2 file generated by ConQuest
# Please check atom types

@<TRIPOS>MOLECULE
DNITBZ11
    16    16     1
SMALL
NO_CHARGES
****
Generated from CSD

@<TRIPOS>ATOM
      1 O1         1.2795    2.5174    2.1578 O.2       1 RES1    0.0000
      2 O2         2.4433    2.5689    0.3425 O.2       1 RES1    0.0000
      3 N1         1.5441    2.1244    1.0362 N.pl3     1 RES1    0.0000
      4 C1         0.7370    1.0128    0.4924 C.ar      1 RES1    0.0000
      5 C2        -0.3967    0.6372    1.1756 C.ar      1 RES1    0.0000
      6 C3         1.1568    0.4066   -0.6704 C.ar      1 RES1    0.0000
      7 H1        -0.6560    1.0590    1.9527 H         1 RES1    0.0000
      8 H2         1.9592    0.6169   -1.1183 H         1 RES1    0.0000
      9 C3B       -1.1568   -0.4066    0.6704 C.ar      1 RES1    0.0000
     10 C2B        0.3967   -0.6372   -1.1756 C.ar      1 RES1    0.0000
     11 C1B       -0.7370   -1.0128   -0.4924 C.ar      1 RES1    0.0000
     12 H2B       -1.9592   -0.6169    1.1183 H         1 RES1    0.0000
     13 H1B        0.6560   -1.0590   -1.9527 H         1 RES1    0.0000
     14 N1B       -1.5441   -2.1244   -1.0362 N.pl3     1 RES1    0.0000
     15 O1B       -1.2795   -2.5174   -2.1578 O.2       1 RES1    0.0000
     16 O2B       -2.4433   -2.5689   -0.3425 O.2       1 RES1    0.0000
@<TRIPOS>BOND
     1    1    3 2
     2    2    3 2
     3    3    4 1
     4    4    5 ar
     5    5    7 1
     6    6    4 ar
     7    8    6 1
     8    9    5 ar
     9   10    6 ar
    10   11    9 ar
    11   12    9 1
    12   13   10 1
    13   14   11 1
    14   15   14 2
    15   16   14 2
    16   10   11 ar
@<TRIPOS>SUBSTRUCTURE
     1 RES1 1

@<TRIPOS>CRYSIN
  11.1340    5.4590    5.6810  90.0000  92.2600  90.0000 231 1

