# MOL2 file generated by ConQuest
# Please check atom types

@<TRIPOS>MOLECULE
DNOPHL01
    17    17     1
SMALL
NO_CHARGES
****
Generated from CSD

@<TRIPOS>ATOM
      1 C1         0.0665    2.6125    1.1273 C.ar      1 RES1    0.0000
      2 C2         0.7798    2.1183    2.2343 C.ar      1 RES1    0.0000
      3 C3         1.9722    2.7007    2.6346 C.ar      1 RES1    0.0000
      4 C4         2.4182    3.7819    1.9283 C.ar      1 RES1    0.0000
      5 C5         1.7476    4.3040    0.8357 C.ar      1 RES1    0.0000
      6 C6         0.5760    3.7216    0.4427 C.ar      1 RES1    0.0000
      7 N1         0.3057    0.9768    2.9903 N.pl3     1 RES1    0.0000
      8 N2         3.6752    4.4409    2.3612 N.pl3     1 RES1    0.0000
      9 O1        -1.0935    2.1207    0.6617 O.3       1 RES1    0.0000
     10 O2        -0.7329    0.4223    2.6097 O.2       1 RES1    0.0000
     11 O3         0.9348    0.6149    3.9720 O.2       1 RES1    0.0000
     12 O4         4.2055    4.0325    3.3792 O.2       1 RES1    0.0000
     13 O5         4.1097    5.3504    1.6761 O.2       1 RES1    0.0000
     14 H1        -1.2509    1.3457    1.0511 H         1 RES1    0.0000
     15 H2         2.4469    2.2970    3.4330 H         1 RES1    0.0000
     16 H3         2.0381    5.1044    0.4246 H         1 RES1    0.0000
     17 H4         0.1159    4.0139   -0.3935 H         1 RES1    0.0000
@<TRIPOS>BOND
     1    1    2 ar
     2    2    3 ar
     3    3    4 ar
     4    4    5 ar
     5    5    6 ar
     6    6    1 ar
     7    7    2 1
     8    8    4 1
     9    9    1 1
    10   10    7 2
    11   11    7 2
    12   12    8 2
    13   13    8 2
    14   14    9 1
    15   15    3 1
    16   16    5 1
    17   17    6 1
@<TRIPOS>SUBSTRUCTURE
     1 RES1 1

@<TRIPOS>CRYSIN
   6.1020   23.2020    5.1780  90.0000  90.0000  90.0000  19 1

