# MOL2 file generated by ConQuest
# Please check atom types

@<TRIPOS>MOLECULE
DNPHOL
    17    17     1
SMALL
NO_CHARGES
****
Generated from CSD

@<TRIPOS>ATOM
      1 C1         1.0593    1.8744   -2.3112 C.ar      1 RES1    0.0000
      2 C2         2.1103    2.6476   -1.8041 C.ar      1 RES1    0.0000
      3 C3         3.3978    2.5394   -2.2943 C.ar      1 RES1    0.0000
      4 C4         3.6820    1.6321   -3.3069 C.ar      1 RES1    0.0000
      5 C5         2.6955    0.8452   -3.8072 C.ar      1 RES1    0.0000
      6 C6         1.3949    0.9733   -3.3277 C.ar      1 RES1    0.0000
      7 H1        -0.6091    1.5786   -2.2938 H         1 RES1    0.0000
      8 H2         4.0726    3.2069   -2.0620 H         1 RES1    0.0000
      9 H3         4.5383    1.5413   -3.5590 H         1 RES1    0.0000
     10 H4         2.9021    0.2983   -4.5248 H         1 RES1    0.0000
     11 N1         1.8989    3.6283   -0.7253 N.pl3     1 RES1    0.0000
     12 N2         0.3750    0.1504   -3.9641 N.pl3     1 RES1    0.0000
     13 O1        -0.1827    2.0360   -1.8423 O.3       1 RES1    0.0000
     14 O2         0.8611    3.6047   -0.0942 O.2       1 RES1    0.0000
     15 O3         2.7971    4.4276   -0.5128 O.2       1 RES1    0.0000
     16 O4         0.6939   -0.5929   -4.8705 O.2       1 RES1    0.0000
     17 O5        -0.7990    0.2561   -3.5720 O.2       1 RES1    0.0000
@<TRIPOS>BOND
     1    1    2 ar
     2    2    3 ar
     3    3    4 ar
     4    4    5 ar
     5    5    6 ar
     6    6    1 ar
     7    7   13 1
     8    8    3 1
     9    9    4 1
    10   10    5 1
    11   11    2 1
    12   12    6 1
    13   13    1 1
    14   14   11 2
    15   15   11 2
    16   16   12 2
    17   17   12 2
@<TRIPOS>SUBSTRUCTURE
     1 RES1 1

@<TRIPOS>CRYSIN
  11.9430   12.4300    4.8290  90.0000  90.0000  90.0000  33 2

