# MOL2 file generated by ConQuest
# Please check atom types

@<TRIPOS>MOLECULE
DNPHOL02
    17    17     1
SMALL
NO_CHARGES
****
Generated from CSD

@<TRIPOS>ATOM
      1 O1         2.0227    1.7209   13.0466 O.3       1 RES1    0.0000
      2 O2         0.2312    3.4334   13.6428 O.2       1 RES1    0.0000
      3 O3        -0.5708    4.7680   12.1491 O.2       1 RES1    0.0000
      4 O4         4.4756    0.4101   10.0558 O.2       1 RES1    0.0000
      5 O5         3.6589    0.0034   12.0140 O.2       1 RES1    0.0000
      6 N1         0.1559    3.8420   12.4713 N.pl3     1 RES1    0.0000
      7 N2         3.6767    0.6331   10.9635 N.pl3     1 RES1    0.0000
      8 C1         1.8920    2.1884   11.8102 C.ar      1 RES1    0.0000
      9 C2         0.9803    3.2151   11.4565 C.ar      1 RES1    0.0000
     10 C3         0.8679    3.7145   10.1582 C.ar      1 RES1    0.0000
     11 C4         1.6851    3.2174    9.1563 C.ar      1 RES1    0.0000
     12 C5         2.6004    2.2136    9.4598 C.ar      1 RES1    0.0000
     13 C6         2.6957    1.7011   10.7503 C.ar      1 RES1    0.0000
     14 H1         1.4052    2.2355   13.6245 H         1 RES1    0.0000
     15 H2         0.1539    4.4762    9.9598 H         1 RES1    0.0000
     16 H3         1.6293    3.5804    8.1851 H         1 RES1    0.0000
     17 H4         3.2450    1.8219    8.7045 H         1 RES1    0.0000
@<TRIPOS>BOND
     1    1    8 1
     2    2    6 2
     3    3    6 2
     4    4    7 2
     5    5    7 2
     6    6    9 1
     7    7   13 1
     8    8    9 ar
     9    9   10 ar
    10   10   11 ar
    11   11   12 ar
    12   12   13 ar
    13   13    8 ar
    14   14    1 1
    15   15   10 1
    16   16   11 1
    17   17   12 1
@<TRIPOS>SUBSTRUCTURE
     1 RES1 1

@<TRIPOS>CRYSIN
  12.4092    4.6608   11.8316  90.0000  90.0000  90.0000  33 1

