# MOL2 file generated by ConQuest
# Please check atom types

@<TRIPOS>MOLECULE
DNPIMZ
    22    22     1
SMALL
NO_CHARGES
****
Generated from CSD

@<TRIPOS>ATOM
      1 C1         4.2228    2.9340   -1.4439 C.2       1 RES1    0.0000
      2 C2         2.6182    4.0099   -0.5503 C.2       1 RES1    0.0000
      3 C3         2.0034    2.9316   -1.0679 C.2       1 RES1    0.0000
      4 C4         5.5889    2.4871   -1.8675 C.3       1 RES1    0.0000
      5 C5         6.4707    3.7118   -2.0872 C.3       1 RES1    0.0000
      6 C6         6.1244    1.4998   -0.8115 C.3       1 RES1    0.0000
      7 H1         1.1550    2.6595   -1.0886 H         1 RES1    0.0000
      8 H2         5.5200    2.0463   -2.6721 H         1 RES1    0.0000
      9 H3         7.2401    3.4853   -2.2070 H         1 RES1    0.0000
     10 H4         6.1567    4.2625   -2.6820 H         1 RES1    0.0000
     11 H5         6.5448    4.2504   -1.2767 H         1 RES1    0.0000
     12 H6         6.2408    2.1556   -0.0891 H         1 RES1    0.0000
     13 H7         6.9124    1.2751   -1.1579 H         1 RES1    0.0000
     14 H8         5.4346    0.7226   -0.7423 H         1 RES1    0.0000
     15 N1         3.0322    2.2406   -1.6438 N.pl3     1 RES1    0.0000
     16 N2         2.8044    1.0395   -2.3772 N.pl3     1 RES1    0.0000
     17 N3         3.9631    4.0257   -0.7789 N.2       1 RES1    0.0000
     18 N4         1.9831    5.0543    0.2029 N.pl3     1 RES1    0.0000
     19 O1         3.7738    0.4578   -2.7711 O.2       1 RES1    0.0000
     20 O2         1.6573    0.7359   -2.5306 O.2       1 RES1    0.0000
     21 O3         2.6425    6.0568    0.4592 O.2       1 RES1    0.0000
     22 O4         0.8275    4.8916    0.5334 O.2       1 RES1    0.0000
@<TRIPOS>BOND
     1    1    4 1
     2    2    3 2
     3    3    7 1
     4    4    5 1
     5    5    9 1
     6    6    4 1
     7    8    4 1
     8   10    5 1
     9   11    5 1
    10   12    6 1
    11   13    6 1
    12   14    6 1
    13   15    1 1
    14   16   15 1
    15   17    1 2
    16   18    2 1
    17   19   16 2
    18   20   16 2
    19   21   18 2
    20   22   18 2
    21    2   17 1
    22    3   15 1
@<TRIPOS>SUBSTRUCTURE
     1 RES1 1

@<TRIPOS>CRYSIN
  15.4880    6.0720   10.0300  90.0000  99.3500  90.0000  14 1

