# MOL2 file generated by ConQuest
# Please check atom types

@<TRIPOS>MOLECULE
DNTNAP10
    22    23     1
SMALL
NO_CHARGES
****
Generated from CSD

@<TRIPOS>ATOM
      1 C1        -4.5385   -5.2627    0.6381 C.ar      1 RES1    0.0000
      2 C2        -5.6283   -7.3908    0.0892 C.ar      1 RES1    0.0000
      3 C3        -3.8642   -5.8347    1.6526 C.ar      1 RES1    0.0000
      4 C4        -4.1003   -7.2116    1.9359 C.ar      1 RES1    0.0000
      5 C5        -4.9415   -7.9479    1.1983 C.ar      1 RES1    0.0000
      6 C6        -6.5285   -8.1764   -0.6752 C.ar      1 RES1    0.0000
      7 C7        -7.2108   -7.7015   -1.7155 C.ar      1 RES1    0.0000
      8 C8        -7.1495   -6.2962   -2.0058 C.ar      1 RES1    0.0000
      9 C9        -6.3696   -5.4912   -1.2230 C.ar      1 RES1    0.0000
     10 C10       -5.4705   -6.0154   -0.1973 C.ar      1 RES1    0.0000
     11 H1        -3.1672   -5.2717    2.2364 H         1 RES1    0.0000
     12 H2        -3.5872   -7.6761    2.7740 H         1 RES1    0.0000
     13 H3        -5.0970   -8.9753    1.4515 H         1 RES1    0.0000
     14 H4        -6.6636   -9.2143   -0.4032 H         1 RES1    0.0000
     15 H5        -7.7988   -8.3630   -2.3332 H         1 RES1    0.0000
     16 H6        -7.7080   -5.8840   -2.8278 H         1 RES1    0.0000
     17 N1        -4.1083   -3.9336    0.1785 N.pl3     1 RES1    0.0000
     18 N2        -6.5433   -4.0382   -1.4160 N.pl3     1 RES1    0.0000
     19 O1        -3.9040   -3.7290   -1.0188 O.2       1 RES1    0.0000
     20 O2        -3.8790   -3.0734    1.0376 O.2       1 RES1    0.0000
     21 O3        -6.7170   -3.6693   -2.5832 O.2       1 RES1    0.0000
     22 O4        -6.5876   -3.3273   -0.3984 O.2       1 RES1    0.0000
@<TRIPOS>BOND
     1    1    3 ar
     2    2    5 ar
     3    3    4 ar
     4    4    5 ar
     5    5   13 1
     6    6    2 ar
     7    7    6 ar
     8    8    7 ar
     9    9    8 ar
    10   10    1 ar
    11   11    3 1
    12   12    4 1
    13   14    6 1
    14   15    7 1
    15   16    8 1
    16   17    1 1
    17   18    9 1
    18   19   17 2
    19   20   17 2
    20   21   18 2
    21   22   18 2
    22    2   10 ar
    23    9   10 ar
@<TRIPOS>SUBSTRUCTURE
     1 RES1 1

@<TRIPOS>CRYSIN
  11.3520   14.9340    5.3760  90.0000  90.0000  90.0000  19 1

