# MOL2 file generated by ConQuest
# Please check atom types

@<TRIPOS>MOLECULE
DOBJEK
    30    30     2
SMALL
USER_CHARGES
****
Generated from CSD

@<TRIPOS>ATOM
      1 O1         0.7139    3.9119    1.9178 O.2       1 RES1   -1.0000
      2 O2        -2.1557    1.7465    1.6416 Du        2 SUP2    0.0000
      3 N1        -1.0726    1.6070   -0.7448 N.ar      1 RES1    0.0000
      4 N2        -1.0090    2.3692    1.4376 N.2       1 RES1    0.0000
      5 N3        -0.4448    3.2934    2.1203 N.pl3     1 RES1    1.0000
      6 N4        -0.4100    4.0765    4.3056 N.ar      1 RES1    0.0000
      7 C1        -0.2646    1.9175    0.2668 C.ar      1 RES1    0.0000
      8 C2         1.1149    1.7750    0.2617 C.ar      1 RES1    0.0000
      9 H1         1.6402    1.9993    1.0209 H         1 RES1    0.0000
     10 C3         1.6922    1.2916   -0.9019 C.ar      1 RES1    0.0000
     11 H2         2.6334    1.1751   -0.9596 H         1 RES1    0.0000
     12 C4         0.8797    0.9817   -1.9798 C.ar      1 RES1    0.0000
     13 H3         1.2590    0.6520   -2.7858 H         1 RES1    0.0000
     14 C5        -0.4934    1.1565   -1.8738 C.ar      1 RES1    0.0000
     15 C6        -1.4251    0.8776   -3.0216 C.3       1 RES1    0.0000
     16 H4        -2.0395    0.1549   -2.7750 H         1 RES1    0.0000
     17 H5        -0.9052    0.6111   -3.8074 H         1 RES1    0.0000
     18 H6        -1.9392    1.6870   -3.2285 H         1 RES1    0.0000
     19 C7        -1.1942    3.7458    3.2804 C.ar      1 RES1    0.0000
     20 C8        -2.5725    3.8474    3.2616 C.ar      1 RES1    0.0000
     21 H7        -3.0785    3.6045    2.4952 H         1 RES1    0.0000
     22 C9        -3.1846    4.3222    4.4166 C.ar      1 RES1    0.0000
     23 H8        -4.1286    4.4164    4.4555 H         1 RES1    0.0000
     24 C10       -2.4006    4.6544    5.5118 C.ar      1 RES1    0.0000
     25 H9        -2.8021    4.9791    6.3091 H         1 RES1    0.0000
     26 C11       -1.0039    4.5044    5.4274 C.ar      1 RES1    0.0000
     27 C12       -0.1036    4.8019    6.5903 C.3       1 RES1    0.0000
     28 H10        0.4254    4.0061    6.8066 H         1 RES1    0.0000
     29 H11       -0.6460    5.0547    7.3668 H         1 RES1    0.0000
     30 H12        0.4966    5.5406    6.3582 H         1 RES1    0.0000
@<TRIPOS>BOND
     1    1    5 1
     2    3    7 ar
     3    4    5 2
     4    5   19 1
     5    6   19 ar
     6    7    4 1
     7    8    7 ar
     8    9    8 1
     9   10    8 ar
    10   11   10 1
    11   12   10 ar
    12   13   12 1
    13   14    3 ar
    14   15   14 1
    15   16   15 1
    16   17   15 1
    17   18   15 1
    18   19   20 ar
    19   20   21 1
    20   22   20 ar
    21   23   22 1
    22   24   22 ar
    23   25   24 1
    24   26    6 ar
    25   27   26 1
    26   28   27 1
    27   29   27 1
    28   30   27 1
    29   12   14 ar
    30   24   26 ar
@<TRIPOS>SUBSTRUCTURE
     1 RES1 1
     2 SUP2 2

@<TRIPOS>CRYSIN
   6.2863   12.3951    7.8106  90.0000 112.6230  90.0000   4 1

