# MOL2 file generated by ConQuest
# Please check atom types

@<TRIPOS>MOLECULE
DOBYOJ
    20    21     1
SMALL
USER_CHARGES
****
Generated from CSD

@<TRIPOS>ATOM
      1 C1        -0.8860    3.4094    9.1380 C.3       1 RES1    0.0000
      2 C2        -1.7120    2.6780   10.2073 C.3       1 RES1    0.0000
      3 H1        -1.8526    1.7789    9.9536 H         1 RES1    0.0000
      4 H2        -2.5849    3.1612   10.3065 H         1 RES1    0.0000
      5 C3        -0.9032    2.8383   11.5002 C.3       1 RES1    0.0000
      6 H3        -0.3899    2.0338   11.6661 H         1 RES1    0.0000
      7 H4        -1.4871    3.0083   12.2632 H         1 RES1    0.0000
      8 C4        -0.0063    3.9668   11.2074 C.2       1 RES1    0.0000
      9 H5         0.5613    4.4246   11.8226 H         1 RES1    0.0000
     10 C5        -1.7286    4.3272    8.2633 C.2       1 RES1    0.0000
     11 C6        -0.9920    2.6463    6.8983 C.3       1 RES1    0.0000
     12 H6        -1.6726    1.9149    6.8958 H         1 RES1    0.0000
     13 H7        -0.5047    2.6627    6.0367 H         1 RES1    0.0000
     14 C7        -0.1172    2.5737    8.1348 C.3       1 RES1    0.0000
     15 H8         0.7372    2.9969    7.9746 H         1 RES1    0.0000
     16 H9         0.0135    1.6656    8.4163 H         1 RES1    0.0000
     17 N1         0.0238    4.2654    9.9585 N.pl3     1 RES1    1.0000
     18 O1         0.7565    5.1401    9.3431 O.2       1 RES1   -1.0000
     19 O2        -2.3363    5.2976    8.6131 O.2       1 RES1    0.0000
     20 O3        -1.6984    3.9119    6.9961 O.3       1 RES1    0.0000
@<TRIPOS>BOND
     1    1    2 1
     2    2    3 1
     3    4    2 1
     4    5    2 1
     5    6    5 1
     6    7    5 1
     7    8    5 1
     8    9    8 1
     9   10    1 1
    10   11   12 1
    11   13   11 1
    12   14    1 1
    13   15   14 1
    14   16   14 1
    15   17    1 1
    16   18   17 1
    17   19   10 2
    18   20   10 1
    19    8   17 2
    20   11   14 1
    21   11   20 1
@<TRIPOS>SUBSTRUCTURE
     1 RES1 1

@<TRIPOS>CRYSIN
  11.1924    5.6653   11.9300  90.0000 111.5120  90.0000  14 1

