# MOL2 file generated by ConQuest
# Please check atom types

@<TRIPOS>MOLECULE
DOCJEK
    39    40     1
SMALL
NO_CHARGES
****
Generated from CSD

@<TRIPOS>ATOM
      1 O1         3.4941    9.2407    5.3232 O.3       1 RES1    0.0000
      2 O2         0.2885    4.0379    5.6308 O.2       1 RES1    0.0000
      3 N1         2.2007    9.4060    4.8441 N.2       1 RES1    0.0000
      4 N2         2.0970    3.4933    6.9041 N.am      1 RES1    0.0000
      5 C1        -0.0934    9.1345    3.1726 C.ar      1 RES1    0.0000
      6 C2        -1.3897    9.2558    2.6797 C.ar      1 RES1    0.0000
      7 C3        -2.4360    8.7158    3.3578 C.ar      1 RES1    0.0000
      8 C4        -2.2152    8.0378    4.5268 C.ar      1 RES1    0.0000
      9 C5        -0.9331    7.8816    5.0048 C.ar      1 RES1    0.0000
     10 C6         0.1549    8.4428    4.3522 C.ar      1 RES1    0.0000
     11 C7         1.5195    8.3260    4.9005 C.2       1 RES1    0.0000
     12 C8         2.0015    7.0078    5.4328 C.3       1 RES1    0.0000
     13 C9         2.1645    5.9491    4.3416 C.3       1 RES1    0.0000
     14 C10        2.5478    4.5870    4.9133 C.3       1 RES1    0.0000
     15 C11        3.8440    4.4899    5.7086 C.3       1 RES1    0.0000
     16 C12        3.5532    3.5525    6.8477 C.3       1 RES1    0.0000
     17 C13        1.5096    4.0242    5.8331 C.2       1 RES1    0.0000
     18 C14        1.4191    2.7500    7.9241 C.3       1 RES1    0.0000
     19 C15        3.1617    6.3875    3.2780 C.3       1 RES1    0.0000
     20 H1         3.9809   10.1326    5.3232 H         1 RES1    0.0000
     21 H2         0.6276    9.5349    2.7010 H         1 RES1    0.0000
     22 H3        -1.5440    9.7109    1.8588 H         1 RES1    0.0000
     23 H4        -3.3263    8.8220    3.0225 H         1 RES1    0.0000
     24 H5        -2.9541    7.6753    5.0144 H         1 RES1    0.0000
     25 H6        -0.7942    7.3886    5.8022 H         1 RES1    0.0000
     26 H7         1.3730    6.6878    6.0737 H         1 RES1    0.0000
     27 H8         2.8409    7.1383    5.8533 H         1 RES1    0.0000
     28 H9         1.3081    5.8566    3.9317 H         1 RES1    0.0000
     29 H10        2.6461    4.1031    4.1031 H         1 RES1    0.0000
     30 H11        4.0972    5.3423    6.0333 H         1 RES1    0.0000
     31 H12        4.5360    4.1334    5.1656 H         1 RES1    0.0000
     32 H13        3.9016    3.9044    7.6685 H         1 RES1    0.0000
     33 H14        3.9189    2.6970    6.6944 H         1 RES1    0.0000
     34 H15        0.4735    2.8289    7.8027 H         1 RES1    0.0000
     35 H16        1.6666    1.8399    7.8836 H         1 RES1    0.0000
     36 H17        1.6439    3.1035    8.7832 H         1 RES1    0.0000
     37 H18        2.9011    7.2263    2.9352 H         1 RES1    0.0000
     38 H19        4.0214    6.4390    3.6645 H         1 RES1    0.0000
     39 H20        3.1629    5.7398    2.5775 H         1 RES1    0.0000
@<TRIPOS>BOND
     1    1    3 1
     2    2   17 2
     3    3   11 2
     4    4   16 1
     5    5    6 ar
     6    6    7 ar
     7    7    8 ar
     8    8    9 ar
     9    9   10 ar
    10   10    5 ar
    11   11   10 1
    12   12   11 1
    13   13   12 1
    14   14   13 1
    15   15   14 1
    16   16   15 1
    17   17    4 1
    18   18    4 1
    19   19   13 1
    20   20    1 1
    21   21    5 1
    22   22    6 1
    23   23    7 1
    24   24    8 1
    25   25    9 1
    26   26   12 1
    27   27   12 1
    28   28   13 1
    29   29   14 1
    30   30   15 1
    31   31   15 1
    32   32   16 1
    33   33   16 1
    34   34   18 1
    35   35   18 1
    36   36   18 1
    37   37   19 1
    38   38   19 1
    39   39   19 1
    40   14   17 1
@<TRIPOS>SUBSTRUCTURE
     1 RES1 1

@<TRIPOS>CRYSIN
   8.8993   15.1685   10.8165  90.0000 100.1770  90.0000   9 1

