# MOL2 file generated by ConQuest
# Please check atom types

@<TRIPOS>MOLECULE
DOCRUK
    41    41     1
SMALL
NO_CHARGES
****
Generated from CSD

@<TRIPOS>ATOM
      1 O1        -7.8588    5.2410    7.8114 O.2       1 RES1    0.0000
      2 C1        -7.0037    4.3636    7.7155 C.2       1 RES1    0.0000
      3 C2        -7.3055    3.0603    7.0449 C.ar      1 RES1    0.0000
      4 C3        -8.3889    3.0171    6.1813 C.ar      1 RES1    0.0000
      5 H1        -8.8795    3.8104    6.0036 H         1 RES1    0.0000
      6 C4        -8.7634    1.8352    5.5757 C.ar      1 RES1    0.0000
      7 H2        -9.5034    1.8024    4.9819 H         1 RES1    0.0000
      8 C5        -8.0284    0.7031    5.8606 C.ar      1 RES1    0.0000
      9 N1        -8.4323   -0.5755    5.2658 N.pl3     1 RES1    0.0000
     10 O2        -9.5060   -0.6323    4.6883 O.2       1 RES1    0.0000
     11 O3        -7.6816   -1.5300    5.3665 O.2       1 RES1    0.0000
     12 C6        -6.9278    0.7084    6.6884 C.ar      1 RES1    0.0000
     13 H3        -6.4333   -0.0861    6.8477 H         1 RES1    0.0000
     14 C7        -6.5667    1.9030    7.2811 C.ar      1 RES1    0.0000
     15 H4        -5.8084    1.9354    7.8521 H         1 RES1    0.0000
     16 N2        -5.7510    4.5012    8.2212 N.am      1 RES1    0.0000
     17 H5        -5.1787    4.3806    7.5119 H         1 RES1    0.0000
     18 C8        -5.3191    5.6371    8.8684 C.2       1 RES1    0.0000
     19 H6        -5.9511    6.3364    8.9919 H         1 RES1    0.0000
     20 C9        -4.0867    5.8356    9.3365 C.2       1 RES1    0.0000
     21 C10       -3.7590    7.1050   10.0581 C.3       1 RES1    0.0000
     22 H7        -4.5763    7.6269   10.1881 H         1 RES1    0.0000
     23 H8        -3.1187    7.6254    9.5282 H         1 RES1    0.0000
     24 H9        -3.3650    6.8916   10.9303 H         1 RES1    0.0000
     25 C11       -3.0422    4.7736    9.1772 C.2       1 RES1    0.0000
     26 O4        -3.3457    3.6195    8.8014 O.2       1 RES1    0.0000
     27 N3        -1.7923    5.1287    9.4773 N.am      1 RES1    0.0000
     28 H10       -1.5919    5.8166    8.9009 H         1 RES1    0.0000
     29 C12       -0.6019    4.2292    9.4513 C.3       1 RES1    0.0000
     30 C13       -0.3960    3.6329    8.0644 C.3       1 RES1    0.0000
     31 H11       -1.1348    3.0243    7.8575 H         1 RES1    0.0000
     32 H12        0.4496    3.1397    8.0438 H         1 RES1    0.0000
     33 H13       -0.3689    4.3533    7.3992 H         1 RES1    0.0000
     34 C14       -0.7912    3.1320   10.4850 C.3       1 RES1    0.0000
     35 H14       -0.9271    3.5363   11.3680 H         1 RES1    0.0000
     36 H15        0.0048    2.5612   10.5045 H         1 RES1    0.0000
     37 H16       -1.5752    2.5921   10.2498 H         1 RES1    0.0000
     38 C15        0.5814    5.0985    9.8370 C.3       1 RES1    0.0000
     39 H17        0.6754    5.8283    9.1891 H         1 RES1    0.0000
     40 H18        1.3973    4.5580    9.8381 H         1 RES1    0.0000
     41 H19        0.4345    5.4719   10.7309 H         1 RES1    0.0000
@<TRIPOS>BOND
     1    1    2 2
     2    2    3 1
     3    3    4 ar
     4    4    5 1
     5    6    4 ar
     6    7    6 1
     7    8    6 ar
     8    9    8 1
     9   10    9 2
    10   11    9 2
    11   12    8 ar
    12   13   12 1
    13   14    3 ar
    14   15   14 1
    15   16    2 1
    16   17   16 1
    17   18   16 1
    18   19   18 1
    19   20   18 2
    20   21   20 1
    21   22   21 1
    22   23   21 1
    23   24   21 1
    24   25   20 1
    25   26   25 2
    26   27   25 1
    27   28   27 1
    28   29   27 1
    29   30   29 1
    30   31   30 1
    31   32   30 1
    32   33   30 1
    33   34   29 1
    34   35   34 1
    35   36   34 1
    36   37   34 1
    37   38   29 1
    38   39   38 1
    39   40   38 1
    40   41   38 1
    41   12   14 ar
@<TRIPOS>SUBSTRUCTURE
     1 RES1 1

@<TRIPOS>CRYSIN
  15.5832   15.5832   15.5832 113.2800 113.2800 113.2800 148 1

