# MOL2 file generated by ConQuest
# Please check atom types

@<TRIPOS>MOLECULE
DODBOO
    50    53     1
SMALL
NO_CHARGES
****
Generated from CSD

@<TRIPOS>ATOM
      1 N1         1.6250    3.3369   16.1420 N.2       1 RES1    0.0000
      2 N2         4.5570    2.1606   12.5672 N.2       1 RES1    0.0000
      3 O1         2.6175    2.4333   15.7260 O.3       1 RES1    0.0000
      4 O2         4.5691    1.5657   13.8469 O.3       1 RES1    0.0000
      5 O3        -0.6261    4.6266   16.2214 O.3       1 RES1    0.0000
      6 H1        -0.0823    4.0854   15.9333 H         1 RES1    0.0000
      7 O4         4.1716    2.3357    9.9889 O.3       1 RES1    0.0000
      8 H2         4.0309    2.0612   10.7496 H         1 RES1    0.0000
      9 C1         2.2302    1.8380   14.4880 C.3       1 RES1    0.0000
     10 H3         2.1130    2.5197   13.8087 H         1 RES1    0.0000
     11 H4         1.3923    1.3593   14.5907 H         1 RES1    0.0000
     12 C2         3.3231    0.8938   14.0964 C.3       1 RES1    0.0000
     13 H5         3.4488    0.2438   14.8034 H         1 RES1    0.0000
     14 H6         3.0549    0.4142   13.2969 H         1 RES1    0.0000
     15 C3         1.9524    3.9155   17.2262 C.2       1 RES1    0.0000
     16 H7         2.7657    3.7007   17.6238 H         1 RES1    0.0000
     17 C4         1.0999    4.8984   17.8621 C.ar      1 RES1    0.0000
     18 C5        -0.1391    5.2005   17.3573 C.ar      1 RES1    0.0000
     19 C6        -0.9958    6.1246   17.9843 C.ar      1 RES1    0.0000
     20 H8        -1.8343    6.3058   17.6238 H         1 RES1    0.0000
     21 C7        -0.5974    6.7434   19.1076 C.ar      1 RES1    0.0000
     22 H9        -1.1719    7.3490   19.5184 H         1 RES1    0.0000
     23 C8         0.6747    6.4973   19.6814 C.ar      1 RES1    0.0000
     24 C9         1.5343    5.5582   19.0610 C.ar      1 RES1    0.0000
     25 C10        2.7812    5.3219   19.6771 C.ar      1 RES1    0.0000
     26 H10        3.3731    4.7205   19.2855 H         1 RES1    0.0000
     27 C11        3.1429    5.9537   20.8346 C.ar      1 RES1    0.0000
     28 H11        3.9695    5.7758   21.2204 H         1 RES1    0.0000
     29 C12        2.2761    6.8629   21.4381 C.ar      1 RES1    0.0000
     30 H12        2.5166    7.2766   22.2353 H         1 RES1    0.0000
     31 C13        1.0902    7.1426   20.8662 C.ar      1 RES1    0.0000
     32 H13        0.5334    7.7744   21.2607 H         1 RES1    0.0000
     33 C14        5.5468    2.9563   12.4341 C.2       1 RES1    0.0000
     34 H14        6.0871    3.1296   13.1704 H         1 RES1    0.0000
     35 C15        5.8564    3.5956   11.1743 C.ar      1 RES1    0.0000
     36 C16        5.1792    3.2337   10.0136 C.ar      1 RES1    0.0000
     37 C17        5.5429    3.7805    8.7668 C.ar      1 RES1    0.0000
     38 H15        5.0948    3.5171    7.9954 H         1 RES1    0.0000
     39 C18        6.5354    4.6789    8.6883 C.ar      1 RES1    0.0000
     40 H16        6.7598    5.0310    7.8574 H         1 RES1    0.0000
     41 C19        7.2521    5.1090    9.8302 C.ar      1 RES1    0.0000
     42 C20        6.9070    4.5524   11.0880 C.ar      1 RES1    0.0000
     43 C21        7.6507    5.0077   12.2015 C.ar      1 RES1    0.0000
     44 H17        7.4613    4.6561   13.0410 H         1 RES1    0.0000
     45 C22        8.6333    5.9402   12.0888 C.ar      1 RES1    0.0000
     46 H18        9.0990    6.2166   12.8455 H         1 RES1    0.0000
     47 C23        8.9487    6.4851   10.8431 C.ar      1 RES1    0.0000
     48 H19        9.6213    7.1225   10.7669 H         1 RES1    0.0000
     49 C24        8.2681    6.0789    9.7437 C.ar      1 RES1    0.0000
     50 H20        8.4764    6.4487    8.9154 H         1 RES1    0.0000
@<TRIPOS>BOND
     1    1    3 1
     2    2    4 1
     3    3    9 1
     4    4   12 1
     5    5    6 1
     6    7    8 1
     7    9   10 1
     8   11    9 1
     9   12    9 1
    10   13   12 1
    11   14   12 1
    12   15    1 2
    13   16   15 1
    14   17   15 1
    15   18    5 1
    16   19   18 ar
    17   20   19 1
    18   21   19 ar
    19   22   21 1
    20   23   21 ar
    21   24   17 ar
    22   25   24 ar
    23   26   25 1
    24   27   25 ar
    25   28   27 1
    26   29   27 ar
    27   30   29 1
    28   31   23 ar
    29   32   31 1
    30   33    2 2
    31   34   33 1
    32   35   33 1
    33   36    7 1
    34   37   36 ar
    35   38   37 1
    36   39   37 ar
    37   40   39 1
    38   41   39 ar
    39   42   35 ar
    40   43   42 ar
    41   44   43 1
    42   45   43 ar
    43   46   45 1
    44   47   45 ar
    45   48   47 1
    46   49   41 ar
    47   50   49 1
    48   17   18 ar
    49   23   24 ar
    50   29   31 ar
    51   35   36 ar
    52   41   42 ar
    53   47   49 ar
@<TRIPOS>SUBSTRUCTURE
     1 RES1 1

@<TRIPOS>CRYSIN
  14.6080    4.6696   28.7510  90.0000  90.4640  90.0000  14 1

