# MOL2 file generated by ConQuest
# Please check atom types

@<TRIPOS>MOLECULE
DODKIQ
    44    45     1
SMALL
NO_CHARGES
****
Generated from CSD

@<TRIPOS>ATOM
      1 O1        -0.9409    3.5343    6.5445 O.2       1 RES1    0.0000
      2 O2         0.7021    2.2032    7.2772 O.3       1 RES1    0.0000
      3 O3         4.1542    7.3910    9.9558 O.2       1 RES1    0.0000
      4 O4         2.7168    8.8082    9.1831 O.2       1 RES1    0.0000
      5 N1         3.1256    7.6687    9.3595 N.pl3     1 RES1    0.0000
      6 C1         0.8768    4.4856    7.7781 C.ar      1 RES1    0.0000
      7 C2         0.3584    5.7765    7.7434 C.ar      1 RES1    0.0000
      8 C3         1.0813    6.8276    8.2739 C.ar      1 RES1    0.0000
      9 C4         2.3139    6.5511    8.8290 C.ar      1 RES1    0.0000
     10 C5         2.8438    5.2774    8.8959 C.ar      1 RES1    0.0000
     11 C6         2.1155    4.2435    8.3563 C.ar      1 RES1    0.0000
     12 C7         0.0966    3.3863    7.1330 C.2       1 RES1    0.0000
     13 C8         0.0731    1.0591    6.6423 C.3       1 RES1    0.0000
     14 C9         1.0537   -0.1021    6.8059 C.3       1 RES1    0.0000
     15 H1        -0.4946    5.9326    7.3532 H         1 RES1    0.0000
     16 H2         0.7391    7.7112    8.2546 H         1 RES1    0.0000
     17 H3         3.6895    5.1179    9.2977 H         1 RES1    0.0000
     18 H4         2.4585    3.3622    8.3834 H         1 RES1    0.0000
     19 H5        -0.6891    0.7574    7.1214 H         1 RES1    0.0000
     20 H6        -0.1098    1.0442    5.7048 H         1 RES1    0.0000
     21 H7         1.2523   -0.2065    7.7266 H         1 RES1    0.0000
     22 H8         0.6398   -0.8950    6.4775 H         1 RES1    0.0000
     23 C9B        2.3115    0.1021    6.0718 C.3       1 RES1    0.0000
     24 C8B        3.2921   -1.0591    6.2354 C.3       1 RES1    0.0000
     25 H7B        2.1129    0.2066    5.1511 H         1 RES1    0.0000
     26 H8B        2.7254    0.8951    6.4002 H         1 RES1    0.0000
     27 O2B        2.6631   -2.2032    5.6005 O.3       1 RES1    0.0000
     28 H5B        4.0543   -0.7573    5.7563 H         1 RES1    0.0000
     29 H6B        3.4750   -1.0442    7.1729 H         1 RES1    0.0000
     30 C7B        3.2686   -3.3863    5.7447 C.2       1 RES1    0.0000
     31 O1B        4.3061   -3.5343    6.3333 O.2       1 RES1    0.0000
     32 C1B        2.4883   -4.4856    5.0996 C.ar      1 RES1    0.0000
     33 C2B        3.0068   -5.7765    5.1343 C.ar      1 RES1    0.0000
     34 C6B        1.2497   -4.2435    4.5214 C.ar      1 RES1    0.0000
     35 C3B        2.2839   -6.8276    4.6038 C.ar      1 RES1    0.0000
     36 H1B        3.8598   -5.9326    5.5245 H         1 RES1    0.0000
     37 C5B        0.5214   -5.2774    3.9818 C.ar      1 RES1    0.0000
     38 H4B        0.9067   -3.3622    4.4943 H         1 RES1    0.0000
     39 C4B        1.0513   -6.5511    4.0488 C.ar      1 RES1    0.0000
     40 H2B        2.6261   -7.7112    4.6231 H         1 RES1    0.0000
     41 H3B       -0.3243   -5.1178    3.5800 H         1 RES1    0.0000
     42 N1B        0.2396   -7.6687    3.5182 N.pl3     1 RES1    0.0000
     43 O3B       -0.7890   -7.3910    2.9220 O.2       1 RES1    0.0000
     44 O4B        0.6484   -8.8082    3.6946 O.2       1 RES1    0.0000
@<TRIPOS>BOND
     1    1   12 2
     2    2   12 1
     3    3    5 2
     4    4    5 2
     5    5    9 1
     6    6    7 ar
     7    7    8 ar
     8    8    9 ar
     9    9   10 ar
    10   10   11 ar
    11   11    6 ar
    12   12    6 1
    13   13    2 1
    14   14   13 1
    15   15    7 1
    16   16    8 1
    17   17   10 1
    18   18   11 1
    19   19   13 1
    20   20   13 1
    21   21   14 1
    22   22   14 1
    23   23   14 1
    24   24   23 1
    25   25   23 1
    26   26   23 1
    27   27   24 1
    28   28   24 1
    29   29   24 1
    30   30   27 1
    31   31   30 2
    32   32   30 1
    33   33   32 ar
    34   34   32 ar
    35   35   33 ar
    36   36   33 1
    37   37   34 ar
    38   38   34 1
    39   39   35 ar
    40   40   35 1
    41   41   37 1
    42   42   39 1
    43   43   42 2
    44   44   42 2
    45   37   39 ar
@<TRIPOS>SUBSTRUCTURE
     1 RES1 1

@<TRIPOS>CRYSIN
   6.0860   11.4750   13.1620  90.0000 101.9300  90.0000  14 1

