# MOL2 file generated by ConQuest
# Please check atom types

@<TRIPOS>MOLECULE
DODNUH
    40    43     1
SMALL
NO_CHARGES
****
Generated from CSD

@<TRIPOS>ATOM
      1 O1         3.1819    6.5258    5.5169 O.3       1 RES1    0.0000
      2 C1         0.7387    8.1720    5.5505 C.ar      1 RES1    0.0000
      3 C2         2.1748    6.3648    4.5236 C.3       1 RES1    0.0000
      4 C3         2.6405    6.9621    3.2047 C.ar      1 RES1    0.0000
      5 C4         1.7687    9.1128    5.5764 C.ar      1 RES1    0.0000
      6 C5         3.9867    7.0430    2.8869 C.ar      1 RES1    0.0000
      7 C6         3.2690    5.3165    6.2913 C.3       1 RES1    0.0000
      8 C7         4.3738    7.4201    1.6092 C.ar      1 RES1    0.0000
      9 C8        -0.5033    8.5061    6.1061 C.ar      1 RES1    0.0000
     10 C9         1.5590   10.3550    6.1675 C.ar      1 RES1    0.0000
     11 C10        1.8787    4.8389    4.4290 C.3       1 RES1    0.0000
     12 C11        0.4332    4.7211    4.9190 C.3       1 RES1    0.0000
     13 C12        3.4337    7.7432    0.6502 C.ar      1 RES1    0.0000
     14 C13       -0.6898    9.7455    6.6907 C.ar      1 RES1    0.0000
     15 C14        0.3378   10.6728    6.7312 C.ar      1 RES1    0.0000
     16 C15        1.6989    7.2891    2.2311 C.ar      1 RES1    0.0000
     17 C16        2.9811    4.2187    5.2934 C.3       1 RES1    0.0000
     18 C17        2.0941    7.6845    0.9696 C.ar      1 RES1    0.0000
     19 O2         0.2413    5.8893    5.7333 O.3       1 RES1    0.0000
     20 N1         0.8689    6.9210    4.9086 N.3       1 RES1    0.0000
     21 C18        0.0848    3.5057    5.7317 C.3       1 RES1    0.0000
     22 H1         2.6378    8.9112    5.1915 H         1 RES1    0.0000
     23 H2         2.3017   10.9824    6.2104 H         1 RES1    0.0000
     24 H3        -1.5559    9.9509    7.0837 H         1 RES1    0.0000
     25 H4         0.2125   11.5582    7.1161 H         1 RES1    0.0000
     26 H5        -1.2257    7.8592    6.0406 H         1 RES1    0.0000
     27 H6         2.6029    5.3172    7.0029 H         1 RES1    0.0000
     28 H7         4.1635    5.2927    6.6875 H         1 RES1    0.0000
     29 H8         3.7809    4.0701    4.7468 H         1 RES1    0.0000
     30 H9         2.7416    3.3824    5.7414 H         1 RES1    0.0000
     31 H10        1.9524    4.5531    3.5095 H         1 RES1    0.0000
     32 H11        4.6277    6.8208    3.5661 H         1 RES1    0.0000
     33 H12        0.7701    7.2206    2.4583 H         1 RES1    0.0000
     34 H13        5.3043    7.4266    1.3666 H         1 RES1    0.0000
     35 H14        1.4044    7.9506    0.3639 H         1 RES1    0.0000
     36 H15        3.6960    7.9956   -0.2386 H         1 RES1    0.0000
     37 H16       -0.1628    4.7974    4.1564 H         1 RES1    0.0000
     38 H17       -0.8433    3.5066    6.0082 H         1 RES1    0.0000
     39 H18        0.6427    3.4384    6.5177 H         1 RES1    0.0000
     40 H19        0.2570    2.7193    5.1915 H         1 RES1    0.0000
@<TRIPOS>BOND
     1    1    3 1
     2    2    5 ar
     3    3    4 1
     4    4    6 ar
     5    5   10 ar
     6    6    8 ar
     7    7    1 1
     8    8   13 ar
     9    9    2 ar
    10   10   15 ar
    11   11    3 1
    12   12   11 1
    13   13   18 ar
    14   14    9 ar
    15   15   14 ar
    16   16    4 ar
    17   17    7 1
    18   18   16 ar
    19   19   12 1
    20   20    2 1
    21   21   12 1
    22   22    5 1
    23   23   10 1
    24   24   14 1
    25   25   15 1
    26   26    9 1
    27   27    7 1
    28   28    7 1
    29   29   17 1
    30   30   17 1
    31   31   11 1
    32   32    6 1
    33   33   16 1
    34   34    8 1
    35   35   18 1
    36   36   13 1
    37   37   12 1
    38   38   21 1
    39   39   21 1
    40   40   21 1
    41    3   20 1
    42   11   17 1
    43   19   20 1
@<TRIPOS>SUBSTRUCTURE
     1 RES1 1

@<TRIPOS>CRYSIN
   6.5770   13.6444    8.0893  90.0000  91.5190  90.0000   4 1

