# MOL2 file generated by ConQuest
# Please check atom types

@<TRIPOS>MOLECULE
DODPOD
    61    62     2
SMALL
NO_CHARGES
****
Generated from CSD

@<TRIPOS>ATOM
      1 O1         1.6761    1.6693    3.3730 O.3       1 RES1    0.0000
      2 O2         1.2912   -0.0576    1.9863 O.2       1 RES1    0.0000
      3 O3        -2.7036    0.2061   -0.8076 O.2       1 RES1    0.0000
      4 O4        -4.1394    1.7940   -0.5450 O.2       1 RES1    0.0000
      5 O5        -3.0993    5.4283    2.4892 O.2       1 RES1    0.0000
      6 O6        -1.3903    5.2454    3.8000 O.2       1 RES1    0.0000
      7 N1        -3.0801    1.2487   -0.2998 N.pl3     1 RES1    0.0000
      8 N2        -2.1391    4.8254    2.9232 N.pl3     1 RES1    0.0000
      9 C1         2.8101    0.9754    3.9883 C.3       1 RES1    0.0000
     10 H1         2.6327   -0.0006    4.1167 H         1 RES1    0.0000
     11 C2         3.0508    1.6942    5.3081 C.3       1 RES1    0.0000
     12 H2         3.6858    1.1376    5.8441 H         1 RES1    0.0000
     13 C3         3.7958    2.9613    4.8748 C.3       1 RES1    0.0000
     14 H3         4.3337    3.3260    5.6223 H         1 RES1    0.0000
     15 H4         3.1596    3.6563    4.5699 H         1 RES1    0.0000
     16 C4         4.7010    2.5039    3.7202 C.3       1 RES1    0.0000
     17 H5         4.7396    3.1959    3.0131 H         1 RES1    0.0000
     18 H6         5.6200    2.3316    4.0465 H         1 RES1    0.0000
     19 C5         4.0798    1.2303    3.1851 C.3       1 RES1    0.0000
     20 H7         4.7081    0.4723    3.2880 H         1 RES1    0.0000
     21 H8         3.8624    1.3312    2.2243 H         1 RES1    0.0000
     22 C6         1.0106    1.0253    2.4334 C.2       1 RES1    0.0000
     23 C7        -0.1986    1.7958    1.9963 C.ar      1 RES1    0.0000
     24 C8        -1.0170    1.2487    1.0160 C.ar      1 RES1    0.0000
     25 H9        -0.7694    0.4420    0.5802 H         1 RES1    0.0000
     26 C9        -2.1869    1.8873    0.6832 C.ar      1 RES1    0.0000
     27 C10       -2.5887    3.0718    1.2669 C.ar      1 RES1    0.0000
     28 H10       -3.3969    3.5054    1.0202 H         1 RES1    0.0000
     29 C11       -1.7415    3.5892    2.2339 C.ar      1 RES1    0.0000
     30 C12       -0.5626    2.9821    2.6134 C.ar      1 RES1    0.0000
     31 H11       -0.0118    3.3694    3.2842 H         1 RES1    0.0000
     32 C13        1.8184    1.9419    6.1659 C.3       1 RES1    0.0000
     33 H12        1.2485    2.6061    5.7038 H         1 RES1    0.0000
     34 H13        2.1119    2.3476    7.0198 H         1 RES1    0.0000
     35 C14        0.9576    0.7182    6.4909 C.3       1 RES1    0.0000
     36 H14        0.6990    0.2863    5.6260 H         1 RES1    0.0000
     37 C15       -0.3361    1.1073    7.2283 C.3       1 RES1    0.0000
     38 H15       -0.0757    1.5748    8.0722 H         1 RES1    0.0000
     39 C16       -1.2225    2.0607    6.4234 C.3       1 RES1    0.0000
     40 H16       -0.7144    2.8876    6.2271 H         1 RES1    0.0000
     41 H17       -1.4535    1.6360    5.5597 H         1 RES1    0.0000
     42 C17       -2.5072    2.4278    7.1588 C.3       1 RES1    0.0000
     43 H18       -2.2764    2.9346    7.9773 H         1 RES1    0.0000
     44 H19       -3.0508    3.0195    6.5798 H         1 RES1    0.0000
     45 C18       -3.3339    1.2213    7.5439 C.3       1 RES1    0.0000
     46 H20       -3.6240    0.7639    6.7031 H         1 RES1    0.0000
     47 C19       -2.4715    0.2542    8.3323 C.3       1 RES1    0.0000
     48 H21       -2.9906   -0.5703    8.5064 H         1 RES1    0.0000
     49 H22       -2.2478    0.6612    9.2061 H         1 RES1    0.0000
     50 C20       -1.1756   -0.1182    7.6135 C.3       1 RES1    0.0000
     51 H23       -1.3966   -0.6291    6.7941 H         1 RES1    0.0000
     52 H24       -0.6383   -0.7063    8.2011 H         1 RES1    0.0000
     53 C21        1.7791   -0.2911    7.2917 C.3       1 RES1    0.0000
     54 H25        1.2646   -1.1180    7.4009 H         1 RES1    0.0000
     55 H26        1.9868    0.0832    8.1727 H         1 RES1    0.0000
     56 H27        2.6124   -0.4853    6.8150 H         1 RES1    0.0000
     57 C22       -4.5790    1.6104    8.3211 C.3       1 RES1    0.0000
     58 H28       -5.1242    0.8126    8.4855 H         1 RES1    0.0000
     59 H29       -5.0984    2.2591    7.8029 H         1 RES1    0.0000
     60 H30       -4.3181    2.0096    9.1776 H         1 RES1    0.0000
     61 O7        -1.6756    5.0553    4.0408 Du        2 SUP2    0.0000
@<TRIPOS>BOND
     1    1    9 1
     2    2   22 2
     3    3    7 2
     4    4    7 2
     5    5    8 2
     6    6    8 2
     7    7   26 1
     8    8   29 1
     9    9   10 1
    10   11    9 1
    11   12   11 1
    12   13   11 1
    13   14   13 1
    14   15   13 1
    15   16   13 1
    16   17   16 1
    17   18   16 1
    18   19    9 1
    19   20   19 1
    20   21   19 1
    21   22    1 1
    22   23   22 1
    23   24   23 ar
    24   25   24 1
    25   26   24 ar
    26   27   26 ar
    27   28   27 1
    28   29   27 ar
    29   30   23 ar
    30   31   30 1
    31   32   11 1
    32   33   32 1
    33   34   32 1
    34   35   32 1
    35   36   35 1
    36   37   35 1
    37   38   37 1
    38   39   37 1
    39   40   39 1
    40   41   39 1
    41   42   39 1
    42   43   42 1
    43   44   42 1
    44   45   42 1
    45   46   45 1
    46   47   45 1
    47   48   47 1
    48   49   47 1
    49   50   37 1
    50   51   50 1
    51   52   50 1
    52   53   35 1
    53   54   53 1
    54   55   53 1
    55   56   53 1
    56   57   45 1
    57   58   57 1
    58   59   57 1
    59   60   57 1
    60   16   19 1
    61   29   30 ar
    62   47   50 1
@<TRIPOS>SUBSTRUCTURE
     1 RES1 1
     2 SUP2 61

@<TRIPOS>CRYSIN
   9.8498    5.9404   18.9767  90.0000  92.2490  90.0000   4 1

