# MOL2 file generated by ConQuest
# Please check atom types

@<TRIPOS>MOLECULE
DOHCUY
    37    37     1
SMALL
NO_CHARGES
****
Generated from CSD

@<TRIPOS>ATOM
      1 C1         8.8946    2.5759    3.9401 C.ar      1 RES1    0.0000
      2 C2         8.9576    1.4137    3.1628 C.ar      1 RES1    0.0000
      3 C3         7.8837    0.5979    2.8000 C.ar      1 RES1    0.0000
      4 C4         6.6221    0.9327    3.2522 C.ar      1 RES1    0.0000
      5 C5         6.4668    2.0394    4.0782 C.ar      1 RES1    0.0000
      6 C6         7.5877    2.8039    4.3724 C.ar      1 RES1    0.0000
      7 C7        10.1156    3.4691    4.3148 C.3       1 RES1    0.0000
      8 C8         9.7381    4.9690    4.4500 C.3       1 RES1    0.0000
      9 C9        11.2291    3.4632    3.2423 C.3       1 RES1    0.0000
     10 C10       10.7079    2.9647    5.6258 C.3       1 RES1    0.0000
     11 C11        5.1070    2.4048    4.6239 C.3       1 RES1    0.0000
     12 C12        5.4124    0.1111    2.8477 C.3       1 RES1    0.0000
     13 C13        8.0849   -0.6257    1.9343 C.3       1 RES1    0.0000
     14 N1         7.2844    3.9369    5.2710 N.pl3     1 RES1    0.0000
     15 N2        10.2561    0.9268    2.6429 N.pl3     1 RES1    0.0000
     16 O1         7.4976    3.7775    6.4598 O.2       1 RES1    0.0000
     17 O2         6.7670    4.9354    4.7889 O.2       1 RES1    0.0000
     18 O3        10.5251    1.1461    1.4810 O.2       1 RES1    0.0000
     19 O4        10.9527    0.2851    3.4153 O.2       1 RES1    0.0000
     20 H1         9.1438    5.0143    5.4270 H         1 RES1    0.0000
     21 H2         9.1390    5.2190    3.6180 H         1 RES1    0.0000
     22 H3        10.5386    5.4529    4.3933 H         1 RES1    0.0000
     23 H4        10.9016    3.8887    2.2961 H         1 RES1    0.0000
     24 H5        11.9154    4.0641    3.4988 H         1 RES1    0.0000
     25 H6        11.7977    2.4121    3.2006 H         1 RES1    0.0000
     26 H7        11.1187    2.0174    5.4370 H         1 RES1    0.0000
     27 H8         9.9247    3.1431    6.3514 H         1 RES1    0.0000
     28 H9        11.3917    3.5232    5.9340 H         1 RES1    0.0000
     29 H10        4.6160    2.7922    4.0355 H         1 RES1    0.0000
     30 H11        4.6182    1.7397    4.9201 H         1 RES1    0.0000
     31 H12        5.2234    2.9092    5.4867 H         1 RES1    0.0000
     32 H13        4.8484    0.6725    2.4352 H         1 RES1    0.0000
     33 H14        5.7471   -0.6871    2.4650 H         1 RES1    0.0000
     34 H15        4.9149   -0.2485    3.5484 H         1 RES1    0.0000
     35 H16        7.6477   -0.4386    0.9741 H         1 RES1    0.0000
     36 H17        8.9999   -0.9502    1.8289 H         1 RES1    0.0000
     37 H18        7.8939   -1.4034    2.3358 H         1 RES1    0.0000
@<TRIPOS>BOND
     1    1    2 ar
     2    2    3 ar
     3    3    4 ar
     4    4    5 ar
     5    5    6 ar
     6    6    1 ar
     7    7    1 1
     8    8    7 1
     9    9    7 1
    10   10    7 1
    11   11    5 1
    12   12    4 1
    13   13    3 1
    14   14    6 1
    15   15    2 1
    16   16   14 2
    17   17   14 2
    18   18   15 2
    19   19   15 2
    20   20    8 1
    21   21    8 1
    22   22    8 1
    23   23    9 1
    24   24    9 1
    25   25    9 1
    26   26   10 1
    27   27   10 1
    28   28   10 1
    29   29   11 1
    30   30   11 1
    31   31   11 1
    32   32   12 1
    33   33   12 1
    34   34   12 1
    35   35   13 1
    36   36   13 1
    37   37   13 1
@<TRIPOS>SUBSTRUCTURE
     1 RES1 1

@<TRIPOS>CRYSIN
   9.6100   14.6190   11.0060  90.0000 115.4300  90.0000 231 1

