# MOL2 file generated by ConQuest
# Please check atom types

@<TRIPOS>MOLECULE
DOHGIS
    56    58     1
SMALL
NO_CHARGES
****
Generated from CSD

@<TRIPOS>ATOM
      1 O1         8.3462    2.2083   -3.5681 O.2       1 RES1    0.0000
      2 O2         8.4514    0.0739   -3.7755 O.2       1 RES1    0.0000
      3 O3         4.6142   -5.9507    1.6476 O.2       1 RES1    0.0000
      4 O4         5.4841   -5.6508   -0.2835 O.2       1 RES1    0.0000
      5 N1         5.0558    0.2845    1.3850 N.3       1 RES1    0.0000
      6 N2         8.0817    1.0753   -3.1825 N.pl3     1 RES1    0.0000
      7 N3         5.0471   -5.2218    0.7696 N.pl3     1 RES1    0.0000
      8 C1         5.7789    0.6716    0.2770 C.ar      1 RES1    0.0000
      9 C2         6.1621    1.9516   -0.1311 C.ar      1 RES1    0.0000
     10 H1         5.9111    2.7038    0.3545 H         1 RES1    0.0000
     11 C3         6.9145    2.0658   -1.2596 C.ar      1 RES1    0.0000
     12 H2         7.1865    2.9054   -1.5528 H         1 RES1    0.0000
     13 C4         7.2794    0.9248   -1.9795 C.ar      1 RES1    0.0000
     14 C5         6.9139   -0.3503   -1.6003 C.ar      1 RES1    0.0000
     15 H3         7.1753   -1.0948   -2.0930 H         1 RES1    0.0000
     16 C6         6.1455   -0.4789   -0.4611 C.ar      1 RES1    0.0000
     17 C7         5.6084   -1.6135    0.2567 C.ar      1 RES1    0.0000
     18 C8         5.6635   -2.9786    0.0503 C.ar      1 RES1    0.0000
     19 H4         6.1053   -3.3400   -0.6835 H         1 RES1    0.0000
     20 C9         5.0352   -3.7840    0.9806 C.ar      1 RES1    0.0000
     21 C10        4.3736   -3.2758    2.0991 C.ar      1 RES1    0.0000
     22 H5         3.9660   -3.8564    2.7013 H         1 RES1    0.0000
     23 C11        4.3237   -1.9195    2.3133 C.ar      1 RES1    0.0000
     24 H6         3.8888   -1.5665    3.0558 H         1 RES1    0.0000
     25 C12        4.9432   -1.0909    1.3879 C.ar      1 RES1    0.0000
     26 C13        4.5744    1.1842    2.4342 C.3       1 RES1    0.0000
     27 H7         5.1481    1.9652    2.4621 H         1 RES1    0.0000
     28 H8         4.6504    0.7332    3.2901 H         1 RES1    0.0000
     29 C14        3.1679    1.6297    2.2529 C.3       1 RES1    0.0000
     30 H9         2.5826    0.8563    2.2497 H         1 RES1    0.0000
     31 H10        3.0796    2.0753    1.3962 H         1 RES1    0.0000
     32 C15        2.7374    2.5862    3.3670 C.3       1 RES1    0.0000
     33 H11        2.8455    2.1428    4.2225 H         1 RES1    0.0000
     34 H12        3.3197    3.3618    3.3593 H         1 RES1    0.0000
     35 C16        1.3209    3.0372    3.2282 C.3       1 RES1    0.0000
     36 H13        0.7405    2.2626    3.2877 H         1 RES1    0.0000
     37 H14        1.2031    3.4261    2.3468 H         1 RES1    0.0000
     38 C17        0.8854    4.0569    4.2735 C.3       1 RES1    0.0000
     39 H15       -0.0802    4.1396    4.2371 H         1 RES1    0.0000
     40 H16        1.1140    3.7126    5.1513 H         1 RES1    0.0000
     41 C18        1.4910    5.4415    4.1290 C.3       1 RES1    0.0000
     42 H17        1.3503    5.7476    3.2197 H         1 RES1    0.0000
     43 H18        2.4485    5.3772    4.2735 H         1 RES1    0.0000
     44 C19        0.9240    6.4796    5.0857 C.3       1 RES1    0.0000
     45 H19       -0.0446    6.4524    5.0335 H         1 RES1    0.0000
     46 H20        1.1757    6.2378    5.9902 H         1 RES1    0.0000
     47 C20        1.3772    7.8806    4.8210 C.3       1 RES1    0.0000
     48 H21        1.1390    8.1148    3.9105 H         1 RES1    0.0000
     49 H22        2.3446    7.9089    4.8866 H         1 RES1    0.0000
     50 C21        0.8029    8.9286    5.7522 C.3       1 RES1    0.0000
     51 H23       -0.1633    8.8381    5.7680 H         1 RES1    0.0000
     52 H24        1.1292    8.7630    6.6506 H         1 RES1    0.0000
     53 C22        1.1543   10.3339    5.3589 C.3       1 RES1    0.0000
     54 H25        0.7371   10.5441    4.5187 H         1 RES1    0.0000
     55 H26        2.1057   10.4134    5.2714 H         1 RES1    0.0000
     56 H27        0.8413   10.9417    6.0327 H         1 RES1    0.0000
@<TRIPOS>BOND
     1    1    6 2
     2    2    6 2
     3    3    7 2
     4    4    7 2
     5    5    8 1
     6    6   13 1
     7    7   20 1
     8    8    9 ar
     9    9   10 1
    10   11    9 ar
    11   12   11 1
    12   13   11 ar
    13   14   13 ar
    14   15   14 1
    15   16    8 ar
    16   17   16 1
    17   18   17 ar
    18   19   18 1
    19   20   18 ar
    20   21   20 ar
    21   22   21 1
    22   23   21 ar
    23   24   23 1
    24   25    5 1
    25   26    5 1
    26   27   26 1
    27   28   26 1
    28   29   26 1
    29   30   29 1
    30   31   29 1
    31   32   29 1
    32   33   32 1
    33   34   32 1
    34   35   32 1
    35   36   35 1
    36   37   35 1
    37   38   35 1
    38   39   38 1
    39   40   38 1
    40   41   38 1
    41   42   41 1
    42   43   41 1
    43   44   41 1
    44   45   44 1
    45   46   44 1
    46   47   44 1
    47   48   47 1
    48   49   47 1
    49   50   47 1
    50   51   50 1
    51   52   50 1
    52   53   50 1
    53   54   53 1
    54   55   53 1
    55   56   53 1
    56   14   16 ar
    57   17   25 ar
    58   23   25 ar
@<TRIPOS>SUBSTRUCTURE
     1 RES1 1

@<TRIPOS>CRYSIN
  15.8756   10.8938   12.1974  90.0000  95.5320  90.0000  14 1

