# MOL2 file generated by ConQuest
# Please check atom types

@<TRIPOS>MOLECULE
DOJHEP
    42    41     1
SMALL
NO_CHARGES
****
Generated from CSD

@<TRIPOS>ATOM
      1 O1         1.9299   -0.2907   12.2768 O.2       1 RES1    0.0000
      2 O2        -3.3046   -1.7703   16.1870 O.2       1 RES1    0.0000
      3 O3        -3.1710   -1.6335   18.3568 O.3       1 RES1    0.0000
      4 O4         0.9481    1.6558   18.6094 O.3       1 RES1    0.0000
      5 N1         2.5086    1.8334   12.6754 N.am      1 RES1    0.0000
      6 N2         0.3573    0.7576   17.7384 N.2       1 RES1    0.0000
      7 C1         1.9120    0.6892   13.0035 C.2       1 RES1    0.0000
      8 C2         1.1775    0.5905   14.3590 C.3       1 RES1    0.0000
      9 C3        -0.3594    0.8430   14.2886 C.3       1 RES1    0.0000
     10 C4        -0.9167    0.5945   15.7197 C.3       1 RES1    0.0000
     11 C5        -2.4107    0.9141   15.8520 C.3       1 RES1    0.0000
     12 C6        -3.0223    0.3551   17.1628 C.3       1 RES1    0.0000
     13 C7        -3.1717   -1.1153   17.1577 C.2       1 RES1    0.0000
     14 C8        -0.6338    2.2227   13.8832 C.1       1 RES1    0.0000
     15 C9        -0.9053    3.3248   13.5911 C.1       1 RES1    0.0000
     16 C10       -1.0117   -0.1263   13.3025 C.3       1 RES1    0.0000
     17 C11       -0.1872    1.3599   16.7642 C.2       1 RES1    0.0000
     18 C12        3.2324    1.8847   11.3955 C.3       1 RES1    0.0000
     19 C13        2.6036    3.0447   13.4726 C.3       1 RES1    0.0000
     20 C14       -3.3517   -3.0578   18.4668 C.3       1 RES1    0.0000
     21 H1         1.5626    1.1903   19.1815 H         1 RES1    0.0000
     22 H2         1.3204   -0.2907   14.7112 H         1 RES1    0.0000
     23 H3         1.5598    1.2402   14.9535 H         1 RES1    0.0000
     24 H4        -0.7831   -0.3459   15.8606 H         1 RES1    0.0000
     25 H5        -2.5243    1.8676   15.8417 H         1 RES1    0.0000
     26 H6        -2.8751    0.5274   15.1064 H         1 RES1    0.0000
     27 H7        -3.8883    0.7497   17.2882 H         1 RES1    0.0000
     28 H8        -2.4500    0.5997   17.8947 H         1 RES1    0.0000
     29 H9        -1.2804    4.1100   13.2801 H         1 RES1    0.0000
     30 H10       -0.8138   -1.0285   13.5688 H         1 RES1    0.0000
     31 H11       -0.6516    0.0289   12.4229 H         1 RES1    0.0000
     32 H12       -1.9549    0.0105   13.2939 H         1 RES1    0.0000
     33 H13       -0.1272    2.3161   16.7007 H         1 RES1    0.0000
     34 H14        3.6047    2.7619   11.2735 H         1 RES1    0.0000
     35 H15        2.6265    1.6913   10.6774 H         1 RES1    0.0000
     36 H16        3.9390    1.2350   11.4024 H         1 RES1    0.0000
     37 H17        3.0816    3.7154   12.9795 H         1 RES1    0.0000
     38 H18        3.0716    2.8540   14.2886 H         1 RES1    0.0000
     39 H19        1.7219    3.3643   13.6753 H         1 RES1    0.0000
     40 H20       -3.3560   -3.3090   19.3945 H         1 RES1    0.0000
     41 H21       -2.6336   -3.5090   18.0167 H         1 RES1    0.0000
     42 H22       -4.1877   -3.3064   18.0648 H         1 RES1    0.0000
@<TRIPOS>BOND
     1    1    7 2
     2    2   13 2
     3    3   13 1
     4    4    6 1
     5    5    7 1
     6    6   17 2
     7    7    8 1
     8    8    9 1
     9    9   10 1
    10   10   11 1
    11   11   12 1
    12   12   13 1
    13   14    9 1
    14   15   14 3
    15   16    9 1
    16   17   10 1
    17   18    5 1
    18   19    5 1
    19   20    3 1
    20   21    4 1
    21   22    8 1
    22   23    8 1
    23   24   10 1
    24   25   11 1
    25   26   11 1
    26   27   12 1
    27   28   12 1
    28   29   15 1
    29   30   16 1
    30   31   16 1
    31   32   16 1
    32   33   17 1
    33   34   18 1
    34   35   18 1
    35   36   18 1
    36   37   19 1
    37   38   19 1
    38   39   19 1
    39   40   20 1
    40   41   20 1
    41   42   20 1
@<TRIPOS>SUBSTRUCTURE
     1 RES1 1

@<TRIPOS>CRYSIN
   7.1450   13.1520   17.1800  90.0000  90.0000  90.0000  19 1

