# MOL2 file generated by ConQuest
# Please check atom types

@<TRIPOS>MOLECULE
DOJKUJ
    12    11     2
SMALL
USER_CHARGES
****
Generated from CSD

@<TRIPOS>ATOM
      1 H1         1.5873    9.4018    0.8691 H         1 RES1    0.0000
      2 H2         3.9341    4.6452    2.0535 Du        2 SUP2    0.0000
      3 O1         1.8714    8.8711    0.2306 O.3       1 RES1    0.0000
      4 O2         4.3615    5.0685    1.4428 O.2       1 RES1   -1.0000
      5 N1         2.8498    8.1014    0.7931 N.pl3     1 RES1    0.0000
      6 N2         3.9566    6.3622    1.3526 N.pl3     1 RES1    1.0000
      7 C1         2.8290    6.7680    0.7709 C.2       1 RES1    0.0000
      8 H3         2.1518    6.2220    0.4149 H         1 RES1    0.0000
      9 C2         3.9928    8.5489    1.3906 C.2       1 RES1    0.0000
     10 H4         4.2450    9.4443    1.5264 H         1 RES1    0.0000
     11 C3         4.6934    7.4396    1.7499 C.2       1 RES1    0.0000
     12 H5         5.5250    7.4192    2.1880 H         1 RES1    0.0000
@<TRIPOS>BOND
     1    1    3 1
     2    3    5 1
     3    4    6 1
     4    5    7 1
     5    6    7 2
     6    7    8 1
     7    9    5 1
     8   10    9 1
     9   11    6 1
    10   12   11 1
    11    9   11 2
@<TRIPOS>SUBSTRUCTURE
     1 RES1 1
     2 SUP2 2

@<TRIPOS>CRYSIN
   5.7570   10.1203    7.0844  90.0000  98.3960  90.0000  14 1

