# MOL2 file generated by ConQuest
# Please check atom types

@<TRIPOS>MOLECULE
DOJNAS
    16    16     1
SMALL
USER_CHARGES
****
Generated from CSD

@<TRIPOS>ATOM
      1 N1         4.3373    0.3733    6.3163 N.pl3     1 RES1    0.0000
      2 C1         3.4441   -1.7049    5.1693 C.3       1 RES1    0.0000
      3 H1         2.4678   -1.7259    5.0865 H         1 RES1    0.0000
      4 H2         3.7125   -2.1725    5.9876 H         1 RES1    0.0000
      5 H3         3.8474   -2.1460    4.3929 H         1 RES1    0.0000
      6 C2         4.5513    1.7154    4.5878 C.2       1 RES1    0.0000
      7 H4         4.7449    2.4647    4.0358 H         1 RES1    0.0000
      8 O1         3.6741    0.1929    2.9349 O.2       1 RES1   -1.0000
      9 N2         4.0201    0.5117    4.1834 N.pl3     1 RES1    1.0000
     10 C3         4.7437    1.6245    5.9255 C.2       1 RES1    0.0000
     11 H5         5.0959    2.3025    6.4900 H         1 RES1    0.0000
     12 C4         4.3159   -0.1195    7.6864 C.3       1 RES1    0.0000
     13 H6         3.3885   -0.1838    7.9962 H         1 RES1    0.0000
     14 H7         4.8105    0.4991    8.2638 H         1 RES1    0.0000
     15 H8         4.7343   -1.0045    7.7220 H         1 RES1    0.0000
     16 C5         3.9012   -0.3027    5.2318 C.2       1 RES1    0.0000
@<TRIPOS>BOND
     1    1   10 1
     2    2    3 1
     3    4    2 1
     4    5    2 1
     5    6    7 1
     6    8    9 1
     7    9    6 1
     8   10    6 2
     9   11   10 1
    10   12    1 1
    11   13   12 1
    12   14   12 1
    13   15   12 1
    14   16    1 1
    15    2   16 1
    16    9   16 2
@<TRIPOS>SUBSTRUCTURE
     1 RES1 1

@<TRIPOS>CRYSIN
   7.2430    6.9901   11.2680  90.0000 104.2300  90.0000 231 1

