# MOL2 file generated by ConQuest
# Please check atom types

@<TRIPOS>MOLECULE
DOKZIN
    28    28     1
SMALL
NO_CHARGES
****
Generated from CSD

@<TRIPOS>ATOM
      1 O1         2.2067    2.2729    9.2036 O.2       1 RES1    0.0000
      2 O2         4.2858    2.5766    8.7069 O.2       1 RES1    0.0000
      3 O3        -0.5392    2.8265    5.9981 O.3       1 RES1    0.0000
      4 O4        -2.5487    1.8082    6.1995 O.2       1 RES1    0.0000
      5 N1         3.3736    0.8140    5.1220 N.2       1 RES1    0.0000
      6 N2         1.7904    1.0860    6.6572 N.pl3     1 RES1    0.0000
      7 N3         3.1545    2.1772    8.4346 N.pl3     1 RES1    0.0000
      8 N4        -2.0050    2.9995    4.3526 N.am      1 RES1    0.0000
      9 H1        -1.3842    3.4546    3.9701 H         1 RES1    0.0000
     10 C1         2.9789    1.5905    7.1555 C.2       1 RES1    0.0000
     11 C2         3.9221    1.4128    6.2049 C.2       1 RES1    0.0000
     12 H2         4.8146    1.6643    6.2822 H         1 RES1    0.0000
     13 C3         2.0901    0.6291    5.4165 C.2       1 RES1    0.0000
     14 C4         1.1150   -0.0080    4.4964 C.3       1 RES1    0.0000
     15 H3         1.5458   -0.2092    3.6630 H         1 RES1    0.0000
     16 H4         0.3822    0.5919    4.3415 H         1 RES1    0.0000
     17 H5         0.7864   -0.8201    4.8901 H         1 RES1    0.0000
     18 C5         0.4727    1.0410    7.3010 C.3       1 RES1    0.0000
     19 H6         0.5755    0.7224    8.2107 H         1 RES1    0.0000
     20 H7        -0.0907    0.4097    6.8262 H         1 RES1    0.0000
     21 C6        -0.2031    2.3823    7.3229 C.3       1 RES1    0.0000
     22 H8        -1.0111    2.3262    7.8562 H         1 RES1    0.0000
     23 H9         0.3856    3.0318    7.7385 H         1 RES1    0.0000
     24 C7        -1.7773    2.4844    5.5501 C.2       1 RES1    0.0000
     25 C8        -3.2632    2.8197    3.6711 C.3       1 RES1    0.0000
     26 H10       -3.3257    1.9187    3.3466 H         1 RES1    0.0000
     27 H11       -3.3165    3.4299    2.9310 H         1 RES1    0.0000
     28 H12       -3.9842    2.9917    4.2803 H         1 RES1    0.0000
@<TRIPOS>BOND
     1    1    7 2
     2    2    7 2
     3    3   21 1
     4    4   24 2
     5    5   11 1
     6    6   10 1
     7    7   10 1
     8    8    9 1
     9   10   11 2
    10   11   12 1
    11   13    5 2
    12   14   13 1
    13   15   14 1
    14   16   14 1
    15   17   14 1
    16   18    6 1
    17   19   18 1
    18   20   18 1
    19   21   18 1
    20   22   21 1
    21   23   21 1
    22   24    3 1
    23   25    8 1
    24   26   25 1
    25   27   25 1
    26   28   25 1
    27    6   13 1
    28    8   24 1
@<TRIPOS>SUBSTRUCTURE
     1 RES1 1

@<TRIPOS>CRYSIN
   9.6959    7.2898   15.5890  90.0000 101.4000  90.0000 231 1

