# MOL2 file generated by ConQuest
# Please check atom types

@<TRIPOS>MOLECULE
DOLQIE
    74    78     1
SMALL
NO_CHARGES
****
Generated from CSD

@<TRIPOS>ATOM
      1 O1        -1.4572    0.7597    6.5038 O.2       1 RES1    0.0000
      2 O2         0.7484    4.2347    8.3296 O.2       1 RES1    0.0000
      3 O3         5.6508    5.5756    7.4702 O.3       1 RES1    0.0000
      4 O4         1.6363    0.4167    7.4446 O.2       1 RES1    0.0000
      5 O5         1.6265   -1.8022    7.3642 O.3       1 RES1    0.0000
      6 O6        -1.9850    4.6036    3.3632 O.3       1 RES1    0.0000
      7 O7         0.3210    0.3510    3.3495 O.3       1 RES1    0.0000
      8 O8         3.3644    1.0422    2.2556 O.2       1 RES1    0.0000
      9 O9         3.1908   -0.8372    3.4692 O.3       1 RES1    0.0000
     10 N1         1.3008    3.6357    6.1996 N.am      1 RES1    0.0000
     11 N2        -0.6236    2.7868    7.1709 N.am      1 RES1    0.0000
     12 N3         0.2144    1.7288    5.2852 N.am      1 RES1    0.0000
     13 N4        -1.2697    3.5754    4.0225 N.2       1 RES1    0.0000
     14 C1         4.7643    4.8888    6.6843 C.ar      1 RES1    0.0000
     15 C2         5.3060    4.3842    5.5109 C.ar      1 RES1    0.0000
     16 C3         4.5108    3.6662    4.6289 C.ar      1 RES1    0.0000
     17 C4         3.1846    3.4575    4.9281 C.ar      1 RES1    0.0000
     18 C5         2.6678    3.9768    6.1074 C.ar      1 RES1    0.0000
     19 C6         3.4286    4.7136    7.0149 C.ar      1 RES1    0.0000
     20 C7         0.5157    3.6177    7.3220 C.2       1 RES1    0.0000
     21 C8        -0.6837    1.6750    6.3007 C.2       1 RES1    0.0000
     22 C9         0.8362    2.9873    4.9654 C.3       1 RES1    0.0000
     23 C10        2.1389    2.6434    4.2080 C.3       1 RES1    0.0000
     24 C11        2.2920    1.1234    4.4032 C.3       1 RES1    0.0000
     25 C12        0.8607    0.5685    4.6289 C.3       1 RES1    0.0000
     26 C13       -1.6246    2.8953    8.2148 C.ar      1 RES1    0.0000
     27 C14       -1.6603    2.0007    9.2528 C.ar      1 RES1    0.0000
     28 C15       -2.6387    2.1708   10.2359 C.ar      1 RES1    0.0000
     29 C16       -3.5166    3.1949   10.1721 C.ar      1 RES1    0.0000
     30 C17       -3.4706    4.0845    9.1361 C.ar      1 RES1    0.0000
     31 C18       -2.4986    3.9267    8.1540 C.ar      1 RES1    0.0000
     32 C19        5.1936    6.1392    8.6887 C.3       1 RES1    0.0000
     33 C20        0.8183   -0.7110    5.4667 C.3       1 RES1    0.0000
     34 C21        1.4024   -0.5924    6.8491 C.2       1 RES1    0.0000
     35 C22        2.1422   -1.8343    8.7377 C.3       1 RES1    0.0000
     36 C23        2.4120   -3.1986    9.1125 C.3       1 RES1    0.0000
     37 C24       -0.0787    3.9550    4.2325 C.2       1 RES1    0.0000
     38 C25        0.4827    5.2753    3.8459 C.3       1 RES1    0.0000
     39 C26       -3.2747    4.1130    3.0375 C.3       1 RES1    0.0000
     40 C27        3.0006    0.4674    3.2435 C.2       1 RES1    0.0000
     41 C28        3.6672   -1.6277    2.3341 C.3       1 RES1    0.0000
     42 C29        2.5476   -2.0219    1.4599 C.3       1 RES1    0.0000
     43 H1         4.8658    3.3260    3.8361 H         1 RES1    0.0000
     44 H2         6.2670    4.5092    5.3372 H         1 RES1    0.0000
     45 H3         2.9727    5.0742    7.8587 H         1 RES1    0.0000
     46 H4         6.0005    6.6126    9.1145 H         1 RES1    0.0000
     47 H5         4.8865    5.3557    9.3205 H         1 RES1    0.0000
     48 H6         4.3979    6.8214    8.4670 H         1 RES1    0.0000
     49 H7        -1.0088    1.3480    9.3107 H         1 RES1    0.0000
     50 H8        -2.6872    1.5280   10.8412 H         1 RES1    0.0000
     51 H9        -4.2845    3.4091   10.8216 H         1 RES1    0.0000
     52 H10       -4.0899    4.8436    9.1145 H         1 RES1    0.0000
     53 H11       -2.4700    4.5550    7.5055 H         1 RES1    0.0000
     54 H12        2.0897    2.8265    3.2769 H         1 RES1    0.0000
     55 H13        2.7955    0.9623    5.2391 H         1 RES1    0.0000
     56 H14       -0.4736    0.0131    3.4241 H         1 RES1    0.0000
     57 H15        4.3068   -1.0319    1.8641 H         1 RES1    0.0000
     58 H16        4.1518   -2.3639    2.7863 H         1 RES1    0.0000
     59 H17        2.8690   -2.5879    0.7555 H         1 RES1    0.0000
     60 H18        2.0105   -1.2048    1.1675 H         1 RES1    0.0000
     61 H19        1.9063   -2.4107    2.0211 H         1 RES1    0.0000
     62 H20       -0.1026   -1.0043    5.5727 H         1 RES1    0.0000
     63 H21        2.9715   -1.2440    8.8005 H         1 RES1    0.0000
     64 H22        1.3612   -1.3825    9.2126 H         1 RES1    0.0000
     65 H23        1.5415   -3.6891    9.0262 H         1 RES1    0.0000
     66 H24        2.6361   -3.2044    9.9975 H         1 RES1    0.0000
     67 H25        2.7528   -3.7468    8.5651 H         1 RES1    0.0000
     68 H26        1.3577    5.4086    4.0618 H         1 RES1    0.0000
     69 H27        0.2463    5.5237    2.9237 H         1 RES1    0.0000
     70 H28       -0.0608    5.9935    4.3071 H         1 RES1    0.0000
     71 H29       -3.7698    4.8528    2.6588 H         1 RES1    0.0000
     72 H30       -3.1796    3.3746    2.4822 H         1 RES1    0.0000
     73 H31       -3.7523    3.9029    3.9637 H         1 RES1    0.0000
     74 H32        1.2793   -1.3412    4.9644 H         1 RES1    0.0000
@<TRIPOS>BOND
     1    1   21 2
     2    2   20 2
     3    3   14 1
     4    4   34 2
     5    5   34 1
     6    6   13 1
     7    7   25 1
     8    8   40 2
     9    9   40 1
    10   10   18 1
    11   11   20 1
    12   12   21 1
    13   13   37 2
    14   14   15 ar
    15   15   16 ar
    16   16   17 ar
    17   17   18 ar
    18   18   19 ar
    19   19   14 ar
    20   20   10 1
    21   21   11 1
    22   22   10 1
    23   23   17 1
    24   24   23 1
    25   25   12 1
    26   26   11 1
    27   27   26 ar
    28   28   27 ar
    29   29   28 ar
    30   30   29 ar
    31   31   26 ar
    32   32    3 1
    33   33   25 1
    34   34   33 1
    35   35    5 1
    36   36   35 1
    37   37   22 1
    38   38   37 1
    39   39    6 1
    40   40   24 1
    41   41    9 1
    42   42   41 1
    43   43   16 1
    44   44   15 1
    45   45   19 1
    46   46   32 1
    47   47   32 1
    48   48   32 1
    49   49   27 1
    50   50   28 1
    51   51   29 1
    52   52   30 1
    53   53   31 1
    54   54   23 1
    55   55   24 1
    56   56    7 1
    57   57   41 1
    58   58   41 1
    59   59   42 1
    60   60   42 1
    61   61   42 1
    62   62   33 1
    63   63   35 1
    64   64   35 1
    65   65   36 1
    66   66   36 1
    67   67   36 1
    68   68   38 1
    69   69   38 1
    70   70   38 1
    71   71   39 1
    72   72   39 1
    73   73   39 1
    74   74   33 1
    75   12   22 1
    76   22   23 1
    77   24   25 1
    78   30   31 ar
@<TRIPOS>SUBSTRUCTURE
     1 RES1 1

@<TRIPOS>CRYSIN
  12.1710   12.3720   10.4310  92.2100 109.7500  89.1900   2 1

