# MOL2 file generated by ConQuest
# Please check atom types

@<TRIPOS>MOLECULE
DOLTAZ
    20    21     1
SMALL
USER_CHARGES
****
Generated from CSD

@<TRIPOS>ATOM
      1 O1         0.8392    7.6812    4.7698 O.2       1 RES1   -1.0000
      2 O2        -2.4537    4.7282    3.0356 O.2       1 RES1    0.0000
      3 O3        -1.7526    7.0245    1.7925 O.2       1 RES1    0.0000
      4 O4        -1.2448    8.5231    3.2575 O.2       1 RES1    0.0000
      5 N1         0.5263    5.5991    5.5727 N.pl3     1 RES1    1.0000
      6 N2        -1.3134    7.3535    2.8949 N.pl3     1 RES1    0.0000
      7 N3        -1.0352    4.0922    4.7213 N.pl3     1 RES1    0.0000
      8 C1         0.2008    6.6249    4.6995 C.2       1 RES1    0.0000
      9 C2        -0.8597    6.3208    3.7936 C.2       1 RES1    0.0000
     10 C3        -1.5262    5.0793    3.7269 C.2       1 RES1    0.0000
     11 C4        -1.6495    2.8576    4.7335 C.ar      1 RES1    0.0000
     12 C5        -1.2937    1.9217    5.6382 C.ar      1 RES1    0.0000
     13 C6        -0.2777    2.2051    6.5672 C.ar      1 RES1    0.0000
     14 C7         0.3433    3.4189    6.5502 C.ar      1 RES1    0.0000
     15 C8        -0.0529    4.3825    5.6115 C.ar      1 RES1    0.0000
     16 H1         1.1807    5.8065    6.2094 H         1 RES1    0.0000
     17 H2        -2.3195    2.7650    4.0749 H         1 RES1    0.0000
     18 H3        -1.7733    1.1060    5.6515 H         1 RES1    0.0000
     19 H4        -0.0730    1.5622    7.2645 H         1 RES1    0.0000
     20 H5         1.0819    3.6636    7.1675 H         1 RES1    0.0000
@<TRIPOS>BOND
     1    1    8 un
     2    2   10 2
     3    3    6 2
     4    4    6 2
     5    5    8 un
     6    6    9 1
     7    7   10 1
     8    8    9 un
     9    9   10 1
    10   11    7 ar
    11   12   11 ar
    12   13   12 ar
    13   14   13 ar
    14   15    5 1
    15   16    5 1
    16   17   11 1
    17   18   12 1
    18   19   13 1
    19   20   14 1
    20    7   15 ar
    21   14   15 ar
@<TRIPOS>SUBSTRUCTURE
     1 RES1 1

@<TRIPOS>CRYSIN
   4.7663   13.8250   12.2050  90.0000  96.4500  90.0000  14 1

