# MOL2 file generated by ConQuest
# Please check atom types

@<TRIPOS>MOLECULE
DOMJAS
    66    69     1
SMALL
NO_CHARGES
****
Generated from CSD

@<TRIPOS>ATOM
      1 O1        -0.5453   -1.1962   14.0341 O.3       1 RES1    0.0000
      2 C1         0.7409   -1.4190   14.3113 C.2       1 RES1    0.0000
      3 O2         1.3783   -2.3676   13.9096 O.2       1 RES1    0.0000
      4 C2         1.3365   -0.3618   15.2400 C.3       1 RES1    0.0000
      5 C3         2.8367   -0.1573   14.9121 C.3       1 RES1    0.0000
      6 C4         3.0703    1.3583   14.7453 C.3       1 RES1    0.0000
      7 N1         1.7085    1.8599   14.5076 N.3       1 RES1    0.0000
      8 C5         0.7042    1.0527   15.1376 C.3       1 RES1    0.0000
      9 N2         0.3483    1.3990   16.5487 N.am      1 RES1    0.0000
     10 C6         0.5704    0.2992   17.4125 C.ar      1 RES1    0.0000
     11 C7         1.1121   -0.7627   16.6847 C.ar      1 RES1    0.0000
     12 C8         1.4644   -1.9542   17.2918 C.ar      1 RES1    0.0000
     13 C9         1.2475   -2.0922   18.6663 C.ar      1 RES1    0.0000
     14 C10        0.7049   -1.0324   19.3921 C.ar      1 RES1    0.0000
     15 C11        0.3727    0.1802   18.7873 C.ar      1 RES1    0.0000
     16 C12       -0.4563    2.4986   16.7345 C.2       1 RES1    0.0000
     17 O3        -0.7656    3.2541   15.8358 O.2       1 RES1    0.0000
     18 O4        -0.8342    2.6272   18.0195 O.3       1 RES1    0.0000
     19 C13       -1.7150    3.7508   18.3189 C.3       1 RES1    0.0000
     20 C14       -1.8988    3.7353   19.8203 C.3       1 RES1    0.0000
     21 C15        3.9562    1.6529   13.5131 C.ar      1 RES1    0.0000
     22 C16        5.3622    1.5262   13.4361 C.ar      1 RES1    0.0000
     23 N3         6.1660    0.9785   14.5359 N.pl3     1 RES1    0.0000
     24 O5         7.3964    0.9982   14.4447 O.2       1 RES1    0.0000
     25 O6         5.5851    0.4755   15.4996 O.2       1 RES1    0.0000
     26 C17        6.0760    1.8621   12.2949 C.ar      1 RES1    0.0000
     27 C18        5.4108    2.2705   11.1495 C.ar      1 RES1    0.0000
     28 C19        4.0192    2.3266   11.1473 C.ar      1 RES1    0.0000
     29 C20        3.3313    2.0405   12.3295 C.ar      1 RES1    0.0000
     30 C21        3.2666    2.6918    9.8968 C.3       1 RES1    0.0000
     31 C22        3.6276    2.0840   15.9833 C.2       1 RES1    0.0000
     32 O7         3.3897    1.4128   17.1109 O.3       1 RES1    0.0000
     33 C23        3.7407    2.0951   18.3419 C.3       1 RES1    0.0000
     34 O8         4.1190    3.1916   15.9387 O.2       1 RES1    0.0000
     35 C24       -1.1931   -2.1631   13.1267 C.3       1 RES1    0.0000
     36 C25       -0.8748   -1.7658   11.6993 C.3       1 RES1    0.0000
     37 C26       -2.6639   -2.1306   13.4746 C.3       1 RES1    0.0000
     38 H1         3.3969   -0.5332   15.6130 H         1 RES1    0.0000
     39 H2         3.0446   -0.5945   14.0722 H         1 RES1    0.0000
     40 H3        -0.1233    1.0701   14.5988 H         1 RES1    0.0000
     41 H4         1.8614   -2.6608   16.7759 H         1 RES1    0.0000
     42 H5         1.4739   -2.9097   19.1140 H         1 RES1    0.0000
     43 H6         0.5526   -1.1402   20.3378 H         1 RES1    0.0000
     44 H7         0.0181    0.9054   19.2895 H         1 RES1    0.0000
     45 H8        -1.3092    4.5794   17.9949 H         1 RES1    0.0000
     46 H9        -2.5663    3.6135   17.8316 H         1 RES1    0.0000
     47 H10       -2.4080    4.5307   20.0940 H         1 RES1    0.0000
     48 H11       -1.0279    3.7590   20.2745 H         1 RES1    0.0000
     49 H12       -2.3838    2.9267   20.0989 H         1 RES1    0.0000
     50 H13        7.0167    1.8027   12.3119 H         1 RES1    0.0000
     51 H14        5.9031    2.5338   10.3737 H         1 RES1    0.0000
     52 H15        2.3707    2.1188   12.3339 H         1 RES1    0.0000
     53 H16        2.5038    3.2620   10.1055 H         1 RES1    0.0000
     54 H17        3.8247    3.1467    9.2669 H         1 RES1    0.0000
     55 H18        2.9357    1.8861    9.4668 H         1 RES1    0.0000
     56 H19        3.6243    1.4622   19.0555 H         1 RES1    0.0000
     57 H20        4.6697    2.3728   18.2997 H         1 RES1    0.0000
     58 H21        3.1645    2.8772   18.4533 H         1 RES1    0.0000
     59 H22       -0.8150   -3.0456   13.3286 H         1 RES1    0.0000
     60 H23       -1.2925   -2.3957   11.0637 H         1 RES1    0.0000
     61 H24        0.0995   -1.7473   11.5537 H         1 RES1    0.0000
     62 H25       -1.2440   -0.8862   11.5098 H         1 RES1    0.0000
     63 H26       -3.1539   -2.7088   12.8556 H         1 RES1    0.0000
     64 H27       -2.8085   -2.4533   14.3964 H         1 RES1    0.0000
     65 H28       -3.0236   -1.2163   13.3993 H         1 RES1    0.0000
     66 H29        1.5906    2.7228   14.5305 H         1 RES1    0.0000
@<TRIPOS>BOND
     1    1    2 1
     2    2    3 2
     3    4    2 1
     4    5    4 1
     5    6    5 1
     6    7    6 1
     7    8    4 1
     8    9    8 1
     9   10    9 1
    10   11    4 1
    11   12   11 ar
    12   13   12 ar
    13   14   13 ar
    14   15   10 ar
    15   16    9 1
    16   17   16 2
    17   18   16 1
    18   19   18 1
    19   20   19 1
    20   21    6 1
    21   22   21 ar
    22   23   22 1
    23   24   23 2
    24   25   23 2
    25   26   22 ar
    26   27   26 ar
    27   28   27 ar
    28   29   21 ar
    29   30   28 1
    30   31    6 1
    31   32   31 1
    32   33   32 1
    33   34   31 2
    34   35    1 1
    35   36   35 1
    36   37   35 1
    37   38    5 1
    38   39    5 1
    39   40    8 1
    40   41   12 1
    41   42   13 1
    42   43   14 1
    43   44   15 1
    44   45   19 1
    45   46   19 1
    46   47   20 1
    47   48   20 1
    48   49   20 1
    49   50   26 1
    50   51   27 1
    51   52   29 1
    52   53   30 1
    53   54   30 1
    54   55   30 1
    55   56   33 1
    56   57   33 1
    57   58   33 1
    58   59   35 1
    59   60   36 1
    60   61   36 1
    61   62   36 1
    62   63   37 1
    63   64   37 1
    64   65   37 1
    65   66    7 1
    66    7    8 1
    67   10   11 ar
    68   14   15 ar
    69   28   29 ar
@<TRIPOS>SUBSTRUCTURE
     1 RES1 1

@<TRIPOS>CRYSIN
  13.7695    7.3850   24.6016  90.0000  97.6950  90.0000  14 1

