# MOL2 file generated by ConQuest
# Please check atom types

@<TRIPOS>MOLECULE
DONTAB
    21    22     1
SMALL
USER_CHARGES
****
Generated from CSD

@<TRIPOS>ATOM
      1 N1        -3.8243    8.9782    4.9504 N.2       1 RES1   -1.0000
      2 O1        -3.6972    8.6462    3.5673 O.3       1 RES1    0.0000
      3 C1        -2.3731    8.7830    3.1983 C.2       1 RES1    0.0000
      4 C2        -1.6749    9.2243    4.3168 C.2       1 RES1    0.0000
      5 C3        -0.2102    9.4613    4.3761 C.3       1 RES1    0.0000
      6 N2         0.4419    8.6938    5.4839 N.4       1 RES1    1.0000
      7 C4         0.1781    9.2234    6.8542 C.3       1 RES1    0.0000
      8 C5        -1.2063    8.9140    7.3977 C.3       1 RES1    0.0000
      9 C6        -2.3628    9.7036    6.7698 C.3       1 RES1    0.0000
     10 C7        -2.6149    9.3197    5.3502 C.2       1 RES1    0.0000
     11 O2        -2.0583    8.5010    2.0175 O.2       1 RES1    0.0000
     12 H1         0.0410   10.4055    4.5127 H         1 RES1    0.0000
     13 H2         0.1831    9.1504    3.5330 H         1 RES1    0.0000
     14 H3         0.1739    7.8516    5.4282 H         1 RES1    0.0000
     15 H4         1.3321    8.7126    5.3280 H         1 RES1    0.0000
     16 H5         0.3267   10.2158    6.7941 H         1 RES1    0.0000
     17 H6         0.8510    8.8148    7.4306 H         1 RES1    0.0000
     18 H7        -1.3966    7.9391    7.3305 H         1 RES1    0.0000
     19 H8        -1.1479    9.1504    8.3175 H         1 RES1    0.0000
     20 H9        -2.1380   10.6536    6.7941 H         1 RES1    0.0000
     21 H10       -3.1765    9.5591    7.2590 H         1 RES1    0.0000
@<TRIPOS>BOND
     1    1    2 1
     2    2    3 1
     3    3    4 un
     4    4    5 1
     5    5    6 1
     6    6    7 1
     7    7    8 1
     8    8    9 1
     9    9   10 1
    10   10    1 un
    11   11    3 un
    12   12    5 1
    13   13    5 1
    14   14    6 1
    15   15    6 1
    16   16    7 1
    17   17    7 1
    18   18    8 1
    19   19    8 1
    20   20    9 1
    21   21    9 1
    22    4   10 un
@<TRIPOS>SUBSTRUCTURE
     1 RES1 1

@<TRIPOS>CRYSIN
   7.0220   14.5940    7.5670  90.0000 109.0700  90.0000 231 1

