# MOL2 file generated by ConQuest
# Please check atom types

@<TRIPOS>MOLECULE
DOPLOL01
    22    22     1
SMALL
NO_CHARGES
****
Generated from CSD

@<TRIPOS>ATOM
      1 O1         3.6495    9.0461    6.9888 O.2       1 RES1    0.0000
      2 O2         5.0081    5.1556    4.8107 O.2       1 RES1    0.0000
      3 O3         6.7848    4.0559    5.3840 O.2       1 RES1    0.0000
      4 O4         7.8978    4.5950   10.4823 O.2       1 RES1    0.0000
      5 O5         6.7213    6.1077   11.4615 O.2       1 RES1    0.0000
      6 N1         5.9073    4.8963    5.6143 N.pl3     1 RES1    0.0000
      7 N2         7.3731    3.9863    7.9693 N.3       1 RES1    0.0000
      8 N3         7.0821    5.5198   10.4531 N.pl3     1 RES1    0.0000
      9 N4         4.4173    9.6828    9.0009 N.am      1 RES1    0.0000
     10 C1         5.1947    7.5954    8.0368 C.ar      1 RES1    0.0000
     11 C2         5.2457    6.8058    6.8863 C.ar      1 RES1    0.0000
     12 C3         5.9415    5.6244    6.8721 C.ar      1 RES1    0.0000
     13 C4         6.6654    5.1281    8.0004 C.ar      1 RES1    0.0000
     14 C5         6.5189    5.9339    9.1713 C.ar      1 RES1    0.0000
     15 C6         5.8374    7.1315    9.1766 C.ar      1 RES1    0.0000
     16 C7         4.3781    8.8374    7.9720 C.2       1 RES1    0.0000
     17 H1         4.8184    7.0471    6.1361 H         1 RES1    0.0000
     18 H2         5.8494    7.5540    9.9880 H         1 RES1    0.0000
     19 H3         7.2802    3.4039    7.2493 H         1 RES1    0.0000
     20 H4         7.7661    3.7414    8.6333 H         1 RES1    0.0000
     21 H5         3.9476   10.4239    8.8952 H         1 RES1    0.0000
     22 H6         4.8876    9.6101    9.8025 H         1 RES1    0.0000
@<TRIPOS>BOND
     1    1   16 2
     2    2    6 2
     3    3    6 2
     4    4    8 2
     5    5    8 2
     6    6   12 1
     7    7   13 1
     8    8   14 1
     9    9   16 1
    10   10   11 ar
    11   11   12 ar
    12   12   13 ar
    13   13   14 ar
    14   14   15 ar
    15   15   10 ar
    16   16   10 1
    17   17   11 1
    18   18   15 1
    19   19    7 1
    20   20    7 1
    21   21    9 1
    22   22    9 1
@<TRIPOS>SUBSTRUCTURE
     1 RES1 1

@<TRIPOS>CRYSIN
   7.7566   12.2750    9.5120  90.0000 111.0460  90.0000 231 1

