# MOL2 file generated by ConQuest
# Please check atom types

@<TRIPOS>MOLECULE
DORBES
    51    54     1
SMALL
NO_CHARGES
****
Generated from CSD

@<TRIPOS>ATOM
      1 C1         9.7405    5.2338    4.1194 C.3       1 RES1    0.0000
      2 H1        10.6157    5.6663    4.0467 H         1 RES1    0.0000
      3 C2         9.8555    3.8747    3.4437 C.3       1 RES1    0.0000
      4 H2         9.1172    3.3013    3.7391 H         1 RES1    0.0000
      5 C3         9.8182    4.0061    1.9490 C.2       1 RES1    0.0000
      6 H3        10.0812    3.2725    1.4418 H         1 RES1    0.0000
      7 C4         9.4381    5.0942    1.3111 C.2       1 RES1    0.0000
      8 H4         9.4053    5.0696    0.3813 H         1 RES1    0.0000
      9 C5         9.0591    6.3575    1.9935 C.3       1 RES1    0.0000
     10 H5         9.8215    6.9707    1.9352 H         1 RES1    0.0000
     11 C6         8.7371    6.1511    3.4670 C.3       1 RES1    0.0000
     12 C7         7.3448    5.5473    3.6708 C.3       1 RES1    0.0000
     13 H6         6.6634    6.1796    3.3930 H         1 RES1    0.0000
     14 H7         7.2506    4.7411    3.1399 H         1 RES1    0.0000
     15 C8         7.1860    5.2284    5.1229 C.2       1 RES1    0.0000
     16 C9         5.7970    5.1956    5.6602 C.2       1 RES1    0.0000
     17 C10        4.4704    5.1394    7.7428 C.2       1 RES1    0.0000
     18 C11        4.6928    4.9697    9.1702 C.2       1 RES1    0.0000
     19 C12        3.2249    5.2723    7.2641 C.2       1 RES1    0.0000
     20 H8         3.0957    5.4186    6.3535 H         1 RES1    0.0000
     21 C13        2.0879    5.1926    8.1362 C.ar      1 RES1    0.0000
     22 C14        0.7734    5.2503    7.7059 C.ar      1 RES1    0.0000
     23 H9         0.5981    5.3543    6.7989 H         1 RES1    0.0000
     24 C15       -0.2804    5.1572    8.5864 C.ar      1 RES1    0.0000
     25 H10       -1.1568    5.1941    8.2759 H         1 RES1    0.0000
     26 C16       -0.0208    5.0080    9.9609 C.ar      1 RES1    0.0000
     27 C17        1.2816    4.9519   10.4258 C.ar      1 RES1    0.0000
     28 C18        2.3179    5.0504    9.5079 C.ar      1 RES1    0.0000
     29 C19       -2.3573    4.8971   10.4893 C.3       1 RES1    0.0000
     30 H11       -2.5666    5.7416   10.0830 H         1 RES1    0.0000
     31 H12       -2.9302    4.7562   11.2460 H         1 RES1    0.0000
     32 H13       -2.4910    4.1923    9.8523 H         1 RES1    0.0000
     33 C20        1.7746    5.8142   12.5898 C.3       1 RES1    0.0000
     34 H14        2.6849    6.1043   12.4956 H         1 RES1    0.0000
     35 H15        1.6081    5.5705   13.5049 H         1 RES1    0.0000
     36 H16        1.1831    6.5259   12.3354 H         1 RES1    0.0000
     37 N1         8.1264    5.0181    5.9764 N.2       1 RES1    0.0000
     38 N2         5.6693    5.1495    7.0158 N.am      1 RES1    0.0000
     39 H17        6.3983    5.1243    7.4717 H         1 RES1    0.0000
     40 O1         9.4608    5.0627    5.5423 O.3       1 RES1    0.0000
     41 O2        11.1011    3.2512    3.7737 O.3       1 RES1    0.0000
     42 H18       11.0375    2.8824    4.5016 H         1 RES1    0.0000
     43 O3         7.9407    6.9872    1.3704 O.3       1 RES1    0.0000
     44 H19        7.8103    6.6477    0.6344 H         1 RES1    0.0000
     45 O4         8.8377    7.3973    4.1735 O.3       1 RES1    0.0000
     46 H20        8.1006    7.7563    4.2036 H         1 RES1    0.0000
     47 O5         4.8427    5.2559    4.8954 O.2       1 RES1    0.0000
     48 O6         5.7838    4.8491    9.6873 O.2       1 RES1    0.0000
     49 O7         3.6107    4.9612    9.9997 O.3       1 RES1    0.0000
     50 O8        -0.9871    4.9003   10.9183 O.3       1 RES1    0.0000
     51 O9         1.5503    4.6939   11.7552 O.3       1 RES1    0.0000
@<TRIPOS>BOND
     1    1    2 1
     2    3    1 1
     3    4    3 1
     4    5    3 1
     5    6    5 1
     6    7    5 2
     7    8    7 1
     8    9    7 1
     9   10    9 1
    10   11    1 1
    11   12   11 1
    12   13   12 1
    13   14   12 1
    14   15   12 1
    15   16   15 1
    16   17   18 1
    17   18   48 2
    18   19   17 2
    19   20   19 1
    20   21   19 1
    21   22   21 ar
    22   23   22 1
    23   24   22 ar
    24   25   24 1
    25   26   24 ar
    26   27   26 ar
    27   28   21 ar
    28   29   30 1
    29   31   29 1
    30   32   29 1
    31   33   34 1
    32   35   33 1
    33   36   33 1
    34   37   15 2
    35   38   16 1
    36   39   38 1
    37   40    1 1
    38   41    3 1
    39   42   41 1
    40   43    9 1
    41   44   43 1
    42   45   11 1
    43   46   45 1
    44   47   16 2
    45   49   18 1
    46   50   26 1
    47   51   27 1
    48    9   11 1
    49   17   38 1
    50   27   28 ar
    51   28   49 1
    52   29   50 1
    53   33   51 1
    54   37   40 1
@<TRIPOS>SUBSTRUCTURE
     1 RES1 1

@<TRIPOS>CRYSIN
  10.9542   13.6868   32.0400  90.0000  90.0000  90.0000  23 1

