# MOL2 file generated by ConQuest
# Please check atom types

@<TRIPOS>MOLECULE
DORJAW
    43    46     1
SMALL
NO_CHARGES
****
Generated from CSD

@<TRIPOS>ATOM
      1 O1        -2.1260    7.2337   -1.7931 O.2       1 RES1    0.0000
      2 O2        -0.4003    8.5059   -1.5407 O.2       1 RES1    0.0000
      3 O3        -3.0859    5.4637    2.8009 O.3       1 RES1    0.0000
      4 O4         3.3352    8.0719    4.5860 O.3       1 RES1    0.0000
      5 O5         3.1221    2.1751    5.3520 O.2       1 RES1    0.0000
      6 O6         4.9210    3.3802    5.3908 O.2       1 RES1    0.0000
      7 N1        -1.2719    7.7617   -1.0938 N.pl3     1 RES1    0.0000
      8 N2         0.6701    7.9673    4.7604 N.3       1 RES1    0.0000
      9 N3        -1.3731    6.7041    4.4579 N.3       1 RES1    0.0000
     10 N4         3.7012    3.2586    5.2864 N.pl3     1 RES1    0.0000
     11 C1        -0.3833    8.1543    1.1532 C.ar      1 RES1    0.0000
     12 H1         0.2346    8.7745    0.7839 H         1 RES1    0.0000
     13 C2        -1.2912    7.4973    0.3503 C.ar      1 RES1    0.0000
     14 C3        -2.2185    6.5789    0.8327 C.ar      1 RES1    0.0000
     15 H2        -2.8264    6.1419    0.2478 H         1 RES1    0.0000
     16 C4        -2.2250    6.3224    2.1960 C.ar      1 RES1    0.0000
     17 C5        -4.0874    4.8644    1.9670 C.3       1 RES1    0.0000
     18 H3        -4.6082    5.5673    1.5259 H         1 RES1    0.0000
     19 H4        -4.6828    4.3127    2.5169 H         1 RES1    0.0000
     20 H5        -3.6558    4.3037    1.2899 H         1 RES1    0.0000
     21 C6        -1.3110    6.9759    3.0565 C.ar      1 RES1    0.0000
     22 C7        -0.3941    7.8859    2.5243 C.ar      1 RES1    0.0000
     23 C8         0.6209    8.5712    3.4203 C.3       1 RES1    0.0000
     24 H6         1.5167    8.5110    3.0033 H         1 RES1    0.0000
     25 H7         0.3881    9.5291    3.5027 H         1 RES1    0.0000
     26 C9        -0.6975    7.7584    5.2207 C.3       1 RES1    0.0000
     27 H8        -1.2052    8.6036    5.1296 H         1 RES1    0.0000
     28 H9        -0.6857    7.5109    6.1796 H         1 RES1    0.0000
     29 C10       -0.7456    5.4180    4.8194 C.3       1 RES1    0.0000
     30 H10       -0.9868    4.7382    4.1412 H         1 RES1    0.0000
     31 H11       -1.1033    5.1161    5.6920 H         1 RES1    0.0000
     32 C11        0.7709    5.5175    4.9091 C.ar      1 RES1    0.0000
     33 C12        1.4080    6.7521    4.7982 C.ar      1 RES1    0.0000
     34 C13        2.8218    6.8246    4.7591 C.ar      1 RES1    0.0000
     35 C14        4.7565    8.1883    4.4809 C.3       1 RES1    0.0000
     36 H12        5.1712    7.8927    5.3184 H         1 RES1    0.0000
     37 H13        4.9963    9.1229    4.3103 H         1 RES1    0.0000
     38 H14        5.0762    7.6292    3.7426 H         1 RES1    0.0000
     39 C15        3.5766    5.6780    4.9164 C.ar      1 RES1    0.0000
     40 H15        4.5265    5.7126    4.9107 H         1 RES1    0.0000
     41 C16        2.9037    4.4710    5.0824 C.ar      1 RES1    0.0000
     42 C17        1.5288    4.3563    5.0612 C.ar      1 RES1    0.0000
     43 H16        1.1088    3.5080    5.1479 H         1 RES1    0.0000
@<TRIPOS>BOND
     1    1    7 2
     2    2    7 2
     3    3   16 1
     4    4   34 1
     5    5   10 2
     6    6   10 2
     7    7   13 1
     8    8   23 1
     9    9   21 1
    10   10   41 1
    11   11   12 1
    12   13   11 ar
    13   14   13 ar
    14   15   14 1
    15   16   14 ar
    16   17    3 1
    17   18   17 1
    18   19   17 1
    19   20   17 1
    20   21   16 ar
    21   22   11 ar
    22   23   22 1
    23   24   23 1
    24   25   23 1
    25   26    8 1
    26   27   26 1
    27   28   26 1
    28   29    9 1
    29   30   29 1
    30   31   29 1
    31   32   29 1
    32   33    8 1
    33   34   33 ar
    34   35    4 1
    35   36   35 1
    36   37   35 1
    37   38   35 1
    38   39   34 ar
    39   40   39 1
    40   41   39 ar
    41   42   32 ar
    42   43   42 1
    43    9   26 1
    44   21   22 ar
    45   32   33 ar
    46   41   42 ar
@<TRIPOS>SUBSTRUCTURE
     1 RES1 1

@<TRIPOS>CRYSIN
   9.3903   12.8546   13.6541  90.0000 106.2430  90.0000  14 1

