# MOL2 file generated by ConQuest
# Please check atom types

@<TRIPOS>MOLECULE
DORKEA
    45    47     1
SMALL
NO_CHARGES
****
Generated from CSD

@<TRIPOS>ATOM
      1 C1         4.7087    5.3948    6.9306 C.3       1 RES1    0.0000
      2 C2         5.0260    4.1573    7.7292 C.3       1 RES1    0.0000
      3 C3         4.3546    2.9527    6.9608 C.3       1 RES1    0.0000
      4 C4         3.2358    2.6971    4.7332 C.2       1 RES1    0.0000
      5 C5         1.8217    3.2713    4.8816 C.3       1 RES1    0.0000
      6 C6         1.5116    4.3115    3.8194 C.3       1 RES1    0.0000
      7 C7         2.7531    5.2099    3.5406 C.3       1 RES1    0.0000
      8 C8         3.4372    5.6766    4.7912 C.2       1 RES1    0.0000
      9 C9         4.1075    4.9194    5.6198 C.2       1 RES1    0.0000
     10 C10        4.3330    3.4114    5.4918 C.3       1 RES1    0.0000
     11 C11        5.7097    3.1560    4.8062 C.3       1 RES1    0.0000
     12 C12        2.7846    0.1455    2.3798 C.ar      1 RES1    0.0000
     13 C13        1.7932   -0.4849    1.6099 C.ar      1 RES1    0.0000
     14 C14        2.1108   -1.4784    0.6772 C.ar      1 RES1    0.0000
     15 C15        3.4022   -1.8475    0.5371 C.ar      1 RES1    0.0000
     16 C16        4.4305   -1.2719    1.2656 C.ar      1 RES1    0.0000
     17 C17        4.1202   -0.2981    2.1847 C.ar      1 RES1    0.0000
     18 O1         0.0532    0.7765    2.4777 O.2       1 RES1    0.0000
     19 O2        -0.4365   -0.8634    1.1669 O.2       1 RES1    0.0000
     20 O3         4.9223   -3.1234   -0.6426 O.2       1 RES1    0.0000
     21 O4         2.8343   -3.4016   -1.0878 O.2       1 RES1    0.0000
     22 N1         3.5505    1.7341    3.9738 N.2       1 RES1    0.0000
     23 N2         2.5061    1.1131    3.2740 N.pl3     1 RES1    0.0000
     24 N3         0.3972   -0.1898    1.7613 N.pl3     1 RES1    0.0000
     25 N4         3.7420   -2.8702   -0.4723 N.pl3     1 RES1    0.0000
     26 H1         3.7861    5.9829    7.4278 H         1 RES1    0.0000
     27 H2         5.6523    5.3299    6.7611 H         1 RES1    0.0000
     28 H3         6.0153    3.4776    7.7924 H         1 RES1    0.0000
     29 H4         4.8825    4.0098    8.9774 H         1 RES1    0.0000
     30 H5         4.4127    2.0293    7.4293 H         1 RES1    0.0000
     31 H6         3.2825    2.7367    7.3608 H         1 RES1    0.0000
     32 H7         1.3481    2.3771    4.9283 H         1 RES1    0.0000
     33 H8         1.7924    3.5338    5.8195 H         1 RES1    0.0000
     34 H9         0.7112    4.9086    3.7199 H         1 RES1    0.0000
     35 H10        1.3187    3.7034    2.7564 H         1 RES1    0.0000
     36 H11        3.4215    4.6431    2.9674 H         1 RES1    0.0000
     37 H12        2.4324    5.9188    2.8438 H         1 RES1    0.0000
     38 H13        3.2378    6.5677    4.9509 H         1 RES1    0.0000
     39 H14        5.7840    1.9954    5.0194 H         1 RES1    0.0000
     40 H15        5.6249    3.7197    3.8314 H         1 RES1    0.0000
     41 H16        6.1958    3.4789    5.7652 H         1 RES1    0.0000
     42 H17        1.2445   -2.0870    0.4708 H         1 RES1    0.0000
     43 H18        5.3240   -1.6458    1.4080 H         1 RES1    0.0000
     44 H19        4.8261    0.1677    2.6954 H         1 RES1    0.0000
     45 H20        1.5938    1.5728    3.2137 H         1 RES1    0.0000
@<TRIPOS>BOND
     1    1    2 1
     2    2    3 1
     3    3   10 1
     4    4    5 1
     5    5    6 1
     6    6    7 1
     7    7    8 1
     8    8    9 2
     9    9    1 1
    10   10    4 1
    11   11   10 1
    12   12   13 ar
    13   13   14 ar
    14   14   15 ar
    15   15   16 ar
    16   16   17 ar
    17   17   12 ar
    18   18   24 2
    19   19   24 2
    20   20   25 2
    21   21   25 2
    22   22    4 2
    23   23   12 1
    24   24   13 1
    25   25   15 1
    26   26    1 1
    27   27    1 1
    28   28    2 1
    29   29    2 1
    30   30    3 1
    31   31    3 1
    32   32    5 1
    33   33    5 1
    34   34    6 1
    35   35    6 1
    36   36    7 1
    37   37    7 1
    38   38    8 1
    39   39   11 1
    40   40   11 1
    41   41   11 1
    42   42   14 1
    43   43   16 1
    44   44   17 1
    45   45   23 1
    46    9   10 1
    47   22   23 1
@<TRIPOS>SUBSTRUCTURE
     1 RES1 1

@<TRIPOS>CRYSIN
   8.0330   14.3440    8.5840  95.1600 116.3600 101.3400   2 1

