# MOL2 file generated by ConQuest
# Please check atom types

@<TRIPOS>MOLECULE
DOSMIH
    25    27     1
SMALL
NO_CHARGES
****
Generated from CSD

@<TRIPOS>ATOM
      1 N1         2.2898    0.6159    1.7388 N.pl3     1 RES1    0.0000
      2 O1         3.3972    0.0003    1.9174 O.2       1 RES1    0.0000
      3 O2        -0.6235    2.2588    2.4928 O.2       1 RES1    0.0000
      4 C1         1.4181    1.0375    2.6796 C.2       1 RES1    0.0000
      5 C2         0.3342    1.6982    1.9776 C.2       1 RES1    0.0000
      6 C3         0.6156    1.5970    0.5392 C.ar      1 RES1    0.0000
      7 C4         1.8136    0.9152    0.3897 C.ar      1 RES1    0.0000
      8 C5         2.3705    0.6186   -0.8089 C.ar      1 RES1    0.0000
      9 C6         1.6637    1.0238   -1.9343 C.ar      1 RES1    0.0000
     10 C7         0.4633    1.7224   -1.8230 C.ar      1 RES1    0.0000
     11 C8        -0.0660    2.0122   -0.5762 C.ar      1 RES1    0.0000
     12 C9         1.6025    0.8868    4.1017 C.ar      1 RES1    0.0000
     13 C10        2.8341    1.0525    4.7178 C.ar      1 RES1    0.0000
     14 C11        2.9450    0.8274    6.0623 C.ar      1 RES1    0.0000
     15 C12        1.8439    0.3856    6.7680 C.ar      1 RES1    0.0000
     16 C13        0.6649    0.2055    6.0855 C.ar      1 RES1    0.0000
     17 N2         0.5107    0.4105    4.7701 N.ar      1 RES1    0.0000
     18 H1         3.3834    0.0648   -0.9045 H         1 RES1    0.0000
     19 H2         2.1741    1.4356   -2.8646 H         1 RES1    0.0000
     20 H3         0.3160    2.1031   -2.8042 H         1 RES1    0.0000
     21 H4        -0.9064    2.5181   -0.5301 H         1 RES1    0.0000
     22 H5         3.6792    1.2911    4.0714 H         1 RES1    0.0000
     23 H6         3.8879    1.0393    6.5431 H         1 RES1    0.0000
     24 H7         1.9213    0.0700    7.8894 H         1 RES1    0.0000
     25 H8        -0.2337   -0.2414    6.5175 H         1 RES1    0.0000
@<TRIPOS>BOND
     1    1    2 1
     2    3    5 2
     3    4    1 2
     4    5    4 1
     5    6    5 1
     6    7    1 1
     7    8    7 ar
     8    9    8 ar
     9   10    9 ar
    10   11    6 ar
    11   12    4 1
    12   13   12 ar
    13   14   13 ar
    14   15   14 ar
    15   16   15 ar
    16   17   12 ar
    17   18    8 1
    18   19    9 1
    19   20   10 1
    20   21   11 1
    21   22   13 1
    22   23   14 1
    23   24   15 1
    24   25   16 1
    25    6    7 ar
    26   10   11 ar
    27   16   17 ar
@<TRIPOS>SUBSTRUCTURE
     1 RES1 1

@<TRIPOS>CRYSIN
  11.9260    7.4500   23.2520  90.0000  90.0000  90.0000  61 1

