# MOL2 file generated by ConQuest
# Please check atom types

@<TRIPOS>MOLECULE
DOSMED
    26    28     1
SMALL
NO_CHARGES
****
Generated from CSD

@<TRIPOS>ATOM
      1 N1         2.0842    0.4592    1.5752 N.pl3     1 RES1    0.0000
      2 O1         3.0814   -0.2982    1.7193 O.2       1 RES1    0.0000
      3 O2        -0.6077    2.4662    2.3502 O.2       1 RES1    0.0000
      4 C1         1.2633    0.9883    2.5382 C.2       1 RES1    0.0000
      5 C2         0.2973    1.7920    1.8567 C.2       1 RES1    0.0000
      6 C3         0.5610    1.7069    0.4040 C.ar      1 RES1    0.0000
      7 C4         1.6548    0.8988    0.2496 C.ar      1 RES1    0.0000
      8 C5         2.1768    0.5816   -0.9661 C.ar      1 RES1    0.0000
      9 C6         1.5421    1.1575   -2.0737 C.ar      1 RES1    0.0000
     10 C7         0.4302    1.9653   -1.9279 C.ar      1 RES1    0.0000
     11 C8        -0.0774    2.2586   -0.6740 C.ar      1 RES1    0.0000
     12 C9         1.3803    0.7543    3.9707 C.ar      1 RES1    0.0000
     13 C10        2.4740    0.0921    4.5229 C.ar      1 RES1    0.0000
     14 C11        2.5501   -0.1071    5.8924 C.ar      1 RES1    0.0000
     15 C12        1.5479    0.3445    6.7271 C.ar      1 RES1    0.0000
     16 C13        0.4801    0.9939    6.1880 C.ar      1 RES1    0.0000
     17 C14        0.3719    1.2081    4.8318 C.ar      1 RES1    0.0000
     18 H1         3.0517    0.3453   -1.0671 H         1 RES1    0.0000
     19 H2         1.8984    0.8403   -3.0118 H         1 RES1    0.0000
     20 H3         0.0447    2.2005   -2.8943 H         1 RES1    0.0000
     21 H4        -0.9068    2.9789   -0.5851 H         1 RES1    0.0000
     22 H5         3.1686   -0.2968    3.9086 H         1 RES1    0.0000
     23 H6         3.1686   -0.6171    6.2801 H         1 RES1    0.0000
     24 H7         1.5981    0.1535    7.7500 H         1 RES1    0.0000
     25 H8         0.3714    1.1981    6.7741 H         1 RES1    0.0000
     26 H9         0.5044    1.6813    4.3834 H         1 RES1    0.0000
@<TRIPOS>BOND
     1    1    2 1
     2    3    5 2
     3    4    1 2
     4    5    4 1
     5    6    5 1
     6    7    1 1
     7    8    7 ar
     8    9    8 ar
     9   10    9 ar
    10   11    6 ar
    11   12    4 1
    12   13   12 ar
    13   14   13 ar
    14   15   14 ar
    15   16   15 ar
    16   17   12 ar
    17   18    8 1
    18   19    9 1
    19   20   10 1
    20   21   11 1
    21   22   13 1
    22   23   14 1
    23   24   15 1
    24   25   16 1
    25   26   17 1
    26    6    7 ar
    27   10   11 ar
    28   16   17 ar
@<TRIPOS>SUBSTRUCTURE
     1 RES1 1

@<TRIPOS>CRYSIN
  11.4640    7.8310   23.9790  90.0000  90.0000  90.0000  61 1

