# MOL2 file generated by ConQuest
# Please check atom types

@<TRIPOS>MOLECULE
DOTROU
    39    40     1
SMALL
NO_CHARGES
****
Generated from CSD

@<TRIPOS>ATOM
      1 O1         4.0414    7.2135    3.2491 O.2       1 RES1    0.0000
      2 O2         2.5996    5.5426    2.8486 O.3       1 RES1    0.0000
      3 O3         5.1732    0.8919    1.8188 O.2       1 RES1    0.0000
      4 O4         6.1520    1.3406   -0.1394 O.3       1 RES1    0.0000
      5 O5         1.2737    2.7206    2.3674 O.2       1 RES1    0.0000
      6 O6         0.8079    1.2538    3.8932 O.2       1 RES1    0.0000
      7 O7         6.2263    5.2095    5.3294 O.2       1 RES1    0.0000
      8 O8         6.4517    3.3512    4.2313 O.2       1 RES1    0.0000
      9 O9         3.9239    3.0625    2.7761 O.3       1 RES1    0.0000
     10 N1         1.3939    2.2520    3.4879 N.pl3     1 RES1    0.0000
     11 N2         5.7853    4.1760    4.8483 N.pl3     1 RES1    0.0000
     12 C1         4.8237    3.8539    2.0882 C.ar      1 RES1    0.0000
     13 C2         4.8403    5.2479    2.1707 C.ar      1 RES1    0.0000
     14 C3         5.8503    5.9463    1.4998 C.ar      1 RES1    0.0000
     15 H1         5.9233    6.8869    1.6099 H         1 RES1    0.0000
     16 C4         6.7435    5.2839    0.6785 C.ar      1 RES1    0.0000
     17 H2         7.4277    5.7672    0.2302 H         1 RES1    0.0000
     18 C5         6.6373    3.9164    0.5123 C.ar      1 RES1    0.0000
     19 H3         7.2121    3.4743   -0.1014 H         1 RES1    0.0000
     20 C6         5.7018    3.1751    1.2290 C.ar      1 RES1    0.0000
     21 C7         3.8076    6.1049    2.8358 C.2       1 RES1    0.0000
     22 C8         1.5579    6.3196    3.5000 C.3       1 RES1    0.0000
     23 H4         1.8310    6.5266    4.4183 H         1 RES1    0.0000
     24 H5         0.7256    5.8028    3.5155 H         1 RES1    0.0000
     25 H6         1.4155    7.1540    3.0063 H         1 RES1    0.0000
     26 C9         5.6311    1.6919    1.0514 C.2       1 RES1    0.0000
     27 C10        6.0639   -0.0609   -0.4708 C.3       1 RES1    0.0000
     28 H7         6.4577   -0.5928    0.2516 H         1 RES1    0.0000
     29 H8         6.5513   -0.2309   -1.3034 H         1 RES1    0.0000
     30 H9         5.1235   -0.3112   -0.5855 H         1 RES1    0.0000
     31 C11        3.5651    3.3141    4.0605 C.ar      1 RES1    0.0000
     32 C12        2.2818    2.9198    4.4529 C.ar      1 RES1    0.0000
     33 C13        1.8020    3.1065    5.7337 C.ar      1 RES1    0.0000
     34 H10        0.9262    2.8186    5.9614 H         1 RES1    0.0000
     35 C14        2.6031    3.7158    6.6847 C.ar      1 RES1    0.0000
     36 H11        2.2729    3.8693    7.5618 H         1 RES1    0.0000
     37 C15        3.8849    4.0977    6.3475 C.ar      1 RES1    0.0000
     38 H12        4.4412    4.5157    6.9941 H         1 RES1    0.0000
     39 C16        4.3622    3.8720    5.0644 C.ar      1 RES1    0.0000
@<TRIPOS>BOND
     1    1   21 2
     2    2   21 1
     3    3   26 2
     4    4   26 1
     5    5   10 2
     6    6   10 2
     7    7   11 2
     8    8   11 2
     9    9   12 1
    10   10   32 1
    11   11   39 1
    12   12   13 ar
    13   13   14 ar
    14   14   15 1
    15   16   14 ar
    16   17   16 1
    17   18   16 ar
    18   19   18 1
    19   20   12 ar
    20   21   13 1
    21   22    2 1
    22   23   22 1
    23   24   22 1
    24   25   22 1
    25   26   20 1
    26   27    4 1
    27   28   27 1
    28   29   27 1
    29   30   27 1
    30   31    9 1
    31   32   31 ar
    32   33   32 ar
    33   34   33 1
    34   35   33 ar
    35   36   35 1
    36   37   35 ar
    37   38   37 1
    38   39   31 ar
    39   18   20 ar
    40   37   39 ar
@<TRIPOS>SUBSTRUCTURE
     1 RES1 1

@<TRIPOS>CRYSIN
   7.6908    8.8052   12.5727  71.7350  89.1580  78.9770   2 1

