# MOL2 file generated by ConQuest
# Please check atom types

@<TRIPOS>MOLECULE
DOTVIS
    43    44     1
SMALL
NO_CHARGES
****
Generated from CSD

@<TRIPOS>ATOM
      1 O1        14.2686    4.2928    7.3576 O.2       1 RES1    0.0000
      2 O2        15.1748    4.5377    5.4277 O.2       1 RES1    0.0000
      3 O3        19.9298    0.6552    8.4925 O.2       1 RES1    0.0000
      4 O4        20.8538    0.7558    6.5621 O.2       1 RES1    0.0000
      5 O5        15.2093    0.5284    2.3375 O.3       1 RES1    0.0000
      6 H1        15.7441    0.1399    1.8513 H         1 RES1    0.0000
      7 N1        14.4746    3.9299    6.2145 N.pl3     1 RES1    0.0000
      8 N2        19.8810    0.8134    7.2877 N.pl3     1 RES1    0.0000
      9 C1        12.5022    3.0618    5.0458 C.2       1 RES1    0.0000
     10 C2        13.7950    2.6449    5.7503 C.3       1 RES1    0.0000
     11 H2        13.5657    2.1092    6.5373 H         1 RES1    0.0000
     12 C3        14.7567    1.8403    4.8722 C.3       1 RES1    0.0000
     13 H3        14.9188    2.3578    4.0556 H         1 RES1    0.0000
     14 C4        14.0997    0.5124    4.4600 C.3       1 RES1    0.0000
     15 H4        13.9507   -0.0248    5.2531 H         1 RES1    0.0000
     16 H5        13.2360    0.6989    4.0618 H         1 RES1    0.0000
     17 C5        14.9308   -0.2791    3.4797 C.3       1 RES1    0.0000
     18 H6        15.7612   -0.5539    3.8984 H         1 RES1    0.0000
     19 H7        14.4500   -1.0765    3.2086 H         1 RES1    0.0000
     20 C6        12.5520    3.6463    3.8724 C.2       1 RES1    0.0000
     21 H8        11.7666    3.9073    3.4488 H         1 RES1    0.0000
     22 H9        13.3732    3.7987    3.4637 H         1 RES1    0.0000
     23 C7        11.2114    2.8024    5.7274 C.ar      1 RES1    0.0000
     24 C8        11.0428    3.0283    7.0965 C.ar      1 RES1    0.0000
     25 H10       11.7666    3.2892    7.6172 H         1 RES1    0.0000
     26 C9         9.7952    2.8628    7.6778 C.ar      1 RES1    0.0000
     27 H11        9.6873    3.0290    8.5868 H         1 RES1    0.0000
     28 C10        8.7175    2.4591    6.9348 C.ar      1 RES1    0.0000
     29 H12        7.8825    2.3651    7.3336 H         1 RES1    0.0000
     30 C11        8.8783    2.1945    5.5974 C.ar      1 RES1    0.0000
     31 H13        8.1550    1.8979    5.0934 H         1 RES1    0.0000
     32 C12       10.1129    2.3665    4.9993 C.ar      1 RES1    0.0000
     33 H14       10.2095    2.1872    4.0915 H         1 RES1    0.0000
     34 C13       16.1060    1.5976    5.5449 C.ar      1 RES1    0.0000
     35 C14       17.2676    1.7244    4.8022 C.ar      1 RES1    0.0000
     36 H15       17.2116    1.9868    3.9120 H         1 RES1    0.0000
     37 C15       18.5083    1.4701    5.3571 C.ar      1 RES1    0.0000
     38 H16       19.2832    1.5502    4.8494 H         1 RES1    0.0000
     39 C16       18.5672    1.0962    6.6748 C.ar      1 RES1    0.0000
     40 C17       17.4404    0.9570    7.4445 C.ar      1 RES1    0.0000
     41 H17       17.5070    0.7011    8.3366 H         1 RES1    0.0000
     42 C18       16.2009    1.2026    6.8725 C.ar      1 RES1    0.0000
     43 H18       15.4296    1.1020    7.3819 H         1 RES1    0.0000
@<TRIPOS>BOND
     1    1    7 2
     2    2    7 2
     3    3    8 2
     4    4    8 2
     5    5    6 1
     6    7   10 1
     7    8   39 1
     8    9   10 1
     9   10   11 1
    10   12   10 1
    11   13   12 1
    12   14   12 1
    13   15   14 1
    14   16   14 1
    15   17    5 1
    16   18   17 1
    17   19   17 1
    18   20    9 2
    19   21   20 1
    20   22   20 1
    21   23    9 1
    22   24   23 ar
    23   25   24 1
    24   26   24 ar
    25   27   26 1
    26   28   26 ar
    27   29   28 1
    28   30   28 ar
    29   31   30 1
    30   32   23 ar
    31   33   32 1
    32   34   12 1
    33   35   34 ar
    34   36   35 1
    35   37   35 ar
    36   38   37 1
    37   39   37 ar
    38   40   39 ar
    39   41   40 1
    40   42   34 ar
    41   43   42 1
    42   14   17 1
    43   30   32 ar
    44   40   42 ar
@<TRIPOS>SUBSTRUCTURE
     1 RES1 1

@<TRIPOS>CRYSIN
  19.0583    7.2883   12.3836  90.0000  90.0000  90.0000  29 1

