# MOL2 file generated by ConQuest
# Please check atom types

@<TRIPOS>MOLECULE
DOVCAT
    11    11     1
SMALL
USER_CHARGES
****
Generated from CSD

@<TRIPOS>ATOM
      1 O1         1.1614    7.8549    3.6632 O.3       1 RES1    0.0000
      2 N1         0.5298    4.5011    2.9770 N.3       1 RES1    0.0000
      3 N2         0.4210    6.6820    3.8725 N.2       1 RES1    0.0000
      4 N3         2.1665    7.6115    2.7642 N.2       1 RES1    0.0000
      5 N4         2.8494    5.6505    1.5516 N.2       1 RES1    0.0000
      6 N5         3.7823    6.2831    1.0332 N.1       1 RES1    1.0000
      7 N6         4.6815    6.7055    0.4822 N.2       1 RES1   -1.0000
      8 C1         0.9684    5.7738    3.1174 C.2       1 RES1    0.0000
      9 C2         2.0751    6.3571    2.4303 C.2       1 RES1    0.0000
     10 H1         1.1490    4.0422    2.3932 H         1 RES1    0.0000
     11 H2        -0.1522    4.2137    3.5060 H         1 RES1    0.0000
@<TRIPOS>BOND
     1    1    3 1
     2    2    8 1
     3    3    8 2
     4    4    1 1
     5    5    6 2
     6    6    7 2
     7    8    9 1
     8    9    4 2
     9   10    2 1
    10   11    2 1
    11    5    9 1
@<TRIPOS>SUBSTRUCTURE
     1 RES1 1

@<TRIPOS>CRYSIN
   5.3288   10.7220    8.9420  90.0000  99.0300  90.0000  14 1

