# MOL2 file generated by ConQuest
# Please check atom types

@<TRIPOS>MOLECULE
DOVGUR
    45    48     1
SMALL
NO_CHARGES
****
Generated from CSD

@<TRIPOS>ATOM
      1 O1         9.4402    5.0100    6.5541 O.3       1 RES1    0.0000
      2 O2         6.5830    4.3652    3.5681 O.3       1 RES1    0.0000
      3 O3         8.8267    2.7593    1.4385 O.2       1 RES1    0.0000
      4 O4         8.3747    3.4730   -1.8904 O.2       1 RES1    0.0000
      5 O5         7.4651    4.9908   -0.5280 O.3       1 RES1    0.0000
      6 H1         8.1283    5.5346   -0.9846 H         1 RES1    0.0000
      7 N1         7.7070    3.5907    3.1820 N.am      1 RES1    0.0000
      8 C1         9.6878    3.6956    6.2365 C.ar      1 RES1    0.0000
      9 C2        10.2741    2.8827    7.2097 C.ar      1 RES1    0.0000
     10 H2        10.5288    3.2511    8.0478 H         1 RES1    0.0000
     11 C3        10.4818    1.5515    6.9555 C.ar      1 RES1    0.0000
     12 H3        10.8717    0.9996    7.6230 H         1 RES1    0.0000
     13 C4        10.1282    1.0044    5.7339 C.ar      1 RES1    0.0000
     14 H4        10.2519    0.0769    5.5701 H         1 RES1    0.0000
     15 C5         9.5935    1.8206    4.7549 C.ar      1 RES1    0.0000
     16 H5         9.3746    1.4505    3.9077 H         1 RES1    0.0000
     17 C6         9.3683    3.1806    4.9899 C.ar      1 RES1    0.0000
     18 C7         8.9022    4.1025    3.8828 C.3       1 RES1    0.0000
     19 H6         9.6427    4.2042    3.2184 H         1 RES1    0.0000
     20 C8         8.4687    5.5050    4.3588 C.3       1 RES1    0.0000
     21 H7         9.1302    6.1970    4.0680 H         1 RES1    0.0000
     22 C9         8.2910    5.5314    5.8632 C.3       1 RES1    0.0000
     23 H8         8.1303    6.4629    6.1552 H         1 RES1    0.0000
     24 H9         7.4942    4.9948    6.1060 H         1 RES1    0.0000
     25 C10        7.1380    5.6988    3.6455 C.3       1 RES1    0.0000
     26 H10        6.5446    6.2996    4.1619 H         1 RES1    0.0000
     27 H11        7.2738    6.0785    2.7410 H         1 RES1    0.0000
     28 C11        7.7510    3.1486    1.8941 C.2       1 RES1    0.0000
     29 C12        6.4361    3.0797    1.1418 C.3       1 RES1    0.0000
     30 H12        5.9906    3.9720    1.2182 H         1 RES1    0.0000
     31 C13        5.5058    2.0312    1.7792 C.3       1 RES1    0.0000
     32 H13        5.4511    2.1898    2.7547 H         1 RES1    0.0000
     33 H14        4.5957    2.1273    1.4014 H         1 RES1    0.0000
     34 C14        6.0084    0.6207    1.5262 C.3       1 RES1    0.0000
     35 H15        6.9017    0.5078    1.9384 H         1 RES1    0.0000
     36 H16        5.3920   -0.0312    1.9453 H         1 RES1    0.0000
     37 C15        6.0982    0.3500    0.0424 C.3       1 RES1    0.0000
     38 H17        5.1954    0.4181   -0.3584 H         1 RES1    0.0000
     39 H18        6.4276   -0.5719   -0.1030 H         1 RES1    0.0000
     40 C16        7.0276    1.3288   -0.6503 C.3       1 RES1    0.0000
     41 H19        6.9929    1.1766   -1.6281 H         1 RES1    0.0000
     42 H20        7.9576    1.1654   -0.3504 H         1 RES1    0.0000
     43 C17        6.6483    2.7833   -0.3507 C.3       1 RES1    0.0000
     44 H21        5.7612    2.9299   -0.7877 H         1 RES1    0.0000
     45 C18        7.6014    3.7581   -1.0087 C.2       1 RES1    0.0000
@<TRIPOS>BOND
     1    1    8 1
     2    2    7 1
     3    3   28 2
     4    4   45 2
     5    5    6 1
     6    7   18 1
     7    8    9 ar
     8    9   10 1
     9   11    9 ar
    10   12   11 1
    11   13   11 ar
    12   14   13 1
    13   15   13 ar
    14   16   15 1
    15   17    8 ar
    16   18   17 1
    17   19   18 1
    18   20   18 1
    19   21   20 1
    20   22    1 1
    21   23   22 1
    22   24   22 1
    23   25    2 1
    24   26   25 1
    25   27   25 1
    26   28    7 1
    27   29   28 1
    28   30   29 1
    29   31   29 1
    30   32   31 1
    31   33   31 1
    32   34   31 1
    33   35   34 1
    34   36   34 1
    35   37   34 1
    36   38   37 1
    37   39   37 1
    38   40   37 1
    39   41   40 1
    40   42   40 1
    41   43   29 1
    42   44   43 1
    43   45    5 1
    44   15   17 ar
    45   20   22 1
    46   20   25 1
    47   40   43 1
    48   43   45 1
@<TRIPOS>SUBSTRUCTURE
     1 RES1 1

@<TRIPOS>CRYSIN
   9.0302    8.0096   12.1640  90.0000 109.7370  90.0000   4 1

