# MOL2 file generated by ConQuest
# Please check atom types

@<TRIPOS>MOLECULE
DOWGUR
    40    41     1
SMALL
NO_CHARGES
****
Generated from CSD

@<TRIPOS>ATOM
      1 N1        -2.9343    4.4497   10.5672 N.pl3     1 RES1    0.0000
      2 O1        -2.7279    5.5919   10.1844 O.2       1 RES1    0.0000
      3 O2        -4.0132    3.8932   10.4224 O.2       1 RES1    0.0000
      4 C1        -1.8533    3.7179   11.2238 C.ar      1 RES1    0.0000
      5 C2        -2.0890    2.4499   11.7098 C.ar      1 RES1    0.0000
      6 H1        -2.8480    2.1109   11.6483 H         1 RES1    0.0000
      7 C3        -1.0785    1.7542   12.3030 C.ar      1 RES1    0.0000
      8 H2        -1.2781    0.8460   12.7473 H         1 RES1    0.0000
      9 C4         0.2108    2.3088   12.4101 C.ar      1 RES1    0.0000
     10 C5         0.4177    3.5952   11.9141 C.ar      1 RES1    0.0000
     11 H3         1.3128    4.0227   12.0689 H         1 RES1    0.0000
     12 C6        -0.6213    4.2933   11.3250 C.ar      1 RES1    0.0000
     13 H4        -0.4757    5.1142   11.0016 H         1 RES1    0.0000
     14 C7         1.3228    1.5533   12.9754 C.2       1 RES1    0.0000
     15 N2         1.1386    0.3805   13.4456 N.2       1 RES1    0.0000
     16 O3         2.3451   -0.1582   13.8562 O.3       1 RES1    0.0000
     17 C8         3.4164    0.8606   13.7590 C.3       1 RES1    0.0000
     18 C9         2.7469    1.9937   12.9834 C.3       1 RES1    0.0000
     19 C10        4.6416    0.1796   13.1857 C.3       1 RES1    0.0000
     20 C11        4.3906   -0.2975   11.7554 C.3       1 RES1    0.0000
     21 H5         4.1689    0.4544   11.2020 H         1 RES1    0.0000
     22 H6         3.6647   -0.9254   11.7475 H         1 RES1    0.0000
     23 H7         5.1827   -0.7214   11.4162 H         1 RES1    0.0000
     24 C12        5.9537    0.9718   13.3702 C.3       1 RES1    0.0000
     25 C13        7.1449    0.1240   12.9675 C.3       1 RES1    0.0000
     26 H8         7.9520    0.5320   13.2889 H         1 RES1    0.0000
     27 H9         7.1790    0.0568   12.0094 H         1 RES1    0.0000
     28 H10        7.0568   -0.7531   13.3464 H         1 RES1    0.0000
     29 C14        6.1005    1.3761   14.8143 C.3       1 RES1    0.0000
     30 H11        6.3019    0.5998   15.3420 H         1 RES1    0.0000
     31 H12        5.2810    1.7695   15.1238 H         1 RES1    0.0000
     32 H13        6.8136    2.0138   14.8996 H         1 RES1    0.0000
     33 C15        5.9970    2.2190   12.5271 C.3       1 RES1    0.0000
     34 H14        6.8355    2.6674   12.6640 H         1 RES1    0.0000
     35 H15        5.2773    2.8011   12.7810 H         1 RES1    0.0000
     36 H16        5.9072    1.9827   11.6007 H         1 RES1    0.0000
     37 H17        3.5206    1.1190   14.7251 H         1 RES1    0.0000
     38 H18        3.0551    2.0694   12.1661 H         1 RES1    0.0000
     39 H19        2.7928    2.8952   13.5547 H         1 RES1    0.0000
     40 H20        4.7709   -0.6542   13.7253 H         1 RES1    0.0000
@<TRIPOS>BOND
     1    1    2 2
     2    3    1 2
     3    4    1 1
     4    5    4 ar
     5    6    5 1
     6    7    5 ar
     7    8    7 1
     8    9    7 ar
     9   10    9 ar
    10   11   10 1
    11   12    4 ar
    12   13   12 1
    13   14    9 1
    14   15   14 2
    15   16   15 1
    16   17   16 1
    17   18   14 1
    18   19   17 1
    19   20   19 1
    20   21   20 1
    21   22   20 1
    22   23   20 1
    23   24   19 1
    24   25   24 1
    25   26   25 1
    26   27   25 1
    27   28   25 1
    28   29   24 1
    29   30   29 1
    30   31   29 1
    31   32   29 1
    32   33   24 1
    33   34   33 1
    34   35   33 1
    35   36   33 1
    36   37   17 1
    37   38   18 1
    38   39   18 1
    39   40   19 1
    40   10   12 ar
    41   17   18 1
@<TRIPOS>SUBSTRUCTURE
     1 RES1 1

@<TRIPOS>CRYSIN
  12.2920    6.1080   19.8860  90.0000  94.0200  90.0000 231 1

