# MOL2 file generated by ConQuest
# Please check atom types

@<TRIPOS>MOLECULE
DOWJEF
    20    21     1
SMALL
NO_CHARGES
****
Generated from CSD

@<TRIPOS>ATOM
      1 N1        -1.7690    9.7819    6.2419 N.pl3     1 RES1    0.0000
      2 N2        -1.3112    9.0875    5.2298 N.2       1 RES1    0.0000
      3 O1        -2.1020   11.0150    6.0660 O.2       1 RES1    0.0000
      4 O2        -1.0497    7.8273    5.7844 O.3       1 RES1    0.0000
      5 C1        -1.3545    7.8469    7.0950 C.2       1 RES1    0.0000
      6 N3        -1.1536    6.7302    7.8153 N.3       1 RES1    0.0000
      7 C2        -1.8469    9.0844    7.4321 C.2       1 RES1    0.0000
      8 C3        -2.3484    9.5972    8.7039 C.ar      1 RES1    0.0000
      9 C4        -2.1468   10.9225    9.1031 C.ar      1 RES1    0.0000
     10 H1        -1.7243   11.5209    8.5308 H         1 RES1    0.0000
     11 C5        -2.5771   11.3432   10.3524 C.ar      1 RES1    0.0000
     12 H2        -2.4487   12.2273   10.6112 H         1 RES1    0.0000
     13 C6        -3.2009   10.4516   11.2227 C.ar      1 RES1    0.0000
     14 H3        -3.4745   10.7343   12.0655 H         1 RES1    0.0000
     15 C7        -3.4115    9.1391   10.8258 C.ar      1 RES1    0.0000
     16 H4        -3.8308    8.5422   11.4034 H         1 RES1    0.0000
     17 C8        -3.0000    8.7118    9.5719 C.ar      1 RES1    0.0000
     18 H5        -3.1568    7.8346    9.3063 H         1 RES1    0.0000
     19 H6        -1.0183    6.8861    8.6873 H         1 RES1    0.0000
     20 H7        -0.6180    6.1081    7.4563 H         1 RES1    0.0000
@<TRIPOS>BOND
     1    1    2 2
     2    2    4 1
     3    3    1 1
     4    4    5 1
     5    5    6 1
     6    6   19 1
     7    7    1 1
     8    8    7 1
     9    9    8 ar
    10   10    9 1
    11   11    9 ar
    12   12   11 1
    13   13   11 ar
    14   14   13 1
    15   15   13 ar
    16   16   15 1
    17   17    8 ar
    18   18   17 1
    19   20    6 1
    20    5    7 2
    21   15   17 ar
@<TRIPOS>SUBSTRUCTURE
     1 RES1 1

@<TRIPOS>CRYSIN
   7.3570   12.3496    9.3845  90.0000 110.4540  90.0000 231 1

