# MOL2 file generated by ConQuest
# Please check atom types

@<TRIPOS>MOLECULE
DOWNIO
    72    75     1
SMALL
NO_CHARGES
****
Generated from CSD

@<TRIPOS>ATOM
      1 O1        -4.0502   -2.9752   -2.7757 O.2       1 RES1    0.0000
      2 O2        -4.7614   -4.1629    1.6596 O.2       1 RES1    0.0000
      3 O3         0.2447    7.8425    5.0617 O.2       1 RES1    0.0000
      4 O4         0.9123    8.9646    0.6141 O.2       1 RES1    0.0000
      5 O5        -2.1508    1.0178   -2.5515 O.2       1 RES1    0.0000
      6 N1        -4.3434   -3.6524   -1.7327 N.3       1 RES1    0.0000
      7 N2        -4.7014   -4.1711    0.3684 N.pl3     1 RES1    0.0000
      8 N3         0.5562    8.4612    3.9704 N.pl3     1 RES1    0.0000
      9 N4         0.9232    8.9799    1.8996 N.3       1 RES1    0.0000
     10 N5        -0.3839    1.1385   -1.1089 N.am      1 RES1    0.0000
     11 C1        -2.1104    1.8389    1.0525 C.1       1 RES1    0.0000
     12 C2        -2.5560    0.5158    0.7291 C.ar      1 RES1    0.0000
     13 C3        -2.3110   -0.0068   -0.5107 C.ar      1 RES1    0.0000
     14 C4        -2.8448   -1.2483   -0.8815 C.ar      1 RES1    0.0000
     15 C5        -3.5874   -1.9856    0.0142 C.ar      1 RES1    0.0000
     16 C6        -3.7664   -1.5077    1.2825 C.ar      1 RES1    0.0000
     17 C7        -3.2970   -0.2701    1.6704 C.ar      1 RES1    0.0000
     18 C8        -1.6408    0.7499   -1.4630 C.2       1 RES1    0.0000
     19 C9        -4.1770   -3.2572   -0.4299 C.2       1 RES1    0.0000
     20 C10       -4.8655   -5.0408   -1.7973 C.3       1 RES1    0.0000
     21 C11       -5.5041   -5.1806   -0.4249 C.3       1 RES1    0.0000
     22 C12       -5.7529   -5.2156   -2.9817 C.3       1 RES1    0.0000
     23 C13       -3.5836   -5.9364   -1.9992 C.3       1 RES1    0.0000
     24 C14       -6.9859   -4.7241   -0.4093 C.3       1 RES1    0.0000
     25 C15       -5.3887   -6.5591    0.1723 C.3       1 RES1    0.0000
     26 C16       -1.8077    2.9784    1.3361 C.1       1 RES1    0.0000
     27 C17       -1.3382    4.2957    1.6465 C.ar      1 RES1    0.0000
     28 C18       -1.6752    4.8766    2.8711 C.ar      1 RES1    0.0000
     29 C19       -1.1493    6.1258    3.2040 C.ar      1 RES1    0.0000
     30 C20       -0.3061    6.8078    2.3331 C.ar      1 RES1    0.0000
     31 C21       -0.0020    6.2104    1.1103 C.ar      1 RES1    0.0000
     32 C22       -0.5427    4.9358    0.8014 C.ar      1 RES1    0.0000
     33 C23        0.3423    8.0434    2.7176 C.2       1 RES1    0.0000
     34 C24        1.0874    9.8756    4.0408 C.3       1 RES1    0.0000
     35 C25        1.7485    9.9814    2.6494 C.3       1 RES1    0.0000
     36 C26        2.0622    9.9882    5.2499 C.3       1 RES1    0.0000
     37 C27       -0.0813   10.8033    4.2468 C.3       1 RES1    0.0000
     38 C28        1.6805   11.3356    1.9384 C.3       1 RES1    0.0000
     39 C29        3.1643    9.4345    2.5720 C.3       1 RES1    0.0000
     40 H1        -2.6901   -1.5863   -1.7551 H         1 RES1    0.0000
     41 H2        -4.2282   -2.0458    1.9145 H         1 RES1    0.0000
     42 H3        -3.4598    0.0544    2.5480 H         1 RES1    0.0000
     43 H4        -6.0754   -6.1084   -3.0051 H         1 RES1    0.0000
     44 H5        -6.4870   -4.6153   -2.9176 H         1 RES1    0.0000
     45 H6        -5.2639   -5.0349   -3.7754 H         1 RES1    0.0000
     46 H7        -3.8394   -6.8496   -2.0514 H         1 RES1    0.0000
     47 H8        -3.1453   -5.6829   -2.8033 H         1 RES1    0.0000
     48 H9        -2.9934   -5.8140   -1.2655 H         1 RES1    0.0000
     49 H10       -7.5138   -5.3419   -0.9015 H         1 RES1    0.0000
     50 H11       -7.2959   -4.6881    0.4882 H         1 RES1    0.0000
     51 H12       -7.0571   -3.8624   -0.8028 H         1 RES1    0.0000
     52 H13       -5.9017   -7.1692   -0.3442 H         1 RES1    0.0000
     53 H14       -5.7162   -6.5455    1.0638 H         1 RES1    0.0000
     54 H15       -4.4782   -6.8301    0.1735 H         1 RES1    0.0000
     55 H16       -2.2547    4.4219    3.4707 H         1 RES1    0.0000
     56 H17       -1.3744    6.5193    4.0392 H         1 RES1    0.0000
     57 H18        0.5617    6.6553    0.4867 H         1 RES1    0.0000
     58 H19       -0.3279    4.5288   -0.0296 H         1 RES1    0.0000
     59 H20        2.4024   10.8732    5.3048 H         1 RES1    0.0000
     60 H21        1.5959    9.7774    6.0497 H         1 RES1    0.0000
     61 H22        2.7822    9.3792    5.1341 H         1 RES1    0.0000
     62 H23        0.2294   11.6989    4.2946 H         1 RES1    0.0000
     63 H24       -0.5277   10.5798    5.0551 H         1 RES1    0.0000
     64 H25       -0.6850   10.7158    3.5186 H         1 RES1    0.0000
     65 H26        2.2021   11.9729    2.4125 H         1 RES1    0.0000
     66 H27        0.7776   11.6290    1.9018 H         1 RES1    0.0000
     67 H28        2.0199   11.2433    1.0553 H         1 RES1    0.0000
     68 H29        3.7564   10.0203    3.0291 H         1 RES1    0.0000
     69 H30        3.4255    9.3685    1.6606 H         1 RES1    0.0000
     70 H31        3.1967    8.5748    2.9741 H         1 RES1    0.0000
     71 H32        0.0427    0.5119   -0.5319 H         1 RES1    0.0000
     72 H33        0.4808    1.3882   -1.4094 H         1 RES1    0.0000
@<TRIPOS>BOND
     1    1    6 1
     2    2    7 1
     3    3    8 1
     4    4    9 1
     5    5   18 2
     6    6   19 1
     7    7   19 2
     8    8   33 2
     9    9   33 1
    10   10   18 1
    11   11   12 1
    12   12   13 ar
    13   13   14 ar
    14   14   15 ar
    15   15   16 ar
    16   16   17 ar
    17   17   12 ar
    18   18   13 1
    19   19   15 1
    20   20    6 1
    21   21    7 1
    22   22   20 1
    23   23   20 1
    24   24   21 1
    25   25   21 1
    26   26   11 3
    27   27   26 1
    28   28   27 ar
    29   29   28 ar
    30   30   29 ar
    31   31   30 ar
    32   32   27 ar
    33   33   30 1
    34   34    8 1
    35   35    9 1
    36   36   34 1
    37   37   34 1
    38   38   35 1
    39   39   35 1
    40   40   14 1
    41   41   16 1
    42   42   17 1
    43   43   22 1
    44   44   22 1
    45   45   22 1
    46   46   23 1
    47   47   23 1
    48   48   23 1
    49   49   24 1
    50   50   24 1
    51   51   24 1
    52   52   25 1
    53   53   25 1
    54   54   25 1
    55   55   28 1
    56   56   29 1
    57   57   31 1
    58   58   32 1
    59   59   36 1
    60   60   36 1
    61   61   36 1
    62   62   37 1
    63   63   37 1
    64   64   37 1
    65   65   38 1
    66   66   38 1
    67   67   38 1
    68   68   39 1
    69   69   39 1
    70   70   39 1
    71   71   10 1
    72   72   10 1
    73   20   21 1
    74   31   32 ar
    75   34   35 1
@<TRIPOS>SUBSTRUCTURE
     1 RES1 1

@<TRIPOS>CRYSIN
  10.1201    9.7143   14.6298  90.0000 105.3420  90.0000   7 1

