# MOL2 file generated by ConQuest
# Please check atom types

@<TRIPOS>MOLECULE
DOWQIR
    19    19     1
SMALL
NO_CHARGES
****
Generated from CSD

@<TRIPOS>ATOM
      1 O1         4.7315    1.6710   -1.1452 O.2       1 RES1    0.0000
      2 O2         2.9229    1.5694   -2.3257 O.2       1 RES1    0.0000
      3 N1         3.2048    1.5722    3.6020 N.3       1 RES1    0.0000
      4 H1         2.6693    1.5400    4.2422 H         1 RES1    0.0000
      5 N2         3.5109    1.6189   -1.2418 N.pl3     1 RES1    0.0000
      6 C1         2.6113    1.5630    2.3764 C.ar      1 RES1    0.0000
      7 C2         3.3604    1.6221    1.1983 C.ar      1 RES1    0.0000
      8 H2         4.2884    1.6755    1.2286 H         1 RES1    0.0000
      9 C3         2.6926    1.5985   -0.0180 C.ar      1 RES1    0.0000
     10 C4         1.3283    1.5326   -0.1392 C.ar      1 RES1    0.0000
     11 H3         0.9128    1.5234   -0.9711 H         1 RES1    0.0000
     12 C5         0.6000    1.4803    1.0369 C.ar      1 RES1    0.0000
     13 H4        -0.3280    1.4378    0.9936 H         1 RES1    0.0000
     14 C6         1.2091    1.4902    2.2615 C.ar      1 RES1    0.0000
     15 H5         0.6892    1.4480    3.0305 H         1 RES1    0.0000
     16 C7         4.6259    1.6397    3.7964 C.3       1 RES1    0.0000
     17 H6         4.8211    1.6308    4.7362 H         1 RES1    0.0000
     18 H7         4.9641    2.4500    3.4074 H         1 RES1    0.0000
     19 H8         5.0428    0.8844    3.3761 H         1 RES1    0.0000
@<TRIPOS>BOND
     1    1    5 2
     2    2    5 2
     3    3    4 1
     4    5    9 1
     5    6    3 1
     6    7    6 ar
     7    8    7 1
     8    9    7 ar
     9   10    9 ar
    10   11   10 1
    11   12   10 ar
    12   13   12 1
    13   14    6 ar
    14   15   14 1
    15   16    3 1
    16   17   16 1
    17   18   16 1
    18   19   16 1
    19   12   14 ar
@<TRIPOS>SUBSTRUCTURE
     1 RES1 1

@<TRIPOS>CRYSIN
   6.9742   12.7802    8.2930  90.0000 104.7600  90.0000  14 1

