# MOL2 file generated by ConQuest
# Please check atom types

@<TRIPOS>MOLECULE
DOXGIH
    26    26     1
SMALL
USER_CHARGES
****
Generated from CSD

@<TRIPOS>ATOM
      1 C1         4.7729    0.7852    2.8727 C.ar      1 RES1    0.0000
      2 C2         5.9757    0.6269    3.5749 C.ar      1 RES1    0.0000
      3 N1         6.0171   -0.0897    4.8547 N.pl3     1 RES1    0.0000
      4 O1         6.7577    0.3408    5.7310 O.2       1 RES1    0.0000
      5 O2         5.3522   -1.1114    4.9640 O.2       1 RES1    0.0000
      6 C3         7.1961    1.0467    3.0705 C.ar      1 RES1    0.0000
      7 H1         7.9854    0.9657    3.5920 H         1 RES1    0.0000
      8 C4         7.2510    1.5848    1.7985 C.ar      1 RES1    0.0000
      9 H2         8.0825    1.8646    1.4344 H         1 RES1    0.0000
     10 C5         6.0938    1.7141    1.0595 C.ar      1 RES1    0.0000
     11 H3         6.1352    2.0601    0.1760 H         1 RES1    0.0000
     12 C6         4.8744    1.3440    1.5944 C.ar      1 RES1    0.0000
     13 H4         4.0857    1.4718    1.0810 H         1 RES1    0.0000
     14 C7         3.4642    0.4636    3.4565 C.2       1 RES1    0.0000
     15 N2         2.5175    0.0066    2.6535 N.1       1 RES1    1.0000
     16 N3         1.6959   -0.3868    1.9978 N.2       1 RES1   -1.0000
     17 C8         3.0430    0.8551    4.7932 C.2       1 RES1    0.0000
     18 O3         3.7862    1.3906    5.5843 O.2       1 RES1    0.0000
     19 O4         1.7595    0.5505    5.0333 O.3       1 RES1    0.0000
     20 C9         1.2598    0.8834    6.3661 C.3       1 RES1    0.0000
     21 H5         1.9803    0.7499    7.0316 H         1 RES1    0.0000
     22 H6         0.5113    0.2785    6.5983 H         1 RES1    0.0000
     23 C10        0.7885    2.3046    6.4188 C.3       1 RES1    0.0000
     24 H7         1.5417    2.9056    6.2360 H         1 RES1    0.0000
     25 H8         0.4263    2.4959    7.3081 H         1 RES1    0.0000
     26 H9         0.0903    2.4426    5.7451 H         1 RES1    0.0000
@<TRIPOS>BOND
     1    1    2 ar
     2    2    3 1
     3    3    4 2
     4    5    3 2
     5    6    2 ar
     6    7    6 1
     7    8    6 ar
     8    9    8 1
     9   10    8 ar
    10   11   10 1
    11   12    1 ar
    12   13   12 1
    13   14    1 1
    14   15   14 2
    15   16   15 2
    16   17   14 1
    17   18   17 2
    18   19   17 1
    19   20   19 1
    20   21   20 1
    21   22   20 1
    22   23   20 1
    23   24   23 1
    24   25   23 1
    25   26   23 1
    26   10   12 ar
@<TRIPOS>SUBSTRUCTURE
     1 RES1 1

@<TRIPOS>CRYSIN
   8.6002    8.4637   14.9375  90.0000  98.1190  90.0000  14 1

