# MOL2 file generated by ConQuest
# Please check atom types

@<TRIPOS>MOLECULE
DOXVIX
    65    71     1
SMALL
NO_CHARGES
****
Generated from CSD

@<TRIPOS>ATOM
      1 O1        -2.9260    3.8124    7.5431 O.2       1 RES1    0.0000
      2 O2        -0.7576    2.7284   11.8864 O.3       1 RES1    0.0000
      3 N1        -1.1408    5.0347    6.8384 N.am      1 RES1    0.0000
      4 C1        -0.5597    6.6815   13.1606 C.ar      1 RES1    0.0000
      5 N2        -0.7154    2.9486    9.5307 N.3       1 RES1    0.0000
      6 O3         0.0132   10.7179   13.9904 O.2       1 RES1    0.0000
      7 C2        -1.8157    4.3465    7.7502 C.2       1 RES1    0.0000
      8 C3         0.0791    5.6303   13.8523 C.ar      1 RES1    0.0000
      9 C4        -1.9489    7.4509   11.2996 C.ar      1 RES1    0.0000
     10 C5        -1.3698    5.0442   11.5125 C.ar      1 RES1    0.0000
     11 C6        -1.3056    6.3846   11.9712 C.ar      1 RES1    0.0000
     12 C7        -1.1445    4.2860    9.1294 C.3       1 RES1    0.0000
     13 C8        -1.4703    0.8621   10.4540 C.3       1 RES1    0.0000
     14 C9         0.8045    2.0475    7.7459 C.ar      1 RES1    0.0000
     15 C10       -0.0621    1.9492    8.8102 C.ar      1 RES1    0.0000
     16 C11       -0.3639    3.5600    4.2181 C.ar      1 RES1    0.0000
     17 C12       -0.7326    4.0516   12.2402 C.ar      1 RES1    0.0000
     18 C13       -0.0041    4.3465   13.4166 C.ar      1 RES1    0.0000
     19 C14       -2.1401    4.6150   10.2800 C.3       1 RES1    0.0000
     20 C15       -1.4719    2.4238   10.6467 C.3       1 RES1    0.0000
     21 C16       -0.6709    4.9005    4.4123 C.ar      1 RES1    0.0000
     22 C17        1.0748    4.1329    2.3845 C.ar      1 RES1    0.0000
     23 C18       -2.7456    3.2386   10.6179 C.3       1 RES1    0.0000
     24 N3        -0.9814   10.3814   13.3605 N.pl3     1 RES1    0.0000
     25 C19       -0.3889    0.7090    9.3854 C.ar      1 RES1    0.0000
     26 C20        0.5075    3.1706    3.2028 C.ar      1 RES1    0.0000
     27 C21        0.1800   -0.4405    8.8979 C.ar      1 RES1    0.0000
     28 C22       -1.0898    8.9918   12.9017 C.ar      1 RES1    0.0000
     29 C23       -2.8085    0.4197    9.8485 C.3       1 RES1    0.0000
     30 O4        -1.8964   11.1490   13.0714 O.2       1 RES1    0.0000
     31 C24       -0.4451    8.0200   13.5834 C.ar      1 RES1    0.0000
     32 C25       -0.1089    5.8363    3.5810 C.ar      1 RES1    0.0000
     33 C26        1.0809   -0.3554    7.8408 C.ar      1 RES1    0.0000
     34 C27       -1.8610    8.7290   11.7555 C.ar      1 RES1    0.0000
     35 C28       -1.6433    5.3051    5.4880 C.3       1 RES1    0.0000
     36 C29        1.3632    0.8772    7.2670 C.ar      1 RES1    0.0000
     37 C30       -1.2104    0.0926   11.7311 C.3       1 RES1    0.0000
     38 C31        0.7627    5.4507    2.5642 C.ar      1 RES1    0.0000
     39 H1        -2.3914    7.2499   10.4863 H         1 RES1    0.0000
     40 H2        -2.3284    9.4311   11.2975 H         1 RES1    0.0000
     41 H3         0.0828    8.2251   14.3587 H         1 RES1    0.0000
     42 H4        -0.7690    2.9097    4.7844 H         1 RES1    0.0000
     43 H5         0.7179    2.2425    3.0816 H         1 RES1    0.0000
     44 H6         1.6788    3.8694    1.6869 H         1 RES1    0.0000
     45 H7         1.1529    6.1242    1.9873 H         1 RES1    0.0000
     46 H8        -0.3341    6.7617    3.7072 H         1 RES1    0.0000
     47 H9         0.9041    2.8975    7.2175 H         1 RES1    0.0000
     48 H10       -2.8353    5.3286   10.0655 H         1 RES1    0.0000
     49 H11        1.9702    0.8943    6.5161 H         1 RES1    0.0000
     50 H12       -0.0433   -1.2834    9.2975 H         1 RES1    0.0000
     51 H13       -2.8082   -0.5462    9.7285 H         1 RES1    0.0000
     52 H14       -2.9253    0.8472    8.9749 H         1 RES1    0.0000
     53 H15       -3.5308    0.6676   10.4375 H         1 RES1    0.0000
     54 H16       -1.2228   -0.8525   11.5388 H         1 RES1    0.0000
     55 H17       -1.8968    0.2970   12.3888 H         1 RES1    0.0000
     56 H18       -0.3455    0.3348   12.0868 H         1 RES1    0.0000
     57 H19        0.4285    3.6450   13.9093 H         1 RES1    0.0000
     58 H20        0.5859    5.8213   14.6441 H         1 RES1    0.0000
     59 H21       -3.2110    3.2974   11.4578 H         1 RES1    0.0000
     60 H22       -3.3704    2.9873    9.9290 H         1 RES1    0.0000
     61 H23       -0.2191    4.7715    9.2067 H         1 RES1    0.0000
     62 H24       -2.4728    4.8197    5.3568 H         1 RES1    0.0000
     63 H25       -1.8127    6.2736    5.3970 H         1 RES1    0.0000
     64 H26       -0.2816    5.3823    7.0541 H         1 RES1    0.0000
     65 H27        1.5070   -1.1498    7.5086 H         1 RES1    0.0000
@<TRIPOS>BOND
     1    1    7 2
     2    2   17 1
     3    3    7 1
     4    4    8 ar
     5    5   12 1
     6    6   24 2
     7    7   12 1
     8    8   18 ar
     9    9   11 ar
    10   10   11 ar
    11   11    4 ar
    12   12   19 1
    13   13   20 1
    14   14   15 ar
    15   15    5 1
    16   16   21 ar
    17   17   10 ar
    18   18   17 ar
    19   19   10 1
    20   20    2 1
    21   21   32 ar
    22   22   26 ar
    23   23   19 1
    24   24   28 1
    25   25   13 1
    26   26   16 ar
    27   27   25 ar
    28   28   31 ar
    29   29   13 1
    30   30   24 2
    31   31    4 ar
    32   32   38 ar
    33   33   27 ar
    34   34    9 ar
    35   35    3 1
    36   36   14 ar
    37   37   13 1
    38   38   22 ar
    39   39    9 1
    40   40   34 1
    41   41   31 1
    42   42   16 1
    43   43   26 1
    44   44   22 1
    45   45   38 1
    46   46   32 1
    47   47   14 1
    48   48   19 1
    49   49   36 1
    50   50   27 1
    51   51   29 1
    52   52   29 1
    53   53   29 1
    54   54   37 1
    55   55   37 1
    56   56   37 1
    57   57   18 1
    58   58    8 1
    59   59   23 1
    60   60   23 1
    61   61   12 1
    62   62   35 1
    63   63   35 1
    64   64    3 1
    65   65   33 1
    66    5   20 1
    67   15   25 ar
    68   20   23 1
    69   21   35 1
    70   28   34 ar
    71   33   36 ar
@<TRIPOS>SUBSTRUCTURE
     1 RES1 1

@<TRIPOS>CRYSIN
   9.2161   18.9062   14.7370  90.0000 102.6090  90.0000  14 2

