# MOL2 file generated by ConQuest
# Please check atom types

@<TRIPOS>MOLECULE
DOXXAP
    17    16     1
SMALL
USER_CHARGES
****
Generated from CSD

@<TRIPOS>ATOM
      1 C1         8.8648   10.2067    3.5834 C.2       1 RES1    0.0000
      2 C2         8.9121    8.6765    3.8719 C.3       1 RES1    0.0000
      3 C3         8.6007    7.9181    2.5864 C.3       1 RES1    0.0000
      4 N1         7.9076    8.3894    4.9411 N.4       1 RES1    1.0000
      5 N2         8.7026    6.4550    2.8002 N.pl3     1 RES1    0.0000
      6 N3         7.5852    5.8704    2.9177 N.2       1 RES1    0.0000
      7 O1         7.7655   10.7530    3.6530 O.co2     1 RES1    0.0000
      8 O2         9.9585   10.7664    3.3147 O.co2     1 RES1   -1.0000
      9 O3         9.8556    5.8867    2.8468 O.2       1 RES1    0.0000
     10 O4         7.7701    4.5379    3.1092 O.3       1 RES1    0.0000
     11 H1         9.7627    8.4384    4.1809 H         1 RES1    0.0000
     12 H2         9.2527    8.1600    1.9468 H         1 RES1    0.0000
     13 H3         7.7592    8.0448    2.2149 H         1 RES1    0.0000
     14 H4         7.0579    8.4384    4.6660 H         1 RES1    0.0000
     15 H5         8.0142    7.6320    5.2979 H         1 RES1    0.0000
     16 H6         8.0142    9.0336    5.5341 H         1 RES1    0.0000
     17 H7         6.9395    4.1184    3.0638 H         1 RES1    0.0000
@<TRIPOS>BOND
     1    1    2 1
     2    2    3 1
     3    3    5 1
     4    4    2 1
     5    5    6 un
     6    6   10 1
     7    7    1 2
     8    8    1 1
     9    9    5 un
    10   10   17 1
    11   11    2 1
    12   12    3 1
    13   13    3 1
    14   14    4 1
    15   15    4 1
    16   16    4 1
@<TRIPOS>SUBSTRUCTURE
     1 RES1 1

@<TRIPOS>CRYSIN
   9.1070    9.6000    6.3830  90.0000  90.0000  90.0000  19 1

