# MOL2 file generated by ConQuest
# Please check atom types

@<TRIPOS>MOLECULE
DOYVAO
    19    20     1
SMALL
NO_CHARGES
****
Generated from CSD

@<TRIPOS>ATOM
      1 N1         1.3321   10.7835    6.7359 N.ar      1 RES1    0.0000
      2 N2         0.7643    9.9597    5.8795 N.pl3     1 RES1    0.0000
      3 N3        -0.4957   10.1977    5.5688 N.ar      1 RES1    0.0000
      4 C1        -2.0896   12.0119    6.3553 C.3       1 RES1    0.0000
      5 C2        -2.0747   12.9706    7.5420 C.3       1 RES1    0.0000
      6 C3        -0.7779   13.7378    7.6351 C.3       1 RES1    0.0000
      7 C4         0.4264   12.8335    7.9053 C.3       1 RES1    0.0000
      8 C5         0.3414   11.6493    7.0025 C.ar      1 RES1    0.0000
      9 C6        -0.7868   11.2912    6.2936 C.ar      1 RES1    0.0000
     10 O1         1.4110    8.8900    5.3522 O.3       1 RES1    0.0000
     11 H1        -2.7928   11.3739    6.4046 H         1 RES1    0.0000
     12 H2        -2.2392   12.5151    5.5027 H         1 RES1    0.0000
     13 H3        -2.8961   13.5519    7.4726 H         1 RES1    0.0000
     14 H4        -2.1474   12.3949    8.3690 H         1 RES1    0.0000
     15 H5        -0.7759   14.4755    8.3051 H         1 RES1    0.0000
     16 H6        -0.6385   14.1605    6.6839 H         1 RES1    0.0000
     17 H7         1.2736   13.3060    7.7026 H         1 RES1    0.0000
     18 H8         0.4495   12.5264    8.8108 H         1 RES1    0.0000
     19 H9         2.0611    9.2934    4.6519 H         1 RES1    0.0000
@<TRIPOS>BOND
     1    1    2 ar
     2    2    3 ar
     3    3    9 ar
     4    4    5 1
     5    5    6 1
     6    6    7 1
     7    7    8 1
     8    8    1 ar
     9    9    4 1
    10   10    2 1
    11   11    4 1
    12   12    4 1
    13   13    5 1
    14   14    5 1
    15   15    6 1
    16   16    6 1
    17   17    7 1
    18   18    7 1
    19   19   10 1
    20    8    9 ar
@<TRIPOS>SUBSTRUCTURE
     1 RES1 1

@<TRIPOS>CRYSIN
   6.8000   11.3320   18.2570  90.0000  90.0000  90.0000  61 1

