# MOL2 file generated by ConQuest
# Please check atom types

@<TRIPOS>MOLECULE
DOZKUZ
    37    39     1
SMALL
NO_CHARGES
****
Generated from CSD

@<TRIPOS>ATOM
      1 C1         1.8479    5.0513   12.2015 C.3       1 RES1    0.0000
      2 H1         1.1608    5.2935   12.8269 H         1 RES1    0.0000
      3 H2         2.1984    4.1883   12.4306 H         1 RES1    0.0000
      4 H3         1.4785    5.0219   11.3154 H         1 RES1    0.0000
      5 C2         4.7850    2.6695   10.1580 C.2       1 RES1    0.0000
      6 C3         2.9031    6.0255   12.2473 C.ar      1 RES1    0.0000
      7 C4         2.7894    7.1682   13.0595 C.ar      1 RES1    0.0000
      8 H4         2.0378    7.2926   13.5950 H         1 RES1    0.0000
      9 C5         3.7848    8.0861   13.0560 C.ar      1 RES1    0.0000
     10 H5         3.7192    8.8315   13.6091 H         1 RES1    0.0000
     11 C6         4.8635    7.9470   12.2738 C.ar      1 RES1    0.0000
     12 H6         5.5283    8.5973   12.2861 H         1 RES1    0.0000
     13 C7         5.0031    6.8430   11.4475 C.ar      1 RES1    0.0000
     14 H7         5.7476    6.7440   10.8979 H         1 RES1    0.0000
     15 C8         4.0088    5.9024   11.4634 C.ar      1 RES1    0.0000
     16 C9         3.5210    4.5014    9.4462 C.2       1 RES1    0.0000
     17 C10        3.9595    3.1178    9.0111 C.3       1 RES1    0.0000
     18 C11        2.7378    2.2079    8.6940 C.3       1 RES1    0.0000
     19 H8         2.7859    1.3876    9.2102 H         1 RES1    0.0000
     20 H9         1.9112    2.6642    8.9160 H         1 RES1    0.0000
     21 C12        2.7906    1.9095    7.2441 C.3       1 RES1    0.0000
     22 H10        2.6440    0.9634    7.0908 H         1 RES1    0.0000
     23 H11        2.1023    2.4072    6.7755 H         1 RES1    0.0000
     24 C13        4.0498    2.2828    6.7825 C.3       1 RES1    0.0000
     25 H12        3.9560    2.7150    5.9193 H         1 RES1    0.0000
     26 H13        4.5892    1.4853    6.6575 H         1 RES1    0.0000
     27 C14        4.7217    3.1593    7.6652 C.3       1 RES1    0.0000
     28 H14        4.7252    4.0611    7.3075 H         1 RES1    0.0000
     29 H15        5.6409    2.8729    7.7902 H         1 RES1    0.0000
     30 C15        5.5049    1.3903   10.3183 C.3       1 RES1    0.0000
     31 H16        5.9551    1.3809   11.1657 H         1 RES1    0.0000
     32 H17        6.1486    1.2939    9.6136 H         1 RES1    0.0000
     33 H18        4.8776    0.6637   10.2813 H         1 RES1    0.0000
     34 N1         4.8518    3.5848   11.0575 N.pl3     1 RES1    0.0000
     35 N2         4.1249    4.7596   10.6266 N.am      1 RES1    0.0000
     36 O1         5.4298    3.6370   12.1748 O.2       1 RES1    0.0000
     37 O2         2.7847    5.2587    8.8508 O.2       1 RES1    0.0000
@<TRIPOS>BOND
     1    1    2 1
     2    3    1 1
     3    4    1 1
     4    5   17 1
     5    6    1 1
     6    7    6 ar
     7    8    7 1
     8    9    7 ar
     9   10    9 1
    10   11    9 ar
    11   12   11 1
    12   13   11 ar
    13   14   13 1
    14   15    6 ar
    15   16   17 1
    16   17   18 1
    17   18   19 1
    18   20   18 1
    19   21   18 1
    20   22   21 1
    21   23   21 1
    22   24   21 1
    23   25   24 1
    24   26   24 1
    25   27   17 1
    26   28   27 1
    27   29   27 1
    28   30    5 1
    29   31   30 1
    30   32   30 1
    31   33   30 1
    32   34    5 2
    33   35   15 1
    34   36   34 1
    35   37   16 2
    36   13   15 ar
    37   16   35 1
    38   24   27 1
    39   34   35 1
@<TRIPOS>SUBSTRUCTURE
     1 RES1 1

@<TRIPOS>CRYSIN
  11.7250   13.3810   17.6170  90.0000  90.0000  90.0000  61 1

