# MOL2 file generated by ConQuest
# Please check atom types

@<TRIPOS>MOLECULE
DOZPAL
    25    26     1
SMALL
NO_CHARGES
****
Generated from CSD

@<TRIPOS>ATOM
      1 O1        -0.1854   -5.7828   -8.7187 O.2       1 RES1    0.0000
      2 O2         0.6972   -6.7292  -10.4420 O.2       1 RES1    0.0000
      3 O3        -1.2546   -5.5376  -16.1661 O.2       1 RES1    0.0000
      4 O4        -1.4743   -6.9766  -14.4823 O.3       1 RES1    0.0000
      5 N1         0.3143   -5.7424   -9.8317 N.pl3     1 RES1    0.0000
      6 C1         0.5133   -4.4298  -10.4438 C.ar      1 RES1    0.0000
      7 C2         0.9674   -3.4337   -9.6450 C.ar      1 RES1    0.0000
      8 H1         1.1042   -3.5842   -8.7384 H         1 RES1    0.0000
      9 C3         1.2293   -2.1707  -10.2014 C.ar      1 RES1    0.0000
     10 H2         1.5516   -1.4864   -9.6611 H         1 RES1    0.0000
     11 C4         1.0142   -1.9472  -11.5244 C.ar      1 RES1    0.0000
     12 H3         1.2128   -1.1125  -11.8852 H         1 RES1    0.0000
     13 C5         0.4914   -2.9635  -12.3609 C.ar      1 RES1    0.0000
     14 C6         0.2310   -4.2483  -11.8350 C.ar      1 RES1    0.0000
     15 N2         0.2710   -2.6408  -13.6767 N.ar      1 RES1    0.0000
     16 C7        -0.2235   -3.5718  -14.4450 C.ar      1 RES1    0.0000
     17 H4        -0.3652   -3.3638  -15.3390 H         1 RES1    0.0000
     18 C8        -0.5597   -4.8766  -14.0106 C.ar      1 RES1    0.0000
     19 C9        -0.3211   -5.2164  -12.7038 C.ar      1 RES1    0.0000
     20 H5        -0.5197   -6.0698  -12.3932 H         1 RES1    0.0000
     21 C10       -1.1355   -5.8185  -15.0051 C.2       1 RES1    0.0000
     22 C11       -2.0343   -7.9597  -15.3928 C.3       1 RES1    0.0000
     23 H6        -1.3281   -8.3631  -15.9026 H         1 RES1    0.0000
     24 H7        -2.6528   -7.5283  -15.9870 H         1 RES1    0.0000
     25 H8        -2.4930   -8.6361  -14.8884 H         1 RES1    0.0000
@<TRIPOS>BOND
     1    1    5 2
     2    2    5 2
     3    3   21 2
     4    4   21 1
     5    5    6 1
     6    6    7 ar
     7    7    8 1
     8    9    7 ar
     9   10    9 1
    10   11    9 ar
    11   12   11 1
    12   13   11 ar
    13   14    6 ar
    14   15   13 ar
    15   16   15 ar
    16   17   16 1
    17   18   16 ar
    18   19   14 ar
    19   20   19 1
    20   21   18 1
    21   22    4 1
    22   23   22 1
    23   24   22 1
    24   25   22 1
    25   13   14 ar
    26   18   19 ar
@<TRIPOS>SUBSTRUCTURE
     1 RES1 1

@<TRIPOS>CRYSIN
   3.7687   15.5159   17.9508  90.0000  90.0000  90.0000  29 5

