# MOL2 file generated by ConQuest
# Please check atom types

@<TRIPOS>MOLECULE
DUCLIY
    96   102     1
SMALL
NO_CHARGES
****
Generated from CSD

@<TRIPOS>ATOM
      1 N1         1.7820    7.8396    2.6319 N.pl3     1 RES1    0.0000
      2 H1         1.0980    7.5625    3.0746 H         1 RES1    0.0000
      3 N2         2.7262    9.7944    5.1995 N.pl3     1 RES1    0.0000
      4 H2         2.9983   10.1409    4.4613 H         1 RES1    0.0000
      5 C1         2.7668    8.4565    5.4894 C.2       1 RES1    0.0000
      6 N3        -0.4835   10.2330    1.8785 N.pl3     1 RES1    0.0000
      7 H3         0.2702   10.6448    1.9279 H         1 RES1    0.0000
      8 N4         0.1406   11.8840    4.6602 N.pl3     1 RES1    0.0000
      9 H4        -0.2213   11.2394    5.0981 H         1 RES1    0.0000
     10 N5         9.1552    7.7449    4.6227 N.pl3     1 RES1    0.0000
     11 C2         4.9362    7.4825    4.6682 C.ar      1 RES1    0.0000
     12 C3         2.2494    8.3191    6.7377 C.2       1 RES1    0.0000
     13 H5         2.1513    7.5196    7.2033 H         1 RES1    0.0000
     14 C4         3.0704    7.8626    3.1144 C.2       1 RES1    0.0000
     15 C5         1.3572   12.4438    4.9615 C.2       1 RES1    0.0000
     16 O1         9.7888    6.8434    4.0892 O.2       1 RES1    0.0000
     17 C6         3.3972    7.4678    4.5388 C.3       1 RES1    0.0000
     18 C7         7.6939    7.6061    4.6934 C.ar      1 RES1    0.0000
     19 C8         1.8853    9.5998    7.2074 C.2       1 RES1    0.0000
     20 H6         1.5011    9.7887    8.0331 H         1 RES1    0.0000
     21 O2         9.6734    8.7568    5.0724 O.2       1 RES1    0.0000
     22 C9        -0.4206   12.4928    3.5631 C.2       1 RES1    0.0000
     23 C10        2.1941   10.5086    6.2445 C.2       1 RES1    0.0000
     24 C11        1.7391    8.3193    1.3486 C.2       1 RES1    0.0000
     25 C12       -0.6611    9.0132    1.2861 C.2       1 RES1    0.0000
     26 C13        5.5971    8.4475    5.3973 C.ar      1 RES1    0.0000
     27 H7         5.1042    9.0629    5.8919 H         1 RES1    0.0000
     28 C14        0.4651    8.3301    0.5365 C.3       1 RES1    0.0000
     29 C15        6.9784    8.5199    5.4092 C.ar      1 RES1    0.0000
     30 H8         7.4120    9.1815    5.8982 H         1 RES1    0.0000
     31 C16       -1.6680   10.7152    2.3842 C.2       1 RES1    0.0000
     32 C17        0.4618   13.4433    3.1640 C.2       1 RES1    0.0000
     33 H9         0.3537   14.0164    2.4393 H         1 RES1    0.0000
     34 C18        1.5720   13.4138    4.0366 C.2       1 RES1    0.0000
     35 H10        2.3203   13.9641    3.9860 H         1 RES1    0.0000
     36 C19        2.1088   12.0121    6.1986 C.3       1 RES1    0.0000
     37 C20       -2.6142    9.7823    2.0943 C.2       1 RES1    0.0000
     38 H11       -3.5169    9.8354    2.3091 H         1 RES1    0.0000
     39 C21        2.8586    6.0639    4.8708 C.3       1 RES1    0.0000
     40 H12        3.1267    5.8205    5.7601 H         1 RES1    0.0000
     41 H13        3.2126    5.4286    4.2432 H         1 RES1    0.0000
     42 H14        1.9001    6.0672    4.8158 H         1 RES1    0.0000
     43 C22        5.7037    6.5459    3.9907 C.ar      1 RES1    0.0000
     44 H15        5.2785    5.8673    3.5185 H         1 RES1    0.0000
     45 C23        3.0171    8.6479    1.0192 C.2       1 RES1    0.0000
     46 H16        3.2949    9.0008    0.2039 H         1 RES1    0.0000
     47 C24        3.8478    8.3654    2.1161 C.2       1 RES1    0.0000
     48 H17        4.7679    8.4986    2.1538 H         1 RES1    0.0000
     49 C25       -1.7774   12.0602    3.0518 C.3       1 RES1    0.0000
     50 C26       -1.9882    8.7209    1.4121 C.2       1 RES1    0.0000
     51 H18       -2.4076    7.9513    1.1012 H         1 RES1    0.0000
     52 C27        7.0823    6.5975    4.0007 C.ar      1 RES1    0.0000
     53 H19        7.5848    5.9605    3.5467 H         1 RES1    0.0000
     54 C28        0.0386    6.8774    0.2282 C.3       1 RES1    0.0000
     55 H20       -0.1684    6.4327    1.0651 H         1 RES1    0.0000
     56 H21       -0.7751    6.9004   -0.2996 H         1 RES1    0.0000
     57 C29        0.7453    9.1317   -0.7624 C.3       1 RES1    0.0000
     58 H22        1.0886   10.0049   -0.5161 H         1 RES1    0.0000
     59 H23        1.4417    8.6750   -1.2596 H         1 RES1    0.0000
     60 C30       -2.3340   13.0798    2.0402 C.3       1 RES1    0.0000
     61 H24       -1.6614   13.2420    1.3600 H         1 RES1    0.0000
     62 H25       -3.1068   12.6913    1.6016 H         1 RES1    0.0000
     63 C31        3.5367   12.6091    6.1474 C.3       1 RES1    0.0000
     64 H26        3.9638   12.3195    5.3272 H         1 RES1    0.0000
     65 H27        3.4678   13.5756    6.1162 H         1 RES1    0.0000
     66 C32       -2.7714   11.9717    4.2289 C.3       1 RES1    0.0000
     67 H28       -3.6136   11.6104    3.9091 H         1 RES1    0.0000
     68 H29       -2.4208   11.3612    4.8974 H         1 RES1    0.0000
     69 C33        1.3326   12.4917    7.4550 C.3       1 RES1    0.0000
     70 H30        0.4715   12.0472    7.4715 H         1 RES1    0.0000
     71 H31        1.8214   12.2106    8.2433 H         1 RES1    0.0000
     72 C34       -3.6324   14.2634    3.8730 C.3       1 RES1    0.0000
     73 H32       -3.7678   15.1296    4.2871 H         1 RES1    0.0000
     74 H33       -4.4980   13.9239    3.5969 H         1 RES1    0.0000
     75 C35        1.0729    6.0510   -0.5155 C.3       1 RES1    0.0000
     76 H34        1.2109    6.4223   -1.3898 H         1 RES1    0.0000
     77 H35        0.7614    5.1466   -0.5977 H         1 RES1    0.0000
     78 H36        1.9005    6.0608   -0.0282 H         1 RES1    0.0000
     79 C36       -0.4466    9.3278   -1.6766 C.3       1 RES1    0.0000
     80 H37       -0.7940    8.4712   -1.9373 H         1 RES1    0.0000
     81 H38       -0.1731    9.8133   -2.4581 H         1 RES1    0.0000
     82 H39       -1.1268    9.8220   -1.2141 H         1 RES1    0.0000
     83 C37        1.1024   13.9815    7.5415 C.3       1 RES1    0.0000
     84 H40        1.9487   14.4350    7.5751 H         1 RES1    0.0000
     85 H41        0.6005   14.1832    8.3343 H         1 RES1    0.0000
     86 H42        0.6137   14.2756    6.7688 H         1 RES1    0.0000
     87 C38       -3.0221   13.3223    4.8712 C.3       1 RES1    0.0000
     88 H43       -3.6194   13.2175    5.6283 H         1 RES1    0.0000
     89 H44       -2.1852   13.6899    5.1954 H         1 RES1    0.0000
     90 C39        4.4242   12.2241    7.3190 C.3       1 RES1    0.0000
     91 H45        4.0772   12.6142    8.1256 H         1 RES1    0.0000
     92 H46        5.3155   12.5467    7.1656 H         1 RES1    0.0000
     93 H47        4.4410   11.2680    7.4072 H         1 RES1    0.0000
     94 C40       -2.7414   14.4193    2.6557 C.3       1 RES1    0.0000
     95 H48       -1.9422   14.9069    2.9114 H         1 RES1    0.0000
     96 H49       -3.2087   14.9459    1.9891 H         1 RES1    0.0000
@<TRIPOS>BOND
     1    1    2 1
     2    3    4 1
     3    5    3 1
     4    6    7 1
     5    8    9 1
     6   10   16 2
     7   11   17 1
     8   12    5 2
     9   13   12 1
    10   14    1 1
    11   15    8 1
    12   17    5 1
    13   18   10 1
    14   19   12 1
    15   20   19 1
    16   21   10 2
    17   22    8 1
    18   23    3 1
    19   24    1 1
    20   25    6 1
    21   26   11 ar
    22   27   26 1
    23   28   24 1
    24   29   18 ar
    25   30   29 1
    26   31    6 1
    27   32   22 2
    28   33   32 1
    29   34   15 2
    30   35   34 1
    31   36   15 1
    32   37   31 2
    33   38   37 1
    34   39   17 1
    35   40   39 1
    36   41   39 1
    37   42   39 1
    38   43   11 ar
    39   44   43 1
    40   45   24 2
    41   46   45 1
    42   47   14 2
    43   48   47 1
    44   49   22 1
    45   50   25 2
    46   51   50 1
    47   52   18 ar
    48   53   52 1
    49   54   28 1
    50   55   54 1
    51   56   54 1
    52   57   28 1
    53   58   57 1
    54   59   57 1
    55   60   49 1
    56   61   60 1
    57   62   60 1
    58   63   36 1
    59   64   63 1
    60   65   63 1
    61   66   49 1
    62   67   66 1
    63   68   66 1
    64   69   36 1
    65   70   69 1
    66   71   69 1
    67   72   73 1
    68   74   72 1
    69   75   54 1
    70   76   75 1
    71   77   75 1
    72   78   75 1
    73   79   57 1
    74   80   79 1
    75   81   79 1
    76   82   79 1
    77   83   69 1
    78   84   83 1
    79   85   83 1
    80   86   83 1
    81   87   66 1
    82   88   87 1
    83   89   87 1
    84   90   63 1
    85   91   90 1
    86   92   90 1
    87   93   90 1
    88   94   60 1
    89   95   94 1
    90   96   94 1
    91   14   17 1
    92   19   23 2
    93   23   36 1
    94   25   28 1
    95   26   29 ar
    96   31   49 1
    97   32   34 1
    98   37   50 1
    99   43   52 ar
   100   45   47 1
   101   72   87 1
   102   72   94 1
@<TRIPOS>SUBSTRUCTURE
     1 RES1 1

@<TRIPOS>CRYSIN
  10.5404   11.2892   16.3282  95.5890 102.6820 107.1870   2 1

