# MOL2 file generated by ConQuest
# Please check atom types

@<TRIPOS>MOLECULE
DUDNOH
    28    29     1
SMALL
NO_CHARGES
****
Generated from CSD

@<TRIPOS>ATOM
      1 O1         4.4407    8.1187   -3.3383 O.3       1 RES1    0.0000
      2 O2         3.6763    9.3422   -1.6281 O.2       1 RES1    0.0000
      3 O3         5.1786    4.1192    6.2689 O.2       1 RES1    0.0000
      4 O4         7.0483    3.2100    5.7553 O.2       1 RES1    0.0000
      5 N1         6.0214    6.6380   -1.5707 N.2       1 RES1    0.0000
      6 N2         6.4194    5.9387   -0.5499 N.2       1 RES1    0.0000
      7 N3         5.6300    6.2878    0.5127 N.pl3     1 RES1    0.0000
      8 N4         4.9297    6.0298    2.6954 N.ar      1 RES1    0.0000
      9 N5         6.0825    3.9006    5.4885 N.pl3     1 RES1    0.0000
     10 C1         2.4366    8.7958   -4.5351 C.3       1 RES1    0.0000
     11 H1         2.3224    7.8942   -4.8439 H         1 RES1    0.0000
     12 H2         2.1049    9.4055   -5.1989 H         1 RES1    0.0000
     13 H3         1.9496    8.9174   -3.7175 H         1 RES1    0.0000
     14 C2         3.8676    9.0573   -4.2993 C.3       1 RES1    0.0000
     15 H4         4.3483    8.9880   -5.1387 H         1 RES1    0.0000
     16 H5         3.9766    9.9617   -3.9674 H         1 RES1    0.0000
     17 C3         4.2930    8.3993   -2.0529 C.2       1 RES1    0.0000
     18 C4         4.9848    7.4422   -1.1738 C.2       1 RES1    0.0000
     19 C5         4.7342    7.2251    0.1448 C.2       1 RES1    0.0000
     20 H6         4.0885    7.6329    0.6753 H         1 RES1    0.0000
     21 C6         5.8230    5.6823    1.7787 C.ar      1 RES1    0.0000
     22 C7         6.8620    4.7898    1.9837 C.ar      1 RES1    0.0000
     23 H7         7.4729    4.6013    1.3084 H         1 RES1    0.0000
     24 C8         6.9619    4.1919    3.2139 C.ar      1 RES1    0.0000
     25 H8         7.6367    3.5794    3.3959 H         1 RES1    0.0000
     26 C9         6.0343    4.5282    4.1660 C.ar      1 RES1    0.0000
     27 C10        5.0484    5.4450    3.8918 C.ar      1 RES1    0.0000
     28 H9         4.4420    5.6660    4.5607 H         1 RES1    0.0000
@<TRIPOS>BOND
     1    1   14 1
     2    2   17 2
     3    3    9 2
     4    4    9 2
     5    5    6 2
     6    6    7 1
     7    7   19 1
     8    8   21 ar
     9    9   26 1
    10   10   11 1
    11   12   10 1
    12   13   10 1
    13   14   10 1
    14   15   14 1
    15   16   14 1
    16   17    1 1
    17   18    5 1
    18   19   18 2
    19   20   19 1
    20   21    7 1
    21   22   21 ar
    22   23   22 1
    23   24   22 ar
    24   25   24 1
    25   26   24 ar
    26   27    8 ar
    27   28   27 1
    28   17   18 1
    29   26   27 ar
@<TRIPOS>SUBSTRUCTURE
     1 RES1 1

@<TRIPOS>CRYSIN
   5.0894    8.9834   13.0890  83.0410  80.2560  87.2960   2 1

