# MOL2 file generated by ConQuest
# Please check atom types

@<TRIPOS>MOLECULE
DUDZIL02
    18    19     1
SMALL
NO_CHARGES
****
Generated from CSD

@<TRIPOS>ATOM
      1 O1         1.4755   -0.6038   13.0413 O.2       1 RES1    0.0000
      2 O2        -3.3522   -4.7772   13.7757 O.2       1 RES1    0.0000
      3 O3        -2.4265   -4.5559   11.8299 O.2       1 RES1    0.0000
      4 N1         0.0587    0.3892   14.7637 N.pl3     1 RES1    0.0000
      5 N2        -2.5833   -4.1922   12.9984 N.pl3     1 RES1    0.0000
      6 C1        -0.3130   -1.2454   13.0110 C.ar      1 RES1    0.0000
      7 C2        -0.5265   -0.7361   14.3271 C.ar      1 RES1    0.0000
      8 C3        -1.3802   -1.4601   15.2028 C.ar      1 RES1    0.0000
      9 C4        -2.0374   -2.5821   14.7889 C.ar      1 RES1    0.0000
     10 C5        -1.8556   -3.0380   13.4741 C.ar      1 RES1    0.0000
     11 C6        -0.9937   -2.3919   12.6072 C.ar      1 RES1    0.0000
     12 C7         0.6205   -0.5749   12.0734 C.2       1 RES1    0.0000
     13 C8         1.2312   -1.3856   10.9668 C.ar      1 RES1    0.0000
     14 C9         1.8278   -2.6165   11.2292 C.ar      1 RES1    0.0000
     15 C10        2.5202   -3.2837   10.2261 C.ar      1 RES1    0.0000
     16 C11        2.5960   -2.7400    8.9478 C.ar      1 RES1    0.0000
     17 C12        1.9728   -1.5201    8.6765 C.ar      1 RES1    0.0000
     18 C13        1.3053   -0.8407    9.6835 C.ar      1 RES1    0.0000
@<TRIPOS>BOND
     1    1   12 2
     2    2    5 2
     3    3    5 2
     4    4    7 1
     5    5   10 1
     6    6    7 ar
     7    7    8 ar
     8    8    9 ar
     9    9   10 ar
    10   10   11 ar
    11   11    6 ar
    12   12    6 1
    13   13   12 1
    14   14   13 ar
    15   15   14 ar
    16   16   15 ar
    17   17   16 ar
    18   18   13 ar
    19   17   18 ar
@<TRIPOS>SUBSTRUCTURE
     1 RES1 1

@<TRIPOS>CRYSIN
   7.7010   11.1200   12.7066  90.0000  96.7490  90.0000  14 1

