# MOL2 file generated by ConQuest
# Please check atom types

@<TRIPOS>MOLECULE
DUDZIL04
    28    29     1
SMALL
NO_CHARGES
****
Generated from CSD

@<TRIPOS>ATOM
      1 O1         5.7497   -0.6016    5.9005 O.2       1 RES1    0.0000
      2 O2         2.3102    4.4901    5.5381 O.2       1 RES1    0.0000
      3 N1         4.8949   -0.3930    8.4703 N.3       1 RES1    0.0000
      4 N2         2.1812    4.1359    6.7057 N.pl3     1 RES1    0.0000
      5 O3         1.4224    4.7189    7.4851 O.2       1 RES1    0.0000
      6 C1         2.9301    3.0007    7.1784 C.ar      1 RES1    0.0000
      7 C2         5.4306    0.5740    5.7818 C.2       1 RES1    0.0000
      8 C3         4.4995    1.2355    6.7194 C.ar      1 RES1    0.0000
      9 C4         6.0291    1.3838    4.6707 C.ar      1 RES1    0.0000
     10 C5         3.7984    2.3641    6.3198 C.ar      1 RES1    0.0000
     11 C6         4.2916    0.7242    8.0355 C.ar      1 RES1    0.0000
     12 C7         6.1032    0.8433    3.3947 C.ar      1 RES1    0.0000
     13 C8         3.4371    1.4381    8.8992 C.ar      1 RES1    0.0000
     14 C9         6.7567    1.5235    2.3881 C.ar      1 RES1    0.0000
     15 C10        2.7621    2.5432    8.4889 C.ar      1 RES1    0.0000
     16 C11        7.3019    3.2729    3.9206 C.ar      1 RES1    0.0000
     17 C12        6.6176    2.6131    4.9248 C.ar      1 RES1    0.0000
     18 C13        7.3718    2.7311    2.6524 C.ar      1 RES1    0.0000
     19 H1         3.8816    2.6950    5.4629 H         1 RES1    0.0000
     20 H2         2.1633    3.0182    9.0520 H         1 RES1    0.0000
     21 H3         7.7306    4.0971    4.1551 H         1 RES1    0.0000
     22 H4         6.5728    3.0126    5.8237 H         1 RES1    0.0000
     23 H5         6.7896    1.1346    1.4964 H         1 RES1    0.0000
     24 H6         5.4269   -0.8337    7.9329 H         1 RES1    0.0000
     25 H7         4.8662   -0.5506    9.2938 H         1 RES1    0.0000
     26 H8         5.6900   -0.0167    3.2258 H         1 RES1    0.0000
     27 H9         7.8468    3.1787    1.9066 H         1 RES1    0.0000
     28 H10        3.3382    1.1067    9.7876 H         1 RES1    0.0000
@<TRIPOS>BOND
     1    1    7 2
     2    2    4 2
     3    3   11 1
     4    4    5 2
     5    6    4 1
     6    7    8 1
     7    8   10 ar
     8    9    7 1
     9   10    6 ar
    10   11    8 ar
    11   12    9 ar
    12   13   11 ar
    13   14   12 ar
    14   15    6 ar
    15   16   17 ar
    16   17    9 ar
    17   18   14 ar
    18   19   10 1
    19   20   15 1
    20   21   16 1
    21   22   17 1
    22   23   14 1
    23   24    3 1
    24   25    3 1
    25   26   12 1
    26   27   18 1
    27   28   13 1
    28   13   15 ar
    29   16   18 ar
@<TRIPOS>SUBSTRUCTURE
     1 RES1 1

@<TRIPOS>CRYSIN
   7.8765   11.1455   12.7301  90.0000  96.0080  90.0000  14 1

