# MOL2 file generated by ConQuest
# Please check atom types

@<TRIPOS>MOLECULE
DUDZIL03
    28    29     1
SMALL
NO_CHARGES
****
Generated from CSD

@<TRIPOS>ATOM
      1 O1        -1.4202    9.2157    5.0612 O.2       1 RES1    0.0000
      2 O2         1.8194    3.2659    6.9660 O.2       1 RES1    0.0000
      3 O3         2.7394    5.1665    7.2760 O.2       1 RES1    0.0000
      4 N1         1.8112    4.4870    6.8594 N.pl3     1 RES1    0.0000
      5 N2        -2.5470    6.9005    4.4366 N.pl3     1 RES1    0.0000
      6 H1        -3.1893    6.3974    4.1662 H         1 RES1    0.0000
      7 H2        -2.5869    7.7502    4.3155 H         1 RES1    0.0000
      8 C1        -0.3974    7.1413    5.5044 C.ar      1 RES1    0.0000
      9 C2         0.6707    6.4875    6.1069 C.ar      1 RES1    0.0000
     10 H3         1.3883    6.9860    6.4253 H         1 RES1    0.0000
     11 C3         0.6866    5.1237    6.2432 C.ar      1 RES1    0.0000
     12 C4        -0.3865    4.3547    5.8007 C.ar      1 RES1    0.0000
     13 H4        -0.3719    3.4293    5.8974 H         1 RES1    0.0000
     14 C5        -1.4915    6.3646    5.0414 C.ar      1 RES1    0.0000
     15 C6        -0.4151    8.6198    5.4146 C.2       1 RES1    0.0000
     16 C7         0.7688    9.4203    5.8022 C.ar      1 RES1    0.0000
     17 C8        -1.4485    4.9624    5.2287 C.ar      1 RES1    0.0000
     18 H5        -2.1703    4.4463    4.9507 H         1 RES1    0.0000
     19 C9         0.5712   10.5108    6.6401 C.ar      1 RES1    0.0000
     20 H6        -0.2816   10.6970    6.9599 H         1 RES1    0.0000
     21 C10        2.8665   11.0913    6.4854 C.ar      1 RES1    0.0000
     22 H7         3.5684   11.6581    6.7101 H         1 RES1    0.0000
     23 C11        3.0842   10.0336    5.6400 C.ar      1 RES1    0.0000
     24 H8         3.9325    9.8827    5.2889 H         1 RES1    0.0000
     25 C12        2.0399    9.1931    5.3140 C.ar      1 RES1    0.0000
     26 H9         2.1944    8.4642    4.7573 H         1 RES1    0.0000
     27 C13        1.6207   11.3121    6.9973 C.ar      1 RES1    0.0000
     28 H10        1.4837   12.0132    7.5936 H         1 RES1    0.0000
@<TRIPOS>BOND
     1    1   15 2
     2    2    4 2
     3    3    4 2
     4    4   11 1
     5    5    6 1
     6    7    5 1
     7    8    9 ar
     8    9   10 1
     9   11    9 ar
    10   12   11 ar
    11   13   12 1
    12   14    5 1
    13   15    8 1
    14   16   15 1
    15   17   12 ar
    16   18   17 1
    17   19   16 ar
    18   20   19 1
    19   21   22 1
    20   23   21 ar
    21   24   23 1
    22   25   16 ar
    23   26   25 1
    24   27   19 ar
    25   28   27 1
    26    8   14 ar
    27   14   17 ar
    28   21   27 ar
    29   23   25 ar
@<TRIPOS>SUBSTRUCTURE
     1 RES1 1

@<TRIPOS>CRYSIN
   7.7236   19.2983    7.6576  90.0000  95.9400  90.0000  14 1

