# MOL2 file generated by ConQuest
# Please check atom types

@<TRIPOS>MOLECULE
DUFKIZ
    88    93     1
SMALL
NO_CHARGES
****
Generated from CSD

@<TRIPOS>ATOM
      1 N1        -1.8129   -0.4935   14.5616 N.ar      1 RES1    0.0000
      2 N2        -2.9805   -1.5883   12.7768 N.ar      1 RES1    0.0000
      3 N3        -2.2426   -2.8301   14.6630 N.ar      1 RES1    0.0000
      4 N4        -3.2972   -3.8552   12.8736 N.pl3     1 RES1    0.0000
      5 N5        -0.5761   -6.5945   20.3661 N.ar      1 RES1    0.0000
      6 N6         0.0308   -8.1142   17.1801 N.ar      1 RES1    0.0000
      7 N7        -2.7404    0.6899   12.8227 N.3       1 RES1    0.0000
      8 N8        -4.6900    1.8180    9.2354 N.3       1 RES1    0.0000
      9 O1        -1.1038   -1.7121   16.2896 O.3       1 RES1    0.0000
     10 O2        -5.3319    1.9861    8.1324 O.2       1 RES1    0.0000
     11 C1        -2.5038   -0.4939   13.3919 C.ar      1 RES1    0.0000
     12 C2        -1.7567   -1.6954   15.1103 C.ar      1 RES1    0.0000
     13 C3        -2.8182   -2.7146   13.4531 C.ar      1 RES1    0.0000
     14 C4        -4.0209   -3.7697   11.6297 C.ar      1 RES1    0.0000
     15 C5        -3.3981   -4.0999   10.4594 C.ar      1 RES1    0.0000
     16 C6        -4.1077   -4.0021    9.2674 C.ar      1 RES1    0.0000
     17 C7        -5.3964   -3.5995    9.2516 C.ar      1 RES1    0.0000
     18 C8        -6.0138   -3.2775   10.4095 C.ar      1 RES1    0.0000
     19 C9        -5.3268   -3.3596   11.6074 C.ar      1 RES1    0.0000
     20 C10       -3.1073   -5.1530   13.4637 C.ar      1 RES1    0.0000
     21 C11       -4.1777   -5.9963   13.6088 C.ar      1 RES1    0.0000
     22 C12       -3.9965   -7.2381   14.1988 C.ar      1 RES1    0.0000
     23 C13       -2.7663   -7.6218   14.6480 C.ar      1 RES1    0.0000
     24 C14       -1.6875   -6.7897   14.4770 C.ar      1 RES1    0.0000
     25 C15       -1.8578   -5.5648   13.8815 C.ar      1 RES1    0.0000
     26 C16       -1.1768   -2.9452   17.0500 C.3       1 RES1    0.0000
     27 C17       -0.0595   -3.0298   17.9804 C.3       1 RES1    0.0000
     28 C18       -0.2139   -4.2769   18.8347 C.ar      1 RES1    0.0000
     29 C19       -0.5441   -4.1994   20.1607 C.ar      1 RES1    0.0000
     30 C20       -0.6962   -5.3645   20.8729 C.ar      1 RES1    0.0000
     31 C21       -0.2735   -6.6760   19.0657 C.ar      1 RES1    0.0000
     32 C22       -0.0822   -5.5419   18.2952 C.ar      1 RES1    0.0000
     33 C23       -0.1577   -8.0424   18.5090 C.ar      1 RES1    0.0000
     34 C24       -0.2600   -9.1790   19.3034 C.ar      1 RES1    0.0000
     35 C25       -0.1701  -10.4338   18.7471 C.ar      1 RES1    0.0000
     36 C26        0.0081  -10.4954   17.3697 C.ar      1 RES1    0.0000
     37 C27        0.1092   -9.3340   16.6554 C.ar      1 RES1    0.0000
     38 C28       -0.2650  -11.6827   19.5775 C.3       1 RES1    0.0000
     39 H1         0.5925  -11.8768   19.9634 H         1 RES1    0.0000
     40 H2        -0.5401  -12.4152   19.0230 H         1 RES1    0.0000
     41 H3        -0.9086  -11.5519   20.2788 H         1 RES1    0.0000
     42 C29       -3.4835    0.8166   11.5725 C.3       1 RES1    0.0000
     43 C30       -2.6087    1.2712   10.4355 C.3       1 RES1    0.0000
     44 C31       -3.3190    1.2352    9.0934 C.3       1 RES1    0.0000
     45 C32       -5.5229    1.7889   10.4577 C.3       1 RES1    0.0000
     46 C33       -4.6376    1.7806   11.7000 C.3       1 RES1    0.0000
     47 C34       -6.3674    3.0578   10.4457 C.3       1 RES1    0.0000
     48 H4        -5.7918    3.8258   10.4224 H         1 RES1    0.0000
     49 H5        -6.9102    3.0889   11.2375 H         1 RES1    0.0000
     50 H6        -6.9343    3.0588    9.6706 H         1 RES1    0.0000
     51 C35       -6.4258    0.5620   10.4050 C.3       1 RES1    0.0000
     52 H7        -6.8671    0.5262    9.5540 H         1 RES1    0.0000
     53 H8        -7.0804    0.6165   11.1036 H         1 RES1    0.0000
     54 H9        -5.8964   -0.2304   10.5247 H         1 RES1    0.0000
     55 C36       -3.4373   -0.1875    8.5708 C.3       1 RES1    0.0000
     56 H10       -3.8976   -0.7286    9.2170 H         1 RES1    0.0000
     57 H11       -2.5612   -0.5464    8.4192 H         1 RES1    0.0000
     58 H12       -3.9298   -0.1855    7.7466 H         1 RES1    0.0000
     59 C37       -2.5614    2.0885    8.0845 C.3       1 RES1    0.0000
     60 H13       -3.0105    2.0550    7.2368 H         1 RES1    0.0000
     61 H14       -1.6677    1.7531    7.9871 H         1 RES1    0.0000
     62 H15       -2.5305    2.9978    8.3932 H         1 RES1    0.0000
     63 H16       -2.4972   -4.2283   10.5103 H         1 RES1    0.0000
     64 H17       -3.6673   -4.2315    8.5545 H         1 RES1    0.0000
     65 H18       -5.9247   -3.5705    8.3673 H         1 RES1    0.0000
     66 H19       -2.3625    1.4260   13.2509 H         1 RES1    0.0000
     67 H20       -6.9874   -2.9784   10.4253 H         1 RES1    0.0000
     68 H21       -5.7844   -3.2178   12.4329 H         1 RES1    0.0000
     69 H22       -5.0493   -5.6917   13.3142 H         1 RES1    0.0000
     70 H23       -4.7602   -7.7511   14.3612 H         1 RES1    0.0000
     71 H24       -2.6770   -8.5099   15.0784 H         1 RES1    0.0000
     72 H25       -0.7888   -7.0429   14.7659 H         1 RES1    0.0000
     73 H26       -1.1034   -5.0091   13.7477 H         1 RES1    0.0000
     74 H27       -2.0233   -3.0169   17.6707 H         1 RES1    0.0000
     75 H28       -1.2217   -3.5542   16.5186 H         1 RES1    0.0000
     76 H29       -0.1013   -2.1192   18.5492 H         1 RES1    0.0000
     77 H30        0.7925   -3.0655   17.3107 H         1 RES1    0.0000
     78 H31       -0.6833   -3.2967   20.5755 H         1 RES1    0.0000
     79 H32       -0.9281   -5.3542   21.8126 H         1 RES1    0.0000
     80 H33        0.1136   -5.7041   17.3971 H         1 RES1    0.0000
     81 H34       -0.4368   -9.0843   20.2212 H         1 RES1    0.0000
     82 H35        0.0173  -11.3940   16.9290 H         1 RES1    0.0000
     83 H36        0.2426   -9.3399   15.6660 H         1 RES1    0.0000
     84 H37       -3.8636   -0.0942   11.4262 H         1 RES1    0.0000
     85 H38       -2.1799    2.1526   10.6298 H         1 RES1    0.0000
     86 H39       -1.8282    0.6836   10.4008 H         1 RES1    0.0000
     87 H40       -5.2278    1.4707   12.4631 H         1 RES1    0.0000
     88 H41       -4.2433    2.7130   11.8338 H         1 RES1    0.0000
@<TRIPOS>BOND
     1    1   11 ar
     2    2   11 ar
     3    3   12 ar
     4    4   13 1
     5    5   30 ar
     6    6   33 ar
     7    7   11 1
     8    8   10 1
     9    9   12 1
    10   12    1 ar
    11   13    2 ar
    12   14    4 1
    13   15   14 ar
    14   16   15 ar
    15   17   16 ar
    16   18   17 ar
    17   19   14 ar
    18   20    4 1
    19   21   20 ar
    20   22   21 ar
    21   23   22 ar
    22   24   23 ar
    23   25   20 ar
    24   26    9 1
    25   27   26 1
    26   28   27 1
    27   29   28 ar
    28   30   29 ar
    29   31    5 ar
    30   32   28 ar
    31   33   31 1
    32   34   33 ar
    33   35   34 ar
    34   36   35 ar
    35   37    6 ar
    36   38   35 1
    37   39   38 1
    38   40   38 1
    39   41   38 1
    40   42    7 1
    41   43   42 1
    42   44    8 1
    43   45    8 1
    44   46   42 1
    45   47   45 1
    46   48   47 1
    47   49   47 1
    48   50   47 1
    49   51   45 1
    50   52   51 1
    51   53   51 1
    52   54   51 1
    53   55   44 1
    54   56   55 1
    55   57   55 1
    56   58   55 1
    57   59   44 1
    58   60   59 1
    59   61   59 1
    60   62   59 1
    61   63   15 1
    62   64   16 1
    63   65   17 1
    64   66    7 1
    65   67   18 1
    66   68   19 1
    67   69   21 1
    68   70   22 1
    69   71   23 1
    70   72   24 1
    71   73   25 1
    72   74   26 1
    73   75   26 1
    74   76   27 1
    75   77   27 1
    76   78   29 1
    77   79   30 1
    78   80   32 1
    79   81   34 1
    80   82   36 1
    81   83   37 1
    82   84   42 1
    83   85   43 1
    84   86   43 1
    85   87   46 1
    86   88   46 1
    87    3   13 ar
    88   18   19 ar
    89   24   25 ar
    90   31   32 ar
    91   36   37 ar
    92   43   44 1
    93   45   46 1
@<TRIPOS>SUBSTRUCTURE
     1 RES1 1

@<TRIPOS>CRYSIN
  10.8803   11.5566   15.8190  97.7080 108.7230 110.2030   2 1

