# MOL2 file generated by ConQuest
# Please check atom types

@<TRIPOS>MOLECULE
DUGMUN01
    17    17     1
SMALL
NO_CHARGES
****
Generated from CSD

@<TRIPOS>ATOM
      1 O1         0.8941    0.1773   -1.3774 O.3       1 RES1    0.0000
      2 N1         2.1324    3.1614   -1.7750 N.1       1 RES1    0.0000
      3 N2         1.7861    0.0716   -0.3243 N.2       1 RES1    0.0000
      4 C1         2.3025    2.2632   -1.0875 C.1       1 RES1    0.0000
      5 C2         2.4939    1.1369   -0.1915 C.2       1 RES1    0.0000
      6 C3         3.4813    1.2497    0.8977 C.ar      1 RES1    0.0000
      7 C4         3.5132    0.2926    1.9123 C.ar      1 RES1    0.0000
      8 H1         2.8935   -0.4271    1.9078 H         1 RES1    0.0000
      9 C5         4.4480    0.3951    2.9237 C.ar      1 RES1    0.0000
     10 H2         4.4747   -0.2616    3.6089 H         1 RES1    0.0000
     11 C6         5.3485    1.4515    2.9461 C.ar      1 RES1    0.0000
     12 H3         5.9841    1.5220    3.6492 H         1 RES1    0.0000
     13 C7         5.3175    2.3977    1.9451 C.ar      1 RES1    0.0000
     14 H4         5.9346    3.1202    1.9586 H         1 RES1    0.0000
     15 C8         4.3900    2.3003    0.9181 C.ar      1 RES1    0.0000
     16 H5         4.3767    2.9524    0.2277 H         1 RES1    0.0000
     17 H6         0.5037   -0.6931   -1.3935 H         1 RES1    0.0000
@<TRIPOS>BOND
     1    1    3 1
     2    2    4 3
     3    3    5 2
     4    4    5 1
     5    5    6 1
     6    6    7 ar
     7    7    8 1
     8    9    7 ar
     9   10    9 1
    10   11    9 ar
    11   12   11 1
    12   13   11 ar
    13   14   13 1
    14   15    6 ar
    15   16   15 1
    16   17    1 1
    17   13   15 ar
@<TRIPOS>SUBSTRUCTURE
     1 RES1 1

@<TRIPOS>CRYSIN
   8.7220   11.0370    8.3010  90.0000 115.9500  90.0000  14 1

