# MOL2 file generated by ConQuest
# Please check atom types

@<TRIPOS>MOLECULE
DUGXAE
    54    55     1
SMALL
NO_CHARGES
****
Generated from CSD

@<TRIPOS>ATOM
      1 O1         4.7648    8.1472    8.5850 O.3       1 RES1    0.0000
      2 N1         5.7521    9.0891   11.1400 N.3       1 RES1    0.0000
      3 H1         5.4111    8.3378   10.7795 H         1 RES1    0.0000
      4 C1         6.9184    7.7349   12.7903 C.ar      1 RES1    0.0000
      5 C2         7.7638    7.6624   13.8999 C.ar      1 RES1    0.0000
      6 H2         7.9628    6.8020   14.2772 H         1 RES1    0.0000
      7 C3         6.5935    8.9758   12.2090 C.ar      1 RES1    0.0000
      8 C4         7.2006   10.0970   12.7917 C.ar      1 RES1    0.0000
      9 H3         7.0282   10.9607   12.4102 H         1 RES1    0.0000
     10 O2         6.4330   10.9550    9.8013 O.3       1 RES1    0.0000
     11 O3         6.7959    5.4266   12.7750 O.2       1 RES1    0.0000
     12 O4         3.1173    9.5592   10.4125 O.3       1 RES1    0.0000
     13 O5         5.5874    6.4825   11.3594 O.2       1 RES1    0.0000
     14 N2         6.4098    6.4777   12.2817 N.pl3     1 RES1    0.0000
     15 C5         5.6005   10.2127    7.6940 C.3       1 RES1    0.0000
     16 H4         5.3631   11.1163    7.4705 H         1 RES1    0.0000
     17 O6         5.8751    9.4753    6.4800 O.3       1 RES1    0.0000
     18 C6         3.8606    7.2191    8.1943 C.2       1 RES1    0.0000
     19 C7         8.6201   11.2874   14.4421 C.3       1 RES1    0.0000
     20 H5         8.2873   12.0379   13.9432 H         1 RES1    0.0000
     21 H6         9.5761   11.2540   14.3694 H         1 RES1    0.0000
     22 H7         8.3720   11.3811   15.3643 H         1 RES1    0.0000
     23 C8         6.2913   10.1646    5.4121 C.2       1 RES1    0.0000
     24 O7         2.7588    7.4937    7.8464 O.2       1 RES1    0.0000
     25 C9         4.4230    9.5397    8.3508 C.3       1 RES1    0.0000
     26 H8         3.6508    9.5951    7.7821 H         1 RES1    0.0000
     27 C10        8.3144    8.7648   14.4588 C.ar      1 RES1    0.0000
     28 C11        4.1466   10.2274    9.6644 C.3       1 RES1    0.0000
     29 H9         3.8373   11.1147    9.4701 H         1 RES1    0.0000
     30 O8         1.5928   10.6462    9.2032 O.2       1 RES1    0.0000
     31 C12        8.0288   10.0147   13.8887 C.ar      1 RES1    0.0000
     32 C13        5.3896   10.3528   10.5629 C.3       1 RES1    0.0000
     33 H10        5.1730   10.9477   11.2839 H         1 RES1    0.0000
     34 C14        6.7838   10.2184    8.6205 C.3       1 RES1    0.0000
     35 H11        7.5336   10.6307    8.1859 H         1 RES1    0.0000
     36 H12        7.0256    9.3189    8.8525 H         1 RES1    0.0000
     37 C15        4.4455    5.8429    8.2754 C.3       1 RES1    0.0000
     38 H13        3.7374    5.1960    8.3047 H         1 RES1    0.0000
     39 H14        4.9804    5.7688    9.0691 H         1 RES1    0.0000
     40 H15        4.9940    5.6832    7.5040 H         1 RES1    0.0000
     41 C16        9.1982    8.6703   15.6871 C.3       1 RES1    0.0000
     42 H16        9.3400    7.7471   15.9093 H         1 RES1    0.0000
     43 H17        8.7714    9.1152   16.4236 H         1 RES1    0.0000
     44 H18       10.0428    9.0899   15.5069 H         1 RES1    0.0000
     45 O9         6.5893   11.3257    5.4890 O.2       1 RES1    0.0000
     46 C17        1.8583    9.8485   10.0417 C.2       1 RES1    0.0000
     47 C18        6.3467    9.3360    4.1936 C.3       1 RES1    0.0000
     48 H19        6.2087    9.8909    3.4222 H         1 RES1    0.0000
     49 H20        5.6612    8.6646    4.2313 H         1 RES1    0.0000
     50 H21        7.2065    8.9123    4.1335 H         1 RES1    0.0000
     51 C19        0.8730    9.0353   10.8046 C.3       1 RES1    0.0000
     52 H22       -0.0018    9.1559   10.4287 H         1 RES1    0.0000
     53 H23        0.8691    9.3164   11.7227 H         1 RES1    0.0000
     54 H24        1.1169    8.1081   10.7557 H         1 RES1    0.0000
@<TRIPOS>BOND
     1    1   18 1
     2    2    3 1
     3    4    5 ar
     4    5    6 1
     5    7    2 1
     6    8    7 ar
     7    9    8 1
     8   10   32 1
     9   11   14 2
    10   12   28 1
    11   13   14 2
    12   14    4 1
    13   15   16 1
    14   17   15 1
    15   18   24 2
    16   19   20 1
    17   21   19 1
    18   22   19 1
    19   23   17 1
    20   25    1 1
    21   26   25 1
    22   27    5 ar
    23   28   25 1
    24   29   28 1
    25   30   46 2
    26   31    8 ar
    27   32    2 1
    28   33   32 1
    29   34   10 1
    30   35   34 1
    31   36   34 1
    32   37   18 1
    33   38   37 1
    34   39   37 1
    35   40   37 1
    36   41   27 1
    37   42   41 1
    38   43   41 1
    39   44   41 1
    40   45   23 2
    41   46   12 1
    42   47   23 1
    43   48   47 1
    44   49   47 1
    45   50   47 1
    46   51   46 1
    47   52   51 1
    48   53   51 1
    49   54   51 1
    50    4    7 ar
    51   15   25 1
    52   15   34 1
    53   19   31 1
    54   27   31 ar
    55   28   32 1
@<TRIPOS>SUBSTRUCTURE
     1 RES1 1

@<TRIPOS>CRYSIN
   9.1410    8.1480   14.3650  90.0000 103.4000  90.0000   4 1

