# MOL2 file generated by ConQuest
# Please check atom types

@<TRIPOS>MOLECULE
DUHPIF
    43    45     1
SMALL
NO_CHARGES
****
Generated from CSD

@<TRIPOS>ATOM
      1 C1        -2.4767    0.1064   12.5032 C.2       1 RES1    0.0000
      2 C2        -3.6107    0.4700   11.6486 C.2       1 RES1    0.0000
      3 C3        -4.0503    1.7293   11.6205 C.2       1 RES1    0.0000
      4 C4        -3.4784    2.9097   12.3365 C.3       1 RES1    0.0000
      5 C5        -2.0821    2.5725   12.9296 C.3       1 RES1    0.0000
      6 C6        -2.0450    1.1611   13.5648 C.3       1 RES1    0.0000
      7 C7        -4.2647   -0.6082   10.8361 C.ar      1 RES1    0.0000
      8 C8        -3.5145   -1.4155   10.0043 C.ar      1 RES1    0.0000
      9 C9        -4.1468   -2.3858    9.2164 C.ar      1 RES1    0.0000
     10 C10       -5.4802   -2.4978    9.2760 C.ar      1 RES1    0.0000
     11 C11       -6.2674   -1.6850   10.0376 C.ar      1 RES1    0.0000
     12 C12       -5.6186   -0.7216   10.8413 C.ar      1 RES1    0.0000
     13 C13       -4.4572    3.4309   13.3806 C.3       1 RES1    0.0000
     14 C14       -2.9091    1.0727   14.8266 C.ar      1 RES1    0.0000
     15 C15       -2.6027    1.9421   15.8724 C.ar      1 RES1    0.0000
     16 C16       -3.3512    1.9159   17.0289 C.ar      1 RES1    0.0000
     17 C17       -4.3512    0.9994   17.1587 C.ar      1 RES1    0.0000
     18 C18       -4.6476    0.1244   16.1374 C.ar      1 RES1    0.0000
     19 C19       -3.8995    0.1507   14.9564 C.ar      1 RES1    0.0000
     20 O1        -1.9407   -0.9759   12.4856 O.2       1 RES1    0.0000
     21 O2        -3.2875    3.9078   11.3257 O.3       1 RES1    0.0000
     22 O3        -0.9253    1.7569   11.0537 O.2       1 RES1    0.0000
     23 O4        -0.4508    3.7640   11.7398 O.2       1 RES1    0.0000
     24 O5        -0.4231   -0.1908   14.6160 O.2       1 RES1    0.0000
     25 O6         0.2799    1.6214   13.7351 O.2       1 RES1    0.0000
     26 N1        -1.0675    2.6941   11.8240 N.pl3     1 RES1    0.0000
     27 N2        -0.6005    0.8404   13.9983 N.pl3     1 RES1    0.0000
     28 H1        -2.5611   -1.3118    9.9657 H         1 RES1    0.0000
     29 H2        -3.6331   -2.9595    8.6443 H         1 RES1    0.0000
     30 H3        -5.9031   -3.1862    8.7566 H         1 RES1    0.0000
     31 H4        -7.2237   -1.7638   10.0253 H         1 RES1    0.0000
     32 H5        -6.1411   -0.1396   11.3994 H         1 RES1    0.0000
     33 H6        -4.5866    2.7632   14.0579 H         1 RES1    0.0000
     34 H7        -5.2969    3.6285   12.9594 H         1 RES1    0.0000
     35 H8        -4.1029    4.2285   13.7789 H         1 RES1    0.0000
     36 H9        -1.8804    2.5683   15.7900 H         1 RES1    0.0000
     37 H10       -3.1569    2.4978   17.7466 H         1 RES1    0.0000
     38 H11       -4.8628    0.9745   17.9712 H         1 RES1    0.0000
     39 H12       -5.3677   -0.5032   16.2374 H         1 RES1    0.0000
     40 H13       -4.0823   -0.4727   14.2492 H         1 RES1    0.0000
     41 H14       -2.1737    3.1986   13.5596 H         1 RES1    0.0000
     42 H15       -4.7487    1.9836   11.0537 H         1 RES1    0.0000
     43 H16       -3.2265    4.6321   11.7960 H         1 RES1    0.0000
@<TRIPOS>BOND
     1    1    2 1
     2    2    3 2
     3    3    4 1
     4    4    5 1
     5    5    6 1
     6    6    1 1
     7    7    2 1
     8    8    7 ar
     9    9    8 ar
    10   10    9 ar
    11   11   10 ar
    12   12    7 ar
    13   13    4 1
    14   14    6 1
    15   15   14 ar
    16   16   15 ar
    17   17   16 ar
    18   18   17 ar
    19   19   14 ar
    20   20    1 2
    21   21    4 1
    22   22   26 2
    23   23   26 2
    24   24   27 2
    25   25   27 2
    26   26    5 1
    27   27    6 1
    28   28    8 1
    29   29    9 1
    30   30   10 1
    31   31   11 1
    32   32   12 1
    33   33   13 1
    34   34   13 1
    35   35   13 1
    36   36   15 1
    37   37   16 1
    38   38   17 1
    39   39   18 1
    40   40   19 1
    41   41    5 1
    42   42    3 1
    43   43   21 1
    44   11   12 ar
    45   18   19 ar
@<TRIPOS>SUBSTRUCTURE
     1 RES1 1

@<TRIPOS>CRYSIN
   7.3540   13.8230   17.7790  90.0000  99.2400  90.0000  14 1

