# MOL2 file generated by ConQuest
# Please check atom types

@<TRIPOS>MOLECULE
DUHSUV
    49    48     2
SMALL
NO_CHARGES
****
Generated from CSD

@<TRIPOS>ATOM
      1 O1         5.8517    8.2728    4.7824 O.3       1 RES1    0.0000
      2 N1         7.7624    8.9951    3.6690 N.3       1 RES1    0.0000
      3 N2         7.7267    6.6582    2.1271 N.3       1 RES1    0.0000
      4 C1         6.6835    6.9154    3.0744 C.3       1 RES1    0.0000
      5 C2         8.5430    7.7216    1.8053 C.2       1 RES1    0.0000
      6 C3         8.5200    8.8671    2.5312 C.2       1 RES1    0.0000
      7 N3         3.4408    6.5999    3.1547 N.2       1 RES1    0.0000
      8 C4         7.8744    7.1214    5.3103 C.ar      1 RES1    0.0000
      9 C5         9.3828    7.6118    0.6619 C.1       1 RES1    0.0000
     10 C6         9.2606    7.0995    5.2725 C.ar      1 RES1    0.0000
     11 C7         7.0832    7.8433    4.2422 C.3       1 RES1    0.0000
     12 O2         3.7544    7.5430    4.1661 O.3       1 RES1    0.0000
     13 C8         4.3142    6.6637    2.2375 C.2       1 RES1    0.0000
     14 C9         7.2167    6.3875    6.2803 C.ar      1 RES1    0.0000
     15 C10        5.4180    7.6209    2.5364 C.3       1 RES1    0.0000
     16 C11        4.8698    8.3466    3.7464 C.3       1 RES1    0.0000
     17 C12        9.2282   10.0209    2.0726 C.1       1 RES1    0.0000
     18 N4         9.7848   10.9477    1.7065 N.1       1 RES1    0.0000
     19 C13        7.9422    5.6328    7.1904 C.ar      1 RES1    0.0000
     20 N5        10.0727    7.5074   -0.2398 N.1       1 RES1    0.0000
     21 C14        9.9743    6.3231    6.1727 C.ar      1 RES1    0.0000
     22 C15        8.0511    5.2893    1.7268 C.3       1 RES1    0.0000
     23 C16        9.3161    5.5881    7.1173 C.ar      1 RES1    0.0000
     24 C17        4.2364    5.7785    1.0483 C.3       1 RES1    0.0000
     25 H1         3.3763    5.3521    1.0221 H         1 RES1    0.0000
     26 H2         4.9239    5.1100    1.1014 H         1 RES1    0.0000
     27 H3         4.3592    6.3001    0.2525 H         1 RES1    0.0000
     28 C18        4.4029    9.7675    3.5796 C.3       1 RES1    0.0000
     29 H4         6.4129    6.1121    3.4726 H         1 RES1    0.0000
     30 H5         5.6254    8.1878    1.8289 H         1 RES1    0.0000
     31 H6         6.2196    6.4401    6.2923 H         1 RES1    0.0000
     32 H7         7.4508    5.1722    7.9144 H         1 RES1    0.0000
     33 H8         7.8663    9.6425    4.1724 H         1 RES1    0.0000
     34 H9         9.8372    5.0641    7.7365 H         1 RES1    0.0000
     35 H10        9.7116    7.6325    4.6113 H         1 RES1    0.0000
     36 H11       11.0183    6.3271    6.1324 H         1 RES1    0.0000
     37 H12        8.4576    5.3101    0.8357 H         1 RES1    0.0000
     38 H13        7.1772    4.8503    1.6341 H         1 RES1    0.0000
     39 C19        8.8817    4.5720    2.8943 C.3       1 RES1    0.0000
     40 H14        9.0957    3.6740    2.6309 H         1 RES1    0.0000
     41 H15        8.3548    4.5524    3.6975 H         1 RES1    0.0000
     42 H16        9.6933    5.0597    3.0566 H         1 RES1    0.0000
     43 C20        9.0181    4.5777    2.4241 Du        2 SUP2    0.0000
     44 H17        9.1257    3.6986    2.0538 Du        2 SUP2    0.0000
     45 H18        9.8500    5.0527    2.3676 Du        2 SUP2    0.0000
     46 H19        8.7521    4.5067    3.3440 Du        2 SUP2    0.0000
     47 H20        4.0465   10.0688    4.3528 H         1 RES1    0.0000
     48 H21        5.2074   10.3547    3.2826 H         1 RES1    0.0000
     49 H22        3.6920    9.7638    2.9231 H         1 RES1    0.0000
@<TRIPOS>BOND
     1    1   11 1
     2    2    6 1
     3    3    4 1
     4    4   11 1
     5    5    3 1
     6    6    5 2
     7    7   12 1
     8    8   10 ar
     9    9    5 1
    10   10   21 ar
    11   11    2 1
    12   12   16 1
    13   13    7 2
    14   14    8 ar
    15   15    4 1
    16   16    1 1
    17   17    6 1
    18   18   17 3
    19   19   14 ar
    20   20    9 3
    21   21   23 ar
    22   22    3 1
    23   23   19 ar
    24   24   13 1
    25   25   24 1
    26   26   24 1
    27   27   24 1
    28   28   16 1
    29   29    4 1
    30   30   15 1
    31   31   14 1
    32   32   19 1
    33   33    2 1
    34   34   23 1
    35   35   10 1
    36   36   21 1
    37   37   22 1
    38   38   22 1
    39   39   22 1
    40   40   39 1
    41   41   39 1
    42   42   39 1
    43   47   28 1
    44   48   28 1
    45   49   28 1
    46    8   11 1
    47   13   15 1
    48   15   16 1
@<TRIPOS>SUBSTRUCTURE
     1 RES1 1
     2 SUP2 43

@<TRIPOS>CRYSIN
   8.5904    9.6357   12.0390  87.8460  87.4590  66.4710   2 1

