# MOL2 file generated by ConQuest
# Please check atom types

@<TRIPOS>MOLECULE
DUHYIP
    15    15     1
SMALL
USER_CHARGES
****
Generated from CSD

@<TRIPOS>ATOM
      1 O1         2.1169    7.8712    5.6935 O.2       1 RES1   -1.0000
      2 O2         6.3902    7.2621    8.8691 O.2       1 RES1   -1.0000
      3 N1         3.1595    7.7492    6.4578 N.pl3     1 RES1    1.0000
      4 N2         5.3542    7.4306    8.1003 N.pl3     1 RES1    1.0000
      5 C1         3.0154    7.6483    7.8147 C.ar      1 RES1    0.0000
      6 H1         2.1654    7.6900    8.1899 H         1 RES1    0.0000
      7 C2         4.1020    7.4870    8.6253 C.ar      1 RES1    0.0000
      8 H2         3.9843    7.4157    9.5452 H         1 RES1    0.0000
      9 C3         5.5021    7.5478    6.7574 C.ar      1 RES1    0.0000
     10 H3         6.3569    7.5210    6.3921 H         1 RES1    0.0000
     11 C4         4.4186    7.7058    5.9190 C.ar      1 RES1    0.0000
     12 C5         4.5445    7.8344    4.4488 C.3       1 RES1    0.0000
     13 H4         4.1179    8.6453    4.1612 H         1 RES1    0.0000
     14 H5         4.1237    7.0826    4.0246 H         1 RES1    0.0000
     15 H6         5.4737    7.8590    4.2077 H         1 RES1    0.0000
@<TRIPOS>BOND
     1    1    3 1
     2    2    4 1
     3    3    5 ar
     4    4    7 ar
     5    5    6 1
     6    7    5 ar
     7    8    7 1
     8    9    4 ar
     9   10    9 1
    10   11    3 ar
    11   12   11 1
    12   13   12 1
    13   14   12 1
    14   15   12 1
    15    9   11 ar
@<TRIPOS>SUBSTRUCTURE
     1 RES1 1

@<TRIPOS>CRYSIN
   6.3953   12.2472   13.6613  90.0000  90.0000  90.0000  61 1

