# MOL2 file generated by ConQuest
# Please check atom types

@<TRIPOS>MOLECULE
DUJRIK
    81    85     1
SMALL
NO_CHARGES
****
Generated from CSD

@<TRIPOS>ATOM
      1 C1         3.5881   20.0181    2.6016 C.3       1 RES1    0.0000
      2 H1         4.2661   20.7120    2.6258 H         1 RES1    0.0000
      3 H2         3.3133   19.9106    1.6777 H         1 RES1    0.0000
      4 C2         2.3974   20.4791    3.4081 C.3       1 RES1    0.0000
      5 H3         1.6806   19.8292    3.3234 H         1 RES1    0.0000
      6 H4         2.0784   21.3237    3.0558 H         1 RES1    0.0000
      7 C3         2.7523   20.6464    4.8702 C.3       1 RES1    0.0000
      8 H5         1.9396   20.8567    5.3748 H         1 RES1    0.0000
      9 C4         3.3520   19.3655    5.4097 C.3       1 RES1    0.0000
     10 H6         2.6667   18.6782    5.4211 H         1 RES1    0.0000
     11 H7         3.6365   19.5128    6.3258 H         1 RES1    0.0000
     12 C5         4.5403   18.8638    4.5983 C.3       1 RES1    0.0000
     13 H8         5.2474   19.5369    4.6730 H         1 RES1    0.0000
     14 C6         5.0943   17.5552    5.1933 C.3       1 RES1    0.0000
     15 H9         5.9623   17.3705    4.8011 H         1 RES1    0.0000
     16 H10        5.2183   17.6688    6.1486 H         1 RES1    0.0000
     17 C7         4.1803   16.3681    4.9499 C.3       1 RES1    0.0000
     18 H11        3.3489   16.5027    5.4304 H         1 RES1    0.0000
     19 H12        4.6002   15.5657    5.2980 H         1 RES1    0.0000
     20 C8         3.8766   16.1722    3.4693 C.3       1 RES1    0.0000
     21 H13        4.7181   15.9785    3.0045 H         1 RES1    0.0000
     22 C9         3.2777   17.4748    2.8764 C.3       1 RES1    0.0000
     23 H14        2.4632   17.6598    3.3882 H         1 RES1    0.0000
     24 C10        4.2161   18.7008    3.0835 C.3       1 RES1    0.0000
     25 C11        2.8356   17.2771    1.4186 C.3       1 RES1    0.0000
     26 H15        2.3453   18.0635    1.1339 H         1 RES1    0.0000
     27 H16        3.6261   17.2078    0.8613 H         1 RES1    0.0000
     28 C12        1.9590   16.0426    1.1837 C.3       1 RES1    0.0000
     29 H17        1.8003   15.9393    0.2328 H         1 RES1    0.0000
     30 H18        1.1012   16.1743    1.6172 H         1 RES1    0.0000
     31 C13        2.6097   14.7618    1.7283 C.3       1 RES1    0.0000
     32 C14        2.9151   15.0221    3.2152 C.3       1 RES1    0.0000
     33 H19        2.0649   15.2794    3.6288 H         1 RES1    0.0000
     34 C15        3.2502   13.6201    3.7576 C.3       1 RES1    0.0000
     35 H20        4.1498   13.3571    3.5099 H         1 RES1    0.0000
     36 H21        3.1656   13.5891    4.7228 H         1 RES1    0.0000
     37 C16        2.2114   12.7267    3.0871 C.3       1 RES1    0.0000
     38 H22        1.4601   12.6430    3.7106 H         1 RES1    0.0000
     39 C17        1.6833   13.5138    1.8357 C.3       1 RES1    0.0000
     40 H23        0.7967   13.8512    2.0806 H         1 RES1    0.0000
     41 C18        3.8757   14.4249    0.9275 C.3       1 RES1    0.0000
     42 H24        4.5115   15.1378    1.0193 H         1 RES1    0.0000
     43 H25        3.6485   14.3152    0.0007 H         1 RES1    0.0000
     44 H26        4.2577   13.6102    1.2613 H         1 RES1    0.0000
     45 C19        5.5225   18.5393    2.2970 C.3       1 RES1    0.0000
     46 H27        5.3241   18.4492    1.3617 H         1 RES1    0.0000
     47 H28        5.9849   17.7562    2.6016 H         1 RES1    0.0000
     48 H29        6.0768   19.3110    2.4344 H         1 RES1    0.0000
     49 C20        1.4758   12.6300    0.5929 C.3       1 RES1    0.0000
     50 H30        2.3440   12.2543    0.3402 H         1 RES1    0.0000
     51 C21        0.9130   13.3999   -0.6271 C.3       1 RES1    0.0000
     52 H31        0.6935   12.7786   -1.3247 H         1 RES1    0.0000
     53 H32        1.5730   14.0200   -0.9474 H         1 RES1    0.0000
     54 H33        0.1236   13.8783   -0.3666 H         1 RES1    0.0000
     55 C22        0.5471   11.4971    0.8869 C.2       1 RES1    0.0000
     56 O1        -0.6102   11.8385    1.5090 O.3       1 RES1    0.0000
     57 N1        -1.3953   10.6715    1.6528 N.2       1 RES1    0.0000
     58 C23       -0.6892    9.7007    1.1424 C.2       1 RES1    0.0000
     59 C24        0.5689   10.1713    0.6271 C.2       1 RES1    0.0000
     60 C25       -1.2034    8.3029    1.1802 C.3       1 RES1    0.0000
     61 H34       -2.0303    8.2800    1.6656 H         1 RES1    0.0000
     62 H35       -0.5604    7.7376    1.6144 H         1 RES1    0.0000
     63 H36       -1.3493    7.9907    0.2840 H         1 RES1    0.0000
     64 C26        1.6774    9.4033   -0.0235 C.3       1 RES1    0.0000
     65 H37        1.6023    8.4728    0.2377 H         1 RES1    0.0000
     66 H38        2.5230    9.7353    0.3175 H         1 RES1    0.0000
     67 C27        1.7058    9.4783   -1.5468 C.3       1 RES1    0.0000
     68 H39        1.6831   10.4223   -1.8115 H         1 RES1    0.0000
     69 C28        0.5098    8.7772   -2.1610 C.3       1 RES1    0.0000
     70 H40        0.5755    8.8133   -3.1184 H         1 RES1    0.0000
     71 H41       -0.2971    9.2171   -1.8799 H         1 RES1    0.0000
     72 H42        0.4931    7.8612   -1.8742 H         1 RES1    0.0000
     73 C29        2.9957    8.8694   -2.0514 C.3       1 RES1    0.0000
     74 H43        3.7401    9.3617   -1.6735 H         1 RES1    0.0000
     75 H44        3.0543    7.9576   -1.7290 H         1 RES1    0.0000
     76 O2         3.1292    8.8603   -3.4622 O.3       1 RES1    0.0000
     77 H45        3.2607    9.6027   -3.7939 H         1 RES1    0.0000
     78 O3         2.6908   11.4016    2.8259 O.3       1 RES1    0.0000
     79 H46        3.4605   11.4196    2.4557 H         1 RES1    0.0000
     80 O4         3.7077   21.6838    5.0730 O.3       1 RES1    0.0000
     81 H47        3.4679   22.3873    4.5555 H         1 RES1    0.0000
@<TRIPOS>BOND
     1    1    2 1
     2    3    1 1
     3    4    1 1
     4    5    4 1
     5    6    4 1
     6    7    4 1
     7    8    7 1
     8    9    7 1
     9   10    9 1
    10   11    9 1
    11   12    9 1
    12   13   12 1
    13   14   12 1
    14   15   14 1
    15   16   14 1
    16   17   14 1
    17   18   17 1
    18   19   17 1
    19   20   17 1
    20   21   20 1
    21   22   20 1
    22   23   22 1
    23   24    1 1
    24   25   22 1
    25   26   25 1
    26   27   25 1
    27   28   25 1
    28   29   28 1
    29   30   28 1
    30   31   28 1
    31   32   20 1
    32   33   32 1
    33   34   32 1
    34   35   34 1
    35   36   34 1
    36   37   34 1
    37   38   37 1
    38   39   31 1
    39   40   39 1
    40   41   31 1
    41   42   41 1
    42   43   41 1
    43   44   41 1
    44   45   24 1
    45   46   45 1
    46   47   45 1
    47   48   45 1
    48   49   39 1
    49   50   49 1
    50   51   49 1
    51   52   51 1
    52   53   51 1
    53   54   51 1
    54   55   49 1
    55   56   55 1
    56   57   56 1
    57   58   57 2
    58   59   55 2
    59   60   58 1
    60   61   60 1
    61   62   60 1
    62   63   60 1
    63   64   59 1
    64   65   64 1
    65   66   64 1
    66   67   64 1
    67   68   67 1
    68   69   67 1
    69   70   69 1
    70   71   69 1
    71   72   69 1
    72   73   67 1
    73   74   73 1
    74   75   73 1
    75   76   73 1
    76   77   76 1
    77   78   37 1
    78   79   78 1
    79   80    7 1
    80   81   80 1
    81   12   24 1
    82   22   24 1
    83   31   32 1
    84   37   39 1
    85   58   59 1
@<TRIPOS>SUBSTRUCTURE
     1 RES1 1

@<TRIPOS>CRYSIN
   6.5540   30.1310    7.1971  90.0000  98.5000  90.0000   4 1

