# MOL2 file generated by ConQuest
# Please check atom types

@<TRIPOS>MOLECULE
DUJTOR
    57    58     1
SMALL
NO_CHARGES
****
Generated from CSD

@<TRIPOS>ATOM
      1 C1        -0.6159    7.6359   10.3883 C.2       1 RES1    0.0000
      2 C2        -0.2616    7.4201   11.6627 C.2       1 RES1    0.0000
      3 C3        -0.9336    6.1884   12.1403 C.2       1 RES1    0.0000
      4 C4        -1.7049    5.6996   11.1588 C.2       1 RES1    0.0000
      5 C5        -1.6597    6.6310    9.9649 C.3       1 RES1    0.0000
      6 C6        -0.1455    8.6726    9.4221 C.2       1 RES1    0.0000
      7 C7         0.5898    8.3903   12.3930 C.2       1 RES1    0.0000
      8 C8        -0.6887    5.5192   13.4619 C.2       1 RES1    0.0000
      9 C9        -2.6072    4.5294   11.1505 C.2       1 RES1    0.0000
     10 C10       -3.0141    7.3671    9.7414 C.2       1 RES1    0.0000
     11 C11        1.5978    9.2466    7.9394 C.3       1 RES1    0.0000
     12 C12        1.3773    9.1429   14.4587 C.3       1 RES1    0.0000
     13 C13       -1.7067    4.4570   15.2930 C.3       1 RES1    0.0000
     14 C14       -2.9877    2.3341   11.9140 C.3       1 RES1    0.0000
     15 C15       -4.6133    8.7671   10.7423 C.3       1 RES1    0.0000
     16 C16       -0.6612    4.4786    7.2911 C.ar      1 RES1    0.0000
     17 C17       -0.0543    5.3390    6.3832 C.ar      1 RES1    0.0000
     18 C18        0.3092    4.8912    5.1296 C.ar      1 RES1    0.0000
     19 C19        0.1073    3.5597    4.8228 C.ar      1 RES1    0.0000
     20 C20       -0.4333    2.6524    5.7071 C.ar      1 RES1    0.0000
     21 C21       -0.8286    3.1417    6.9316 C.ar      1 RES1    0.0000
     22 O1        -0.8148    9.6176    9.0972 O.2       1 RES1    0.0000
     23 O2         1.1012    9.3367   11.8446 O.2       1 RES1    0.0000
     24 O3         0.3960    5.1906   13.8367 O.2       1 RES1    0.0000
     25 O4        -3.6658    4.5451   10.5799 O.2       1 RES1    0.0000
     26 O5        -3.6040    7.3511    8.7030 O.2       1 RES1    0.0000
     27 O6         1.0385    8.3457    8.9320 O.3       1 RES1    0.0000
     28 O7         0.6649    8.1348   13.6924 O.3       1 RES1    0.0000
     29 O8        -1.8272    5.3022   14.1172 O.3       1 RES1    0.0000
     30 O9        -2.1178    3.5023   11.8363 O.3       1 RES1    0.0000
     31 O10       -3.3742    8.0012   10.8437 O.3       1 RES1    0.0000
     32 O11        0.4722    1.8789    3.2860 O.2       1 RES1    0.0000
     33 O12        0.7620    3.9090    2.6418 O.2       1 RES1    0.0000
     34 O13       -2.5428    2.5338    8.3476 O.2       1 RES1    0.0000
     35 O14       -0.8795    1.1631    8.0866 O.2       1 RES1    0.0000
     36 N1        -1.0509    4.8946    8.6127 N.2       1 RES1    0.0000
     37 N2        -1.2878    6.1117    8.6377 N.2       1 RES1    0.0000
     38 N3         0.4772    3.0809    3.4845 N.pl3     1 RES1    0.0000
     39 N4        -1.4665    2.2125    7.8659 N.pl3     1 RES1    0.0000
     40 H1         1.0394    9.2433    7.1912 H         1 RES1    0.0000
     41 H2         2.4727    8.8625    7.7048 H         1 RES1    0.0000
     42 H3         1.6418   10.1119    8.3295 H         1 RES1    0.0000
     43 H4         0.9725   10.0589   14.3129 H         1 RES1    0.0000
     44 H5         2.2524    9.1459   14.1880 H         1 RES1    0.0000
     45 H6         1.2649    8.8912   15.3958 H         1 RES1    0.0000
     46 H7        -2.5995    4.3128   15.5901 H         1 RES1    0.0000
     47 H8        -1.3034    3.6578   15.0348 H         1 RES1    0.0000
     48 H9        -1.2025    4.8953   15.9788 H         1 RES1    0.0000
     49 H10       -3.1254    1.9749   11.0089 H         1 RES1    0.0000
     50 H11       -3.8301    2.6157   12.3277 H         1 RES1    0.0000
     51 H12       -2.5047    1.7020   12.4526 H         1 RES1    0.0000
     52 H13       -5.3408    8.1361   10.4813 H         1 RES1    0.0000
     53 H14       -4.7621    9.1514   11.6336 H         1 RES1    0.0000
     54 H15       -4.4736    9.5162   10.0510 H         1 RES1    0.0000
     55 H16        0.1039    6.2431    6.6497 H         1 RES1    0.0000
     56 H17        0.6880    5.4710    4.4841 H         1 RES1    0.0000
     57 H18       -0.5551    1.7354    5.4836 H         1 RES1    0.0000
@<TRIPOS>BOND
     1    1    2 2
     2    2    3 1
     3    3    4 2
     4    4    5 1
     5    5    1 1
     6    6    1 1
     7    7    2 1
     8    8    3 1
     9    9    4 1
    10   10    5 1
    11   11   27 1
    12   12   28 1
    13   13   29 1
    14   14   30 1
    15   15   31 1
    16   16   17 ar
    17   17   18 ar
    18   18   19 ar
    19   19   20 ar
    20   20   21 ar
    21   21   16 ar
    22   22    6 2
    23   23    7 2
    24   24    8 2
    25   25    9 2
    26   26   10 2
    27   27    6 1
    28   28    7 1
    29   29    8 1
    30   30    9 1
    31   31   10 1
    32   32   38 2
    33   33   38 2
    34   34   39 2
    35   35   39 2
    36   36   16 1
    37   37    5 1
    38   38   19 1
    39   39   21 1
    40   40   11 1
    41   41   11 1
    42   42   11 1
    43   43   12 1
    44   44   12 1
    45   45   12 1
    46   46   13 1
    47   47   13 1
    48   48   13 1
    49   49   14 1
    50   50   14 1
    51   51   14 1
    52   52   15 1
    53   53   15 1
    54   54   15 1
    55   55   17 1
    56   56   18 1
    57   57   20 1
    58   36   37 2
@<TRIPOS>SUBSTRUCTURE
     1 RES1 1

@<TRIPOS>CRYSIN
   8.5830   10.4020   14.3750  94.9900 101.9700 107.3600   2 1

