# MOL2 file generated by ConQuest
# Please check atom types

@<TRIPOS>MOLECULE
DUKLAX
    29    30     1
SMALL
NO_CHARGES
****
Generated from CSD

@<TRIPOS>ATOM
      1 O1         1.1072    1.5052   13.3396 O.2       1 RES1    0.0000
      2 N1        -2.7259    1.7972   12.5006 N.3       1 RES1    0.0000
      3 C1        -3.6283    2.7253   12.9106 C.ar      1 RES1    0.0000
      4 O2        -4.1599    2.3589   10.1450 O.2       1 RES1    0.0000
      5 N2         0.5305    1.5863   12.2754 N.pl3     1 RES1    0.0000
      6 C2        -4.3831    3.5965   12.0818 C.ar      1 RES1    0.0000
      7 N3        -0.6157   -0.4553   11.7580 N.pl3     1 RES1    0.0000
      8 N4        -4.4377    3.4479   10.6292 N.pl3     1 RES1    0.0000
      9 C3        -1.8503    1.7297   11.3203 C.3       1 RES1    0.0000
     10 H1        -1.5381    2.5943   11.0114 H         1 RES1    0.0000
     11 H2        -2.2150    1.2075   10.5880 H         1 RES1    0.0000
     12 C4        -1.7488    1.1437   13.3886 C.3       1 RES1    0.0000
     13 H3        -2.0594    0.3075   13.7692 H         1 RES1    0.0000
     14 H4        -1.3881    1.7274   14.0742 H         1 RES1    0.0000
     15 N5        -6.1890    5.7038   14.5312 N.pl3     1 RES1    0.0000
     16 C5        -5.3413    4.6675   13.9771 C.ar      1 RES1    0.0000
     17 O3         0.5208   -0.8515   11.6066 O.2       1 RES1    0.0000
     18 C6        -4.6932    3.7962   14.8202 C.ar      1 RES1    0.0000
     19 H5        -4.8259    3.8498   15.7386 H         1 RES1    0.0000
     20 C7        -0.8335    0.9724   12.1772 C.3       1 RES1    0.0000
     21 C8        -5.2013    4.5693   12.6067 C.ar      1 RES1    0.0000
     22 H6        -5.6561    5.1544   12.0449 H         1 RES1    0.0000
     23 O4         0.9639    2.1153   11.2777 O.2       1 RES1    0.0000
     24 O5        -4.8167    4.3980    9.9590 O.2       1 RES1    0.0000
     25 O6        -6.6959    6.5146   13.7779 O.2       1 RES1    0.0000
     26 O7        -1.6114   -1.1070   11.6071 O.2       1 RES1    0.0000
     27 C9        -3.8525    2.8489   14.2990 C.ar      1 RES1    0.0000
     28 H7        -3.4147    2.2687   14.8792 H         1 RES1    0.0000
     29 O8        -6.3496    5.7319   15.7511 O.2       1 RES1    0.0000
@<TRIPOS>BOND
     1    1    5 2
     2    2    3 1
     3    3    6 ar
     4    4    8 2
     5    5   20 1
     6    6    8 1
     7    7   17 2
     8    8   24 2
     9    9    2 1
    10   10    9 1
    11   11    9 1
    12   12    2 1
    13   13   12 1
    14   14   12 1
    15   15   16 1
    16   16   18 ar
    17   18   19 1
    18   20    7 1
    19   21    6 ar
    20   22   21 1
    21   23    5 2
    22   25   15 2
    23   26    7 2
    24   27    3 ar
    25   28   27 1
    26   29   15 2
    27    9   20 1
    28   12   20 1
    29   16   21 ar
    30   18   27 ar
@<TRIPOS>SUBSTRUCTURE
     1 RES1 1

@<TRIPOS>CRYSIN
   8.1130   10.6760   14.3980  90.0000 104.6810  90.0000 231 1

