# MOL2 file generated by ConQuest
# Please check atom types

@<TRIPOS>MOLECULE
DUMKUR
    62    66     1
SMALL
NO_CHARGES
****
Generated from CSD

@<TRIPOS>ATOM
      1 C1         1.9971   11.8260    7.6701 C.2       1 RES1    0.0000
      2 C2         2.3485   12.9708    6.7546 C.3       1 RES1    0.0000
      3 C3         3.8285   13.3444    6.8584 C.3       1 RES1    0.0000
      4 C4         4.2391   13.6102    8.3051 C.3       1 RES1    0.0000
      5 C5         3.9366   12.3840    9.1630 C.3       1 RES1    0.0000
      6 C6         2.4822   11.9362    9.0819 C.3       1 RES1    0.0000
      7 C7         5.6844   14.0365    8.4407 C.ar      1 RES1    0.0000
      8 C8         6.7182   13.1887    8.0924 C.ar      1 RES1    0.0000
      9 C9         8.0390   13.5695    8.2465 C.ar      1 RES1    0.0000
     10 C10        8.3331   14.8101    8.7397 C.ar      1 RES1    0.0000
     11 C11        7.3292   15.6603    9.0932 C.ar      1 RES1    0.0000
     12 C12        6.0025   15.2843    8.9370 C.ar      1 RES1    0.0000
     13 N1         1.3044   10.8824    7.1605 N.2       1 RES1    0.0000
     14 O1         1.0255    9.8838    8.1448 O.3       1 RES1    0.0000
     15 C13        0.3110    8.7605    7.5571 C.3       1 RES1    0.0000
     16 C14        1.1158    8.1690    6.4032 C.ar      1 RES1    0.0000
     17 C15        2.4983    8.0972    6.5306 C.ar      1 RES1    0.0000
     18 C16        3.2630    7.4577    5.5884 C.ar      1 RES1    0.0000
     19 C17        2.6773    6.8638    4.4911 C.ar      1 RES1    0.0000
     20 C18        1.3039    6.9213    4.3411 C.ar      1 RES1    0.0000
     21 C19        0.5344    7.5703    5.2966 C.ar      1 RES1    0.0000
     22 C20        0.2846    7.7307    8.6996 C.ar      1 RES1    0.0000
     23 C21        0.4289    8.1067   10.0210 C.ar      1 RES1    0.0000
     24 C22        0.3325    7.1799   11.0423 C.ar      1 RES1    0.0000
     25 C23        0.0877    5.8555   10.7566 C.ar      1 RES1    0.0000
     26 C24       -0.0559    5.4676    9.4466 C.ar      1 RES1    0.0000
     27 C25        0.0381    6.3944    8.4263 C.ar      1 RES1    0.0000
     28 C26       -1.1180    9.1916    7.1985 C.ar      1 RES1    0.0000
     29 C27       -1.3906    9.8885    6.0179 C.ar      1 RES1    0.0000
     30 C28       -2.6906   10.2358    5.6922 C.ar      1 RES1    0.0000
     31 C29       -3.7367    9.9101    6.5214 C.ar      1 RES1    0.0000
     32 C30       -3.4827    9.2635    7.7133 C.ar      1 RES1    0.0000
     33 C31       -2.1850    8.9162    8.0400 C.ar      1 RES1    0.0000
     34 H1         2.1546   12.7169    5.8494 H         1 RES1    0.0000
     35 H2         1.8174   13.7348    6.9920 H         1 RES1    0.0000
     36 H3         3.9872   14.1347    6.3385 H         1 RES1    0.0000
     37 H4         4.3567   12.6211    6.5121 H         1 RES1    0.0000
     38 H5         3.7186   14.3526    8.6195 H         1 RES1    0.0000
     39 H6         4.1397   12.5948   10.0775 H         1 RES1    0.0000
     40 H7         4.4956   11.6608    8.8702 H         1 RES1    0.0000
     41 H8         1.9362   12.5756    9.5463 H         1 RES1    0.0000
     42 H9         2.4008   11.0788    9.5031 H         1 RES1    0.0000
     43 H10        6.5174   12.3218    7.7359 H         1 RES1    0.0000
     44 H11        8.7458   12.9660    8.0092 H         1 RES1    0.0000
     45 H12        9.2486   15.0831    8.8373 H         1 RES1    0.0000
     46 H13        7.5419   16.5248    9.4517 H         1 RES1    0.0000
     47 H14        5.3030   15.8973    9.1754 H         1 RES1    0.0000
     48 H15        2.9251    8.5019    7.2889 H         1 RES1    0.0000
     49 H16        4.2170    7.4242    5.6943 H         1 RES1    0.0000
     50 H17        3.2176    6.4159    3.8376 H         1 RES1    0.0000
     51 H18        0.8841    6.5117    3.5797 H         1 RES1    0.0000
     52 H19       -0.4189    7.6086    5.1887 H         1 RES1    0.0000
     53 H20        0.6002    9.0288   10.2326 H         1 RES1    0.0000
     54 H21        0.4369    7.4625   11.9547 H         1 RES1    0.0000
     55 H22        0.0191    5.2113   11.4646 H         1 RES1    0.0000
     56 H23       -0.2249    4.5455    9.2391 H         1 RES1    0.0000
     57 H24       -0.0680    6.1094    7.5160 H         1 RES1    0.0000
     58 H25       -0.6712   10.1280    5.4292 H         1 RES1    0.0000
     59 H26       -2.8644   10.7076    4.8754 H         1 RES1    0.0000
     60 H27       -4.6374   10.1328    6.2738 H         1 RES1    0.0000
     61 H28       -4.2034    9.0575    8.3133 H         1 RES1    0.0000
     62 H29       -2.0175    8.4708    8.8743 H         1 RES1    0.0000
@<TRIPOS>BOND
     1    1    2 1
     2    2    3 1
     3    3    4 1
     4    4    5 1
     5    5    6 1
     6    6    1 1
     7    7    4 1
     8    8    7 ar
     9    9    8 ar
    10   10    9 ar
    11   11   10 ar
    12   12    7 ar
    13   13    1 2
    14   14   13 1
    15   15   14 1
    16   16   15 1
    17   17   16 ar
    18   18   17 ar
    19   19   18 ar
    20   20   19 ar
    21   21   16 ar
    22   22   15 1
    23   23   22 ar
    24   24   23 ar
    25   25   24 ar
    26   26   25 ar
    27   27   22 ar
    28   28   15 1
    29   29   28 ar
    30   30   29 ar
    31   31   30 ar
    32   32   31 ar
    33   33   28 ar
    34   34    2 1
    35   35    2 1
    36   36    3 1
    37   37    3 1
    38   38    4 1
    39   39    5 1
    40   40    5 1
    41   41    6 1
    42   42    6 1
    43   43    8 1
    44   44    9 1
    45   45   10 1
    46   46   11 1
    47   47   12 1
    48   48   17 1
    49   49   18 1
    50   50   19 1
    51   51   20 1
    52   52   21 1
    53   53   23 1
    54   54   24 1
    55   55   25 1
    56   56   26 1
    57   57   27 1
    58   58   29 1
    59   59   30 1
    60   60   31 1
    61   61   32 1
    62   62   33 1
    63   11   12 ar
    64   20   21 ar
    65   26   27 ar
    66   32   33 ar
@<TRIPOS>SUBSTRUCTURE
     1 RES1 1

@<TRIPOS>CRYSIN
   9.6540   23.9490   10.9300  90.0000 109.9400  90.0000 231 1

