# MOL2 file generated by ConQuest
# Please check atom types

@<TRIPOS>MOLECULE
DUMPAC
    30    30     1
SMALL
NO_CHARGES
****
Generated from CSD

@<TRIPOS>ATOM
      1 O1         3.5413    1.3895    4.2276 O.3       1 RES1    0.0000
      2 C1         3.2487    2.2523    3.1102 C.3       1 RES1    0.0000
      3 C2         2.8279    3.3797    4.0565 C.3       1 RES1    0.0000
      4 C3         3.5258    2.5085    5.1207 C.3       1 RES1    0.0000
      5 C4         3.3398    4.7873    3.8299 C.3       1 RES1    0.0000
      6 C5         1.3084    3.3900    4.1851 C.3       1 RES1    0.0000
      7 N1         4.7622    4.8831    3.5066 N.pl3     1 RES1    0.0000
      8 C6         5.7227    5.3485    4.4848 C.3       1 RES1    0.0000
      9 N2         5.0902    5.0372    2.2206 N.pl3     1 RES1    0.0000
     10 O2         4.2438    4.7627    1.3699 O.2       1 RES1    0.0000
     11 O3         6.2301    5.4074    1.9586 O.2       1 RES1    0.0000
     12 N3         0.7840    4.3349    5.1609 N.pl3     1 RES1    0.0000
     13 C7         0.3551    5.6721    4.7904 C.3       1 RES1    0.0000
     14 N4         0.3933    3.9097    6.3655 N.pl3     1 RES1    0.0000
     15 O4        -0.1657    4.7207    7.1100 O.2       1 RES1    0.0000
     16 O5         0.6186    2.7441    6.6629 O.2       1 RES1    0.0000
     17 H1         3.9949    2.4594    2.5958 H         1 RES1    0.0000
     18 H2         2.5437    1.9287    2.5014 H         1 RES1    0.0000
     19 H3         2.9689    2.3429    6.0293 H         1 RES1    0.0000
     20 H4         4.5685    2.8412    5.3213 H         1 RES1    0.0000
     21 H5         2.8461    5.2229    3.1385 H         1 RES1    0.0000
     22 H6         3.2403    5.2747    4.6606 H         1 RES1    0.0000
     23 H7         0.9704    2.4982    4.4010 H         1 RES1    0.0000
     24 H8         0.9184    3.6373    3.3627 H         1 RES1    0.0000
     25 H9         5.8711    6.3490    4.3656 H         1 RES1    0.0000
     26 H10        5.3283    5.1776    5.3331 H         1 RES1    0.0000
     27 H11        6.4675    4.9381    4.3420 H         1 RES1    0.0000
     28 H12       -0.6078    5.7471    4.8966 H         1 RES1    0.0000
     29 H13        0.6340    5.7860    3.8818 H         1 RES1    0.0000
     30 H14        0.8104    6.2455    5.3567 H         1 RES1    0.0000
@<TRIPOS>BOND
     1    1    2 1
     2    2    3 1
     3    3    4 1
     4    4    1 1
     5    5    3 1
     6    6    3 1
     7    7    5 1
     8    8    7 1
     9    9    7 1
    10   10    9 2
    11   11    9 2
    12   12    6 1
    13   13   12 1
    14   14   12 1
    15   15   14 2
    16   16   14 2
    17   17    2 1
    18   18    2 1
    19   19    4 1
    20   20    4 1
    21   21    5 1
    22   22    5 1
    23   23    6 1
    24   24    6 1
    25   25    8 1
    26   26    8 1
    27   27    8 1
    28   28   13 1
    29   29   13 1
    30   30   13 1
@<TRIPOS>SUBSTRUCTURE
     1 RES1 1

@<TRIPOS>CRYSIN
  14.1060    6.4720   11.9630  90.0000  99.5000  90.0000  14 1

