# MOL2 file generated by ConQuest
# Please check atom types

@<TRIPOS>MOLECULE
DUMPEG
    22    22     1
SMALL
NO_CHARGES
****
Generated from CSD

@<TRIPOS>ATOM
      1 O1        -2.1994    3.3459    2.3785 O.3       1 RES1    0.0000
      2 C1        -1.7388    2.3456    3.3013 C.3       1 RES1    0.0000
      3 C2        -2.1994    1.2104    2.3785 C.3       1 RES1    0.0000
      4 C3        -1.0976    0.3667    1.7772 C.3       1 RES1    0.0000
      5 O2        -0.4491   -0.2471    2.9236 O.3       1 RES1    0.0000
      6 N1         0.4976   -1.1999    2.5849 N.pl3     1 RES1    0.0000
      7 O3         0.7033   -1.4384    1.4451 O.2       1 RES1    0.0000
      8 O4         1.0120   -1.6671    3.5591 O.2       1 RES1    0.0000
      9 H1        -2.1820    2.3635    4.1452 H         1 RES1    0.0000
     10 H2        -0.7833    2.3635    3.4354 H         1 RES1    0.0000
     11 H3        -1.4213   -0.2810    1.2672 H         1 RES1    0.0000
     12 H4        -0.4919    0.9318    1.2825 H         1 RES1    0.0000
     13 C1B       -2.6600    2.3456    1.4556 C.3       1 RES1    0.0000
     14 C3B       -3.3012    0.3667    2.9797 C.3       1 RES1    0.0000
     15 H1B       -2.2168    2.3635    0.6117 H         1 RES1    0.0000
     16 H2B       -3.6155    2.3635    1.3215 H         1 RES1    0.0000
     17 O2B       -3.9497   -0.2471    1.8333 O.3       1 RES1    0.0000
     18 H3B       -2.9775   -0.2810    3.4897 H         1 RES1    0.0000
     19 H4B       -3.9069    0.9318    3.4744 H         1 RES1    0.0000
     20 N1B       -4.8964   -1.1999    2.1720 N.pl3     1 RES1    0.0000
     21 O3B       -5.1021   -1.4384    3.3118 O.2       1 RES1    0.0000
     22 O4B       -5.4108   -1.6671    1.1978 O.2       1 RES1    0.0000
@<TRIPOS>BOND
     1    1    2 1
     2    2    3 1
     3    3    4 1
     4    4    5 1
     5    5    6 1
     6    6    7 2
     7    8    6 2
     8    9    2 1
     9   10    2 1
    10   11    4 1
    11   12    4 1
    12   13    1 1
    13   14    3 1
    14   15   13 1
    15   16   13 1
    16   17   14 1
    17   18   14 1
    18   19   14 1
    19   20   17 1
    20   21   20 2
    21   22   20 2
    22    3   13 1
@<TRIPOS>SUBSTRUCTURE
     1 RES1 1

@<TRIPOS>CRYSIN
  15.1200    6.1630   12.9580  90.0000 132.7600  90.0000  15 1

