# MOL2 file generated by ConQuest
# Please check atom types

@<TRIPOS>MOLECULE
DUNCAS
    46    51     1
SMALL
NO_CHARGES
****
Generated from CSD

@<TRIPOS>ATOM
      1 O1         0.8905   15.3278    6.1183 O.3       1 RES1    0.0000
      2 O2         2.6444   12.5455    7.2158 O.2       1 RES1    0.0000
      3 O3         3.5709   14.2129   10.1084 O.3       1 RES1    0.0000
      4 O4         4.8195   16.0310   10.5706 O.2       1 RES1    0.0000
      5 N1         4.2155   18.3588    9.0770 N.3       1 RES1    0.0000
      6 N2         1.3287   16.6750    5.8050 N.3       1 RES1    0.0000
      7 C1         3.3925   17.4210    8.5172 C.2       1 RES1    0.0000
      8 C2         1.2551   17.5175    7.0781 C.3       1 RES1    0.0000
      9 H1         0.6074   18.2689    6.9567 H         1 RES1    0.0000
     10 C3         2.7793   16.4903    5.4735 C.3       1 RES1    0.0000
     11 C4         3.4336   17.7464    6.0027 C.3       1 RES1    0.0000
     12 C5         2.6810   18.0754    7.3329 C.3       1 RES1    0.0000
     13 C6         2.8733   19.5350    7.6514 C.ar      1 RES1    0.0000
     14 C7         2.3167   20.6652    7.0921 C.ar      1 RES1    0.0000
     15 C8         2.7401   21.9149    7.5466 C.ar      1 RES1    0.0000
     16 C9         3.7372   22.0123    8.5106 C.ar      1 RES1    0.0000
     17 C10        4.3239   20.8760    9.0660 C.ar      1 RES1    0.0000
     18 C11        3.8558   19.6446    8.6337 C.ar      1 RES1    0.0000
     19 C12        0.8102   16.6263    8.2189 C.3       1 RES1    0.0000
     20 C13        1.8609   15.5128    8.3604 C.3       1 RES1    0.0000
     21 C14        3.1340   16.1449    8.8950 C.2       1 RES1    0.0000
     22 C15        0.2811   12.8619    7.2651 C.3       1 RES1    0.0000
     23 C16        1.7070   13.3086    7.1362 C.2       1 RES1    0.0000
     24 C17        1.9590   14.8003    6.9561 C.3       1 RES1    0.0000
     25 C18        3.1932   15.1507    6.1282 C.3       1 RES1    0.0000
     26 C19        3.9239   15.5061    9.9305 C.2       1 RES1    0.0000
     27 C20        4.3514   13.4957   11.0828 C.3       1 RES1    0.0000
     28 H2         4.6986   18.2238    9.7814 H         1 RES1    0.0000
     29 H3         2.8728   16.4575    4.5116 H         1 RES1    0.0000
     30 H4         3.2641   18.5043    5.3387 H         1 RES1    0.0000
     31 H5         4.4048   17.6413    6.1354 H         1 RES1    0.0000
     32 H6         1.6355   20.5748    6.4252 H         1 RES1    0.0000
     33 H7         2.3530   22.7238    7.1845 H         1 RES1    0.0000
     34 H8         4.0195   22.8689    8.8317 H         1 RES1    0.0000
     35 H9         4.9712   20.9195    9.7347 H         1 RES1    0.0000
     36 H10       -0.1211   16.2744    8.0350 H         1 RES1    0.0000
     37 H11        0.7427   17.1564    9.0536 H         1 RES1    0.0000
     38 H12        1.5453   14.8552    9.0303 H         1 RES1    0.0000
     39 H13        0.2301   11.9122    7.5466 H         1 RES1    0.0000
     40 H14       -0.1541   12.9345    6.4018 H         1 RES1    0.0000
     41 H15       -0.1769   13.4812    7.9088 H         1 RES1    0.0000
     42 H16        3.3537   14.4630    5.4240 H         1 RES1    0.0000
     43 H17        3.9857   15.2618    6.6541 H         1 RES1    0.0000
     44 H18        4.0416   12.5802   10.9812 H         1 RES1    0.0000
     45 H19        4.2165   13.8782   11.9274 H         1 RES1    0.0000
     46 H20        5.3393   13.5502   10.8176 H         1 RES1    0.0000
@<TRIPOS>BOND
     1    1    6 1
     2    2   23 2
     3    3   26 1
     4    4   26 2
     5    5    7 1
     6    6    8 1
     7    7   12 1
     8    8    9 1
     9   10    6 1
    10   11   10 1
    11   12    8 1
    12   13   12 1
    13   14   13 ar
    14   15   14 ar
    15   16   15 ar
    16   17   16 ar
    17   18    5 1
    18   19    8 1
    19   20   19 1
    20   21    7 2
    21   22   23 1
    22   23   24 1
    23   24    1 1
    24   25   10 1
    25   26   21 1
    26   27    3 1
    27   28    5 1
    28   29   10 1
    29   30   11 1
    30   31   11 1
    31   32   14 1
    32   33   15 1
    33   34   16 1
    34   35   17 1
    35   36   19 1
    36   37   19 1
    37   38   20 1
    38   39   22 1
    39   40   22 1
    40   41   22 1
    41   42   25 1
    42   43   25 1
    43   44   27 1
    44   45   27 1
    45   46   27 1
    46   11   12 1
    47   13   18 ar
    48   17   18 ar
    49   20   21 1
    50   20   24 1
    51   24   25 1
@<TRIPOS>SUBSTRUCTURE
     1 RES1 1

@<TRIPOS>CRYSIN
   6.0850   23.7722   11.9955  90.0000 103.1258  90.0000  14 1

