# MOL2 file generated by ConQuest
# Please check atom types

@<TRIPOS>MOLECULE
DUNDIA
    36    39     1
SMALL
NO_CHARGES
****
Generated from CSD

@<TRIPOS>ATOM
      1 O1         3.5838   10.8240    7.8479 O.2       1 RES1    0.0000
      2 O2         3.0456   11.5275    9.8496 O.2       1 RES1    0.0000
      3 O3         0.8463    6.8140    6.6566 O.2       1 RES1    0.0000
      4 O4        -0.5996    6.3529    8.2356 O.2       1 RES1    0.0000
      5 O5         5.8629    8.1044    8.3248 O.2       1 RES1    0.0000
      6 O6         5.9217    7.8659   10.4929 O.2       1 RES1    0.0000
      7 O7         3.5170    5.2133    7.3220 O.2       1 RES1    0.0000
      8 O8         2.7857    4.3002    9.1639 O.2       1 RES1    0.0000
      9 O9         3.5802    9.3404   13.1181 O.2       1 RES1    0.0000
     10 O10        0.4319    5.0865   11.6359 O.2       1 RES1    0.0000
     11 N1         1.9323    9.8436    8.9552 N.3       1 RES1    0.0000
     12 N2         0.6795    8.1654    8.4035 N.3       1 RES1    0.0000
     13 N3         3.9542    8.2664    9.4809 N.3       1 RES1    0.0000
     14 N4         2.6145    6.4961    8.9128 N.3       1 RES1    0.0000
     15 N5         2.4459    8.9969   11.1638 N.am      1 RES1    0.0000
     16 N6         0.9561    7.0197   10.5428 N.am      1 RES1    0.0000
     17 N7         2.9297   10.7854    8.8803 N.pl3     1 RES1    0.0000
     18 N8         0.2862    7.0255    7.7250 N.pl3     1 RES1    0.0000
     19 N9         5.3493    8.0338    9.4276 N.pl3     1 RES1    0.0000
     20 N10        3.0254    5.2508    8.4401 N.pl3     1 RES1    0.0000
     21 C1         1.9859    8.7161    8.0378 C.3       1 RES1    0.0000
     22 H1         2.0026    9.0187    7.0854 H         1 RES1    0.0000
     23 C2         1.4038    9.4371   10.2745 C.3       1 RES1    0.0000
     24 H2         0.8639   10.1695   10.6865 H         1 RES1    0.0000
     25 C3         0.4908    8.2164    9.8765 C.3       1 RES1    0.0000
     26 H3        -0.4653    8.3995   10.1054 H         1 RES1    0.0000
     27 C4         3.1869    7.7244    8.3570 C.3       1 RES1    0.0000
     28 H4         3.7585    7.5489    7.5558 H         1 RES1    0.0000
     29 C5         3.2528    7.8909   10.7209 C.3       1 RES1    0.0000
     30 H5         3.9077    7.6277   11.4304 H         1 RES1    0.0000
     31 C6         2.3459    6.6817   10.3381 C.3       1 RES1    0.0000
     32 H6         2.5969    5.8654   10.8595 H         1 RES1    0.0000
     33 C7         2.6944    9.6545   12.3523 C.2       1 RES1    0.0000
     34 H7         2.1413   10.3920   12.5825 H         1 RES1    0.0000
     35 C8         0.0957    6.1477   11.1532 C.2       1 RES1    0.0000
     36 H8        -0.8226    6.3893   11.2028 H         1 RES1    0.0000
@<TRIPOS>BOND
     1    1   17 2
     2    2   17 2
     3    3   18 2
     4    4   18 2
     5    5   19 2
     6    6   19 2
     7    7   20 2
     8    8   20 2
     9    9   33 2
    10   10   35 2
    11   11   17 1
    12   12   18 1
    13   13   19 1
    14   14   20 1
    15   15   23 1
    16   16   25 1
    17   21   11 1
    18   22   21 1
    19   23   11 1
    20   24   23 1
    21   25   12 1
    22   26   25 1
    23   27   13 1
    24   28   27 1
    25   29   13 1
    26   30   29 1
    27   31   14 1
    28   32   31 1
    29   33   15 1
    30   34   33 1
    31   35   16 1
    32   36   35 1
    33   12   21 1
    34   14   27 1
    35   15   29 1
    36   16   31 1
    37   21   27 1
    38   23   25 1
    39   29   31 1
@<TRIPOS>SUBSTRUCTURE
     1 RES1 1

@<TRIPOS>CRYSIN
   8.7794   12.7150   12.7160  90.0000  90.0000  90.0000  19 1

