# MOL2 file generated by ConQuest
# Please check atom types

@<TRIPOS>MOLECULE
DUNQOT
    32    32     1
SMALL
NO_CHARGES
****
Generated from CSD

@<TRIPOS>ATOM
      1 C1         9.5942    1.9715    5.7080 C.ar      1 RES1    0.0000
      2 C2         8.2563    1.8769    6.0492 C.ar      1 RES1    0.0000
      3 H1         7.9973    1.5422    6.8778 H         1 RES1    0.0000
      4 C3         7.3169    2.2920    5.1277 C.ar      1 RES1    0.0000
      5 H2         6.4102    2.2228    5.3247 H         1 RES1    0.0000
      6 C4         7.7280    2.8172    3.8969 C.ar      1 RES1    0.0000
      7 C5         9.0816    2.9077    3.5894 C.ar      1 RES1    0.0000
      8 H3         9.3476    3.2619    2.7712 H         1 RES1    0.0000
      9 C6        10.0345    2.4724    4.4954 C.ar      1 RES1    0.0000
     10 H4        10.9415    2.5156    4.2948 H         1 RES1    0.0000
     11 C7         6.6896    3.3029    2.9468 C.2       1 RES1    0.0000
     12 C8         7.1473    4.0856    1.7276 C.2       1 RES1    0.0000
     13 C9         7.1290    3.5131    0.3451 C.2       1 RES1    0.0000
     14 C10        6.5204    1.6732   -0.9891 C.3       1 RES1    0.0000
     15 H5         7.4092    1.5092   -1.3412 H         1 RES1    0.0000
     16 H6         6.0494    2.2598   -1.6017 H         1 RES1    0.0000
     17 C11        5.7764    0.3783   -0.8374 C.3       1 RES1    0.0000
     18 H7         5.7055   -0.0519   -1.6928 H         1 RES1    0.0000
     19 H8         4.8972    0.5525   -0.4925 H         1 RES1    0.0000
     20 H9         6.2510   -0.1938   -0.2297 H         1 RES1    0.0000
     21 C12        7.8129    7.1904    3.0636 C.3       1 RES1    0.0000
     22 H10        7.2354    7.6719    2.4670 H         1 RES1    0.0000
     23 H11        8.7215    7.2721    2.7653 H         1 RES1    0.0000
     24 H12        7.7327    7.5530    3.9491 H         1 RES1    0.0000
     25 N1         7.4909    5.3162    1.7865 N.2       1 RES1    0.0000
     26 N2        10.6034    1.5164    6.6833 N.pl3     1 RES1    0.0000
     27 O1         6.6084    2.2916    0.3383 O.3       1 RES1    0.0000
     28 O2         7.5224    4.1076   -0.6227 O.2       1 RES1    0.0000
     29 O3         5.5027    3.1426    3.1334 O.2       1 RES1    0.0000
     30 O4         7.4349    5.7966    3.0786 O.3       1 RES1    0.0000
     31 O5        10.2224    1.2118    7.8047 O.2       1 RES1    0.0000
     32 O6        11.7701    1.4516    6.3175 O.2       1 RES1    0.0000
@<TRIPOS>BOND
     1    1    2 ar
     2    2    3 1
     3    4    2 ar
     4    5    4 1
     5    6    4 ar
     6    7    6 ar
     7    8    7 1
     8    9    1 ar
     9   10    9 1
    10   11    6 1
    11   12   11 1
    12   13   12 1
    13   14   15 1
    14   16   14 1
    15   17   14 1
    16   18   17 1
    17   19   17 1
    18   20   17 1
    19   21   22 1
    20   23   21 1
    21   24   21 1
    22   25   12 2
    23   26    1 1
    24   27   13 1
    25   28   13 2
    26   29   11 2
    27   30   21 1
    28   31   26 2
    29   32   26 2
    30    7    9 ar
    31   14   27 1
    32   25   30 1
@<TRIPOS>SUBSTRUCTURE
     1 RES1 1

@<TRIPOS>CRYSIN
   7.5197    7.5793   12.3338  83.2640  73.7310  68.9390   2 1

