# MOL2 file generated by ConQuest
# Please check atom types

@<TRIPOS>MOLECULE
DUNVAK
    29    32     1
SMALL
NO_CHARGES
****
Generated from CSD

@<TRIPOS>ATOM
      1 N1         9.6655    1.7293    7.8990 N.2       1 RES1    0.0000
      2 N2        12.3319    1.7293    3.8551 N.2       1 RES1    0.0000
      3 O1         7.3611    1.7293    6.3479 O.3       1 RES1    0.0000
      4 O2         8.7851    2.1201    8.5000 O.3       1 RES1    0.0000
      5 O3        10.5921    1.0901    8.4499 O.3       1 RES1    0.0000
      6 O4        13.3113    1.7293    4.5563 O.2       1 RES1    0.0000
      7 O5        12.3866    1.7293    2.6546 O.2       1 RES1    0.0000
      8 C1         8.5393    1.7293    5.6869 C.2       1 RES1    0.0000
      9 C2         9.7075    1.7293    6.4399 C.2       1 RES1    0.0000
     10 C3        10.9430    1.7293    5.8495 C.2       1 RES1    0.0000
     11 H1        11.7184    1.7293    6.3652 H         1 RES1    0.0000
     12 C4        11.0103    1.7293    4.4865 C.2       1 RES1    0.0000
     13 C5         9.8840    1.7293    3.7023 C.2       1 RES1    0.0000
     14 H2         9.9555    1.7293    2.7753 H         1 RES1    0.0000
     15 C6         8.6464    1.7293    4.3001 C.2       1 RES1    0.0000
     16 H3         7.8795    1.7293    3.7754 H         1 RES1    0.0000
     17 C7         6.1670    1.7293    5.6254 C.2       1 RES1    0.0000
     18 C8         5.5886    0.5347    5.3330 C.2       1 RES1    0.0000
     19 H4         5.9968   -0.2670    5.5679 H         1 RES1    0.0000
     20 C9         4.3789    0.5520    4.6786 C.2       1 RES1    0.0000
     21 H5         3.9734   -0.2504    4.4422 H         1 RES1    0.0000
     22 C10        3.7717    1.7293    4.3748 C.2       1 RES1    0.0000
     23 H6         2.9417    1.7293    3.9577 H         1 RES1    0.0000
     24 O2G        8.7851    1.3384    8.5000 O.3       1 RES1    0.0000
     25 O3G       10.5921    2.3684    8.4499 O.3       1 RES1    0.0000
     26 C8G        5.5886    2.9238    5.3330 C.2       1 RES1    0.0000
     27 H4G        5.9968    3.7255    5.5679 H         1 RES1    0.0000
     28 C9G        4.3789    2.9065    4.6786 C.2       1 RES1    0.0000
     29 H5G        3.9734    3.7089    4.4422 H         1 RES1    0.0000
@<TRIPOS>BOND
     1    1    4 1
     2    2    6 1
     3    3    8 1
     4    4   24 1
     5    5    1 1
     6    7    2 1
     7    8    9 1
     8    9    1 1
     9   10    9 1
    10   11   10 1
    11   12    2 1
    12   13   12 1
    13   14   13 1
    14   15    8 1
    15   16   15 1
    16   17    3 1
    17   18   17 1
    18   19   18 1
    19   20   18 1
    20   21   20 1
    21   22   20 1
    22   23   22 1
    23   24    1 1
    24   25    1 1
    25   26   17 1
    26   27   26 1
    27   28   22 1
    28   29   28 1
    29    5   25 1
    30   10   12 1
    31   13   15 1
    32   26   28 1
@<TRIPOS>SUBSTRUCTURE
     1 RES1 1

@<TRIPOS>CRYSIN
  21.0120    6.9170    8.2110  90.0000  90.0000  90.0000  62 1

