# MOL2 file generated by ConQuest
# Please check atom types

@<TRIPOS>MOLECULE
DUNXAM
    38    40     1
SMALL
NO_CHARGES
****
Generated from CSD

@<TRIPOS>ATOM
      1 N1        -0.1989    8.9989    9.9879 N.pl3     1 RES1    0.0000
      2 H1        -0.1312    9.5839   10.6150 H         1 RES1    0.0000
      3 N2         1.7960    5.3277    8.9128 N.3       1 RES1    0.0000
      4 N3         0.7734    5.4782    6.9946 N.pl3     1 RES1    0.0000
      5 O1         2.2508    5.6199   10.0688 O.2       1 RES1    0.0000
      6 O2         0.2209    5.9879    5.9500 O.2       1 RES1    0.0000
      7 C1        -1.2490    8.9068    9.1030 C.ar      1 RES1    0.0000
      8 C2        -2.4155    9.6716    9.0255 C.ar      1 RES1    0.0000
      9 H2        -2.5743   10.3705    9.6176 H         1 RES1    0.0000
     10 C3        -3.3125    9.3541    8.0504 C.ar      1 RES1    0.0000
     11 H3        -4.0945    9.8522    7.9751 H         1 RES1    0.0000
     12 C4        -3.0886    8.3008    7.1623 C.ar      1 RES1    0.0000
     13 H4        -3.7145    8.1166    6.5002 H         1 RES1    0.0000
     14 C5        -1.9442    7.5273    7.2567 C.ar      1 RES1    0.0000
     15 H5        -1.8112    6.8134    6.6763 H         1 RES1    0.0000
     16 C6        -0.9893    7.8316    8.2340 C.ar      1 RES1    0.0000
     17 C7         0.2858    7.2826    8.6499 C.2       1 RES1    0.0000
     18 C8         0.7056    8.0377    9.7269 C.2       1 RES1    0.0000
     19 H6         1.4945    7.9018   10.2012 H         1 RES1    0.0000
     20 C9         0.9377    6.0794    8.1874 C.2       1 RES1    0.0000
     21 C10        2.3145    4.1517    8.1351 C.3       1 RES1    0.0000
     22 C11        3.6976    4.5455    7.6143 C.3       1 RES1    0.0000
     23 H7         3.6119    5.2778    6.9999 H         1 RES1    0.0000
     24 H8         4.0945    3.7957    7.1644 H         1 RES1    0.0000
     25 H9         4.2544    4.8086    8.3507 H         1 RES1    0.0000
     26 C12        2.4072    2.9432    9.0521 C.3       1 RES1    0.0000
     27 H10        3.0810    3.0976    9.7174 H         1 RES1    0.0000
     28 H11        2.6377    2.1671    8.5364 H         1 RES1    0.0000
     29 H12        1.5609    2.8020    9.4818 H         1 RES1    0.0000
     30 C13        1.2365    4.0552    7.0233 C.3       1 RES1    0.0000
     31 C14        0.0232    3.2168    7.4159 C.3       1 RES1    0.0000
     32 H13       -0.2760    3.4773    8.2902 H         1 RES1    0.0000
     33 H14        0.2654    2.2881    7.4244 H         1 RES1    0.0000
     34 H15       -0.6832    3.3580    6.7814 H         1 RES1    0.0000
     35 C15        1.7461    3.6483    5.6566 C.3       1 RES1    0.0000
     36 H16        1.0165    3.6396    5.0327 H         1 RES1    0.0000
     37 H17        2.1340    2.7722    5.7075 H         1 RES1    0.0000
     38 H18        2.4099    4.2763    5.3627 H         1 RES1    0.0000
@<TRIPOS>BOND
     1    1    2 1
     2    3    5 1
     3    4    6 1
     4    7    1 1
     5    8    7 ar
     6    9    8 1
     7   10    8 ar
     8   11   10 1
     9   12   10 ar
    10   13   12 1
    11   14   12 ar
    12   15   14 1
    13   16    7 ar
    14   17   16 1
    15   18    1 1
    16   19   18 1
    17   20    3 1
    18   21    3 1
    19   22   21 1
    20   23   22 1
    21   24   22 1
    22   25   22 1
    23   26   21 1
    24   27   26 1
    25   28   26 1
    26   29   26 1
    27   30    4 1
    28   31   30 1
    29   32   31 1
    30   33   31 1
    31   34   31 1
    32   35   30 1
    33   36   35 1
    34   37   35 1
    35   38   35 1
    36    4   20 2
    37   14   16 ar
    38   17   18 2
    39   17   20 1
    40   21   30 1
@<TRIPOS>SUBSTRUCTURE
     1 RES1 1

@<TRIPOS>CRYSIN
  15.0810    8.7700   10.6108  90.0000  90.0000  90.0000  29 1

