# MOL2 file generated by ConQuest
# Please check atom types

@<TRIPOS>MOLECULE
DUNXIU
    52    54     1
SMALL
NO_CHARGES
****
Generated from CSD

@<TRIPOS>ATOM
      1 O1         4.5695    3.3564    8.9631 O.2       1 RES1    0.0000
      2 O2         6.0998    2.6833   10.2153 O.2       1 RES1    0.0000
      3 O3         6.1127    0.6708    2.3518 O.2       1 RES1    0.0000
      4 O4         6.6114   -0.0943    4.4027 O.3       1 RES1    0.0000
      5 N1         5.6647    2.9147    9.1178 N.pl3     1 RES1    0.0000
      6 N2         8.7601    1.7220    4.5633 N.pl3     1 RES1    0.0000
      7 N3        10.0753    1.2204    4.7984 N.2       1 RES1    0.0000
      8 C1         6.4750    2.6152    7.9258 C.ar      1 RES1    0.0000
      9 C2         5.9848    2.9274    6.6763 C.ar      1 RES1    0.0000
     10 H1         5.1459    3.3167    6.5857 H         1 RES1    0.0000
     11 C3         6.7567    2.6541    5.5542 C.ar      1 RES1    0.0000
     12 H2         6.4544    2.8870    4.7061 H         1 RES1    0.0000
     13 C4         7.9919    2.0260    5.7208 C.ar      1 RES1    0.0000
     14 C5         8.4813    1.7460    6.9866 C.ar      1 RES1    0.0000
     15 H3         9.3198    1.3559    7.0882 H         1 RES1    0.0000
     16 C6         7.7126    2.0522    8.1010 C.ar      1 RES1    0.0000
     17 H4         8.0327    1.8770    8.9565 H         1 RES1    0.0000
     18 C7         8.2009    1.2593    3.3619 C.2       1 RES1    0.0000
     19 C8         6.8390    0.5840    3.3001 C.2       1 RES1    0.0000
     20 C9         5.2933   -0.7472    4.5363 C.3       1 RES1    0.0000
     21 H5         5.2830   -1.5805    4.0395 H         1 RES1    0.0000
     22 H6         4.5986   -0.1700    4.1810 H         1 RES1    0.0000
     23 C10        5.0536   -1.0063    5.9700 C.3       1 RES1    0.0000
     24 H7         4.1841   -1.3956    6.0847 H         1 RES1    0.0000
     25 H8         5.1012   -0.1804    6.4569 H         1 RES1    0.0000
     26 H9         5.7204   -1.6120    6.3026 H         1 RES1    0.0000
     27 O1A       14.4050    3.3564   -1.8863 O.2       1 RES1    0.0000
     28 O2A       12.8748    2.6833   -3.1384 O.2       1 RES1    0.0000
     29 O3A       12.8618    0.6708    4.7251 O.2       1 RES1    0.0000
     30 O4A       12.3631   -0.0943    2.6742 O.3       1 RES1    0.0000
     31 N1A       13.3098    2.9147   -2.0410 N.pl3     1 RES1    0.0000
     32 N2A       10.2144    1.7220    2.5136 N.pl3     1 RES1    0.0000
     33 N3A        8.8993    1.2204    2.2785 N.2       1 RES1    0.0000
     34 C1A       12.4995    2.6152   -0.8489 C.ar      1 RES1    0.0000
     35 C2A       12.9898    2.9274    0.4005 C.ar      1 RES1    0.0000
     36 H1A       13.8287    3.3167    0.4911 H         1 RES1    0.0000
     37 C3A       12.2179    2.6541    1.5227 C.ar      1 RES1    0.0000
     38 H2A       12.5201    2.8870    2.3707 H         1 RES1    0.0000
     39 C4A       10.9827    2.0260    1.3561 C.ar      1 RES1    0.0000
     40 C5A       10.4932    1.7460    0.0903 C.ar      1 RES1    0.0000
     41 H3A        9.6548    1.3559   -0.0113 H         1 RES1    0.0000
     42 C6A       11.2620    2.0522   -1.0242 C.ar      1 RES1    0.0000
     43 H4A       10.9418    1.8770   -1.8796 H         1 RES1    0.0000
     44 C7A       10.7737    1.2593    3.7149 C.2       1 RES1    0.0000
     45 C8A       12.1355    0.5840    3.7768 C.2       1 RES1    0.0000
     46 C9A       13.6812   -0.7472    2.5406 C.3       1 RES1    0.0000
     47 H5A       13.6916   -1.5805    3.0374 H         1 RES1    0.0000
     48 H6A       14.3760   -0.1700    2.8958 H         1 RES1    0.0000
     49 C10A      13.9209   -1.0063    1.1068 C.3       1 RES1    0.0000
     50 H7A       14.7905   -1.3956    0.9922 H         1 RES1    0.0000
     51 H8A       13.8733   -0.1804    0.6199 H         1 RES1    0.0000
     52 H9A       13.2541   -1.6120    0.7742 H         1 RES1    0.0000
@<TRIPOS>BOND
     1    1    5 2
     2    2    5 2
     3    3   19 2
     4    4   19 1
     5    5    8 1
     6    6    7 1
     7    7   44 2
     8    8    9 ar
     9    9   10 1
    10   11    9 ar
    11   12   11 1
    12   13    6 1
    13   14   13 ar
    14   15   14 1
    15   16    8 ar
    16   17   16 1
    17   18    6 1
    18   19   18 1
    19   20    4 1
    20   21   20 1
    21   22   20 1
    22   23   20 1
    23   24   23 1
    24   25   23 1
    25   26   23 1
    26   27   31 2
    27   28   31 2
    28   29   45 2
    29   30   45 1
    30   31   34 1
    31   32   33 1
    32   33   18 2
    33   34   35 ar
    34   35   36 1
    35   37   35 ar
    36   38   37 1
    37   39   32 1
    38   40   39 ar
    39   41   40 1
    40   42   34 ar
    41   43   42 1
    42   44   32 1
    43   45   44 1
    44   46   30 1
    45   47   46 1
    46   48   46 1
    47   49   46 1
    48   50   49 1
    49   51   49 1
    50   52   49 1
    51   11   13 ar
    52   14   16 ar
    53   37   39 ar
    54   40   42 ar
@<TRIPOS>SUBSTRUCTURE
     1 RES1 1

@<TRIPOS>CRYSIN
  20.7390    7.4870   14.5870  90.0000 104.0000  90.0000  15 1

