# MOL2 file generated by ConQuest
# Please check atom types

@<TRIPOS>MOLECULE
DUPHIF
    24    23     1
SMALL
NO_CHARGES
****
Generated from CSD

@<TRIPOS>ATOM
      1 C1        -1.1210    7.5089    9.6892 C.2       1 RES1    0.0000
      2 C2        -1.4119    6.2726    9.0874 C.2       1 RES1    0.0000
      3 C3        -3.1598    7.1047    7.5994 C.3       1 RES1    0.0000
      4 C4        -1.8333    5.1421    6.9475 C.3       1 RES1    0.0000
      5 C5         0.1319    5.1449   10.6119 C.3       1 RES1    0.0000
      6 C6        -1.7544    3.8973    9.6528 C.3       1 RES1    0.0000
      7 N1        -0.9071    8.6742    9.0021 N.pl3     1 RES1    0.0000
      8 N2        -2.1366    6.1485    7.9657 N.3       1 RES1    0.0000
      9 N3        -0.9817    5.1463    9.6938 N.pl3     1 RES1    0.0000
     10 O1        -0.9029    8.7161    7.7553 O.2       1 RES1    0.0000
     11 O2        -0.7221    9.7225    9.6710 O.2       1 RES1    0.0000
     12 H1        -0.9158    7.5159   10.6972 H         1 RES1    0.0000
     13 H2        -3.3568    7.6218    8.2490 H         1 RES1    0.0000
     14 H3        -2.9209    7.6553    6.8360 H         1 RES1    0.0000
     15 H4        -3.7869    6.7939    7.3571 H         1 RES1    0.0000
     16 H5        -1.0145    4.6654    7.1796 H         1 RES1    0.0000
     17 H6        -2.5225    4.5148    6.7826 H         1 RES1    0.0000
     18 H7        -1.9677    5.6397    5.9737 H         1 RES1    0.0000
     19 H8         0.7521    5.6383   10.4389 H         1 RES1    0.0000
     20 H9        -0.0026    5.2090   11.3388 H         1 RES1    0.0000
     21 H10        0.6951    4.5148   10.4799 H         1 RES1    0.0000
     22 H11       -1.8636    3.5754   10.4014 H         1 RES1    0.0000
     23 H12       -1.2792    3.1823    9.4060 H         1 RES1    0.0000
     24 H13       -2.5989    3.9099    9.2171 H         1 RES1    0.0000
@<TRIPOS>BOND
     1    1    2 2
     2    2    8 1
     3    3    8 1
     4    4    8 1
     5    5    9 1
     6    6    9 1
     7    7    1 1
     8    9    2 1
     9   10    7 2
    10   11    7 2
    11   12    1 1
    12   13    3 1
    13   14    3 1
    14   15    3 1
    15   16    4 1
    16   17    4 1
    17   18    4 1
    18   19    5 1
    19   20    5 1
    20   21    5 1
    21   22    6 1
    22   23    6 1
    23   24    6 1
@<TRIPOS>SUBSTRUCTURE
     1 RES1 1

@<TRIPOS>CRYSIN
   5.2810   13.9390   11.5100  90.0000  98.7400  90.0000 231 1

