# MOL2 file generated by ConQuest
# Please check atom types

@<TRIPOS>MOLECULE
DUPJED
    35    36     1
SMALL
NO_CHARGES
****
Generated from CSD

@<TRIPOS>ATOM
      1 O1         5.0350    2.4381    2.8025 O.3       1 RES1    0.0000
      2 C1         4.6680    1.0836    3.1598 C.3       1 RES1    0.0000
      3 C2         5.9766    0.3293    3.2082 C.3       1 RES1    0.0000
      4 C3         4.0845    3.2927    2.3349 C.ar      1 RES1    0.0000
      5 C4         4.5127    4.5943    2.1630 C.ar      1 RES1    0.0000
      6 C5         3.6914    5.5365    1.6229 C.ar      1 RES1    0.0000
      7 C6         2.4064    5.1598    1.2736 C.ar      1 RES1    0.0000
      8 C7         1.9489    3.8921    1.4348 C.ar      1 RES1    0.0000
      9 C8         2.7883    2.9365    1.9776 C.ar      1 RES1    0.0000
     10 N1         1.5309    6.1826    0.6798 N.pl3     1 RES1    0.0000
     11 O2         0.4185    5.8437    0.3090 O.2       1 RES1    0.0000
     12 O3         1.9408    7.3286    0.5938 O.2       1 RES1    0.0000
     13 C9         3.9205    1.0765    4.4738 C.ar      1 RES1    0.0000
     14 C10        2.8282    0.2756    4.6726 C.ar      1 RES1    0.0000
     15 C11        2.1513    0.2440    5.8844 C.ar      1 RES1    0.0000
     16 C12        2.5840    1.0496    6.9189 C.ar      1 RES1    0.0000
     17 C13        3.6870    1.8466    6.7335 C.ar      1 RES1    0.0000
     18 C14        4.3485    1.8647    5.5351 C.ar      1 RES1    0.0000
     19 O4         1.9785    1.1270    8.1468 O.3       1 RES1    0.0000
     20 C15        0.7734    0.3996    8.3403 C.3       1 RES1    0.0000
     21 H1         4.0715    0.6705    2.5311 H         1 RES1    0.0000
     22 H2         5.8383   -0.5892    3.4500 H         1 RES1    0.0000
     23 H3         6.5611    0.7440    3.8477 H         1 RES1    0.0000
     24 H4         6.3730    0.3752    2.3349 H         1 RES1    0.0000
     25 H5         5.4011    4.8391    2.4317 H         1 RES1    0.0000
     26 H6         4.0011    6.4353    1.4859 H         1 RES1    0.0000
     27 H7         1.0538    3.6607    1.1769 H         1 RES1    0.0000
     28 H8         2.4819    2.0361    2.1066 H         1 RES1    0.0000
     29 H9         2.5215   -0.2796    3.9525 H         1 RES1    0.0000
     30 H10        1.3919   -0.3325    6.0026 H         1 RES1    0.0000
     31 H11        3.9994    2.3978    7.4563 H         1 RES1    0.0000
     32 H12        5.1171    2.4294    5.4249 H         1 RES1    0.0000
     33 H13        0.4823    0.6958    9.2054 H         1 RES1    0.0000
     34 H14        0.9263   -0.5481    8.3617 H         1 RES1    0.0000
     35 H15        0.0967    0.6002    7.6900 H         1 RES1    0.0000
@<TRIPOS>BOND
     1    1    2 1
     2    2    3 1
     3    3   22 1
     4    4    1 1
     5    5    4 ar
     6    6    5 ar
     7    7    6 ar
     8    8    7 ar
     9    9    4 ar
    10   10    7 1
    11   11   10 2
    12   12   10 2
    13   13    2 1
    14   14   13 ar
    15   15   14 ar
    16   16   15 ar
    17   17   16 ar
    18   18   13 ar
    19   19   16 1
    20   20   19 1
    21   21    2 1
    22   23    3 1
    23   24    3 1
    24   25    5 1
    25   26    6 1
    26   27    8 1
    27   28    9 1
    28   29   14 1
    29   30   15 1
    30   31   17 1
    31   32   18 1
    32   33   20 1
    33   34   20 1
    34   35   20 1
    35    8    9 ar
    36   17   18 ar
@<TRIPOS>SUBSTRUCTURE
     1 RES1 1

@<TRIPOS>CRYSIN
   6.5480    7.8980   26.9470  90.0000  94.3500  90.0000 231 1

