# MOL2 file generated by ConQuest
# Please check atom types

@<TRIPOS>MOLECULE
DUPJAA
    53    55     1
SMALL
NO_CHARGES
****
Generated from CSD

@<TRIPOS>ATOM
      1 O1         2.1192   10.4031    4.5471 O.3       1 RES1    0.0000
      2 C1         0.6412   11.4228    2.9748 C.ar      1 RES1    0.0000
      3 C2         0.8449   10.5473    4.0360 C.ar      1 RES1    0.0000
      4 N1         7.4191   14.5629    0.3852 N.pl3     1 RES1    0.0000
      5 O2         7.2162   15.6532   -0.1150 O.2       1 RES1    0.0000
      6 C3        -0.1945    9.8165    4.6198 C.ar      1 RES1    0.0000
      7 O3         8.5019   14.0111    0.3548 O.2       1 RES1    0.0000
      8 C4        -1.4553   10.0660    4.0896 C.ar      1 RES1    0.0000
      9 H1        -2.1764    9.6177    4.4682 H         1 RES1    0.0000
     10 C5        -1.7220   10.9442    3.0253 C.ar      1 RES1    0.0000
     11 C6        -0.6519   11.6077    2.4768 C.ar      1 RES1    0.0000
     12 H2        -0.7894   12.1885    1.7632 H         1 RES1    0.0000
     13 C7         0.0170    8.8359    5.7799 C.3       1 RES1    0.0000
     14 C8         1.0771    7.7919    5.4259 C.3       1 RES1    0.0000
     15 H3         1.9026    8.2332    5.2118 H         1 RES1    0.0000
     16 H4         0.7821    7.2806    4.6689 H         1 RES1    0.0000
     17 H5         1.2127    7.2070    6.1748 H         1 RES1    0.0000
     18 C9         0.4237    9.6188    7.0269 C.3       1 RES1    0.0000
     19 H6         1.2347   10.1029    6.8499 H         1 RES1    0.0000
     20 H7         0.5653    9.0103    7.7563 H         1 RES1    0.0000
     21 H8        -0.2739   10.2381    7.2582 H         1 RES1    0.0000
     22 C10       -1.2716    8.0784    6.1222 C.3       1 RES1    0.0000
     23 H9        -1.5554    7.5688    5.3605 H         1 RES1    0.0000
     24 H10       -1.9582    8.7054    6.3613 H         1 RES1    0.0000
     25 H11       -1.1087    7.4858    6.8593 H         1 RES1    0.0000
     26 C11       -3.1586   11.1737    2.5587 C.3       1 RES1    0.0000
     27 C12       -3.8586    9.8403    2.3130 C.3       1 RES1    0.0000
     28 H12       -3.3921    9.3555    1.6287 H         1 RES1    0.0000
     29 H13       -4.7630   10.0008    2.0323 H         1 RES1    0.0000
     30 H14       -3.8622    9.3270    3.1228 H         1 RES1    0.0000
     31 C13       -3.9081   11.9450    3.6485 C.3       1 RES1    0.0000
     32 H15       -3.4726   12.7864    3.8026 H         1 RES1    0.0000
     33 H16       -3.9091   11.4328    4.4612 H         1 RES1    0.0000
     34 H17       -4.8128   12.0995    3.3659 H         1 RES1    0.0000
     35 C14       -3.2141   11.9880    1.2685 C.3       1 RES1    0.0000
     36 H18       -2.7755   12.8315    1.4044 H         1 RES1    0.0000
     37 H19       -4.1303   12.1386    1.0244 H         1 RES1    0.0000
     38 H20       -2.7711   11.5063    0.5665 H         1 RES1    0.0000
     39 C15        1.7745   12.1013    2.4246 C.2       1 RES1    0.0000
     40 H21        1.6448   12.6749    1.7042 H         1 RES1    0.0000
     41 C16        3.0218   11.9428    2.9078 C.2       1 RES1    0.0000
     42 C17        3.2229   11.0592    4.0509 C.2       1 RES1    0.0000
     43 C18        4.1915   12.6338    2.3177 C.ar      1 RES1    0.0000
     44 C19        5.4204   12.0022    2.1761 C.ar      1 RES1    0.0000
     45 H22        5.5304   11.1385    2.5020 H         1 RES1    0.0000
     46 C20        6.4805   12.6330    1.5588 C.ar      1 RES1    0.0000
     47 H23        7.2997   12.2027    1.4705 H         1 RES1    0.0000
     48 C21        6.3055   13.9079    1.0771 C.ar      1 RES1    0.0000
     49 C22        5.1158   14.5702    1.2073 C.ar      1 RES1    0.0000
     50 H24        5.0164   15.4355    0.8804 H         1 RES1    0.0000
     51 C23        4.0629   13.9275    1.8347 C.ar      1 RES1    0.0000
     52 H25        3.2529   14.3725    1.9355 H         1 RES1    0.0000
     53 O4         4.2602   10.8492    4.6165 O.2       1 RES1    0.0000
@<TRIPOS>BOND
     1    1    3 1
     2    2    3 ar
     3    3    6 ar
     4    4    5 2
     5    6    8 ar
     6    7    4 2
     7    8    9 1
     8   10    8 ar
     9   11    2 ar
    10   12   11 1
    11   13    6 1
    12   14   13 1
    13   15   14 1
    14   16   14 1
    15   17   14 1
    16   18   13 1
    17   19   18 1
    18   20   18 1
    19   21   18 1
    20   22   13 1
    21   23   22 1
    22   24   22 1
    23   25   22 1
    24   26   10 1
    25   27   26 1
    26   28   27 1
    27   29   27 1
    28   30   27 1
    29   31   26 1
    30   32   31 1
    31   33   31 1
    32   34   31 1
    33   35   26 1
    34   36   35 1
    35   37   35 1
    36   38   35 1
    37   39    2 1
    38   40   39 1
    39   41   39 2
    40   42    1 1
    41   43   41 1
    42   44   43 ar
    43   45   44 1
    44   46   44 ar
    45   47   46 1
    46   48    4 1
    47   49   48 ar
    48   50   49 1
    49   51   43 ar
    50   52   51 1
    51   53   42 2
    52   10   11 ar
    53   41   42 1
    54   46   48 ar
    55   49   51 ar
@<TRIPOS>SUBSTRUCTURE
     1 RES1 1

@<TRIPOS>CRYSIN
  14.6463   11.8634   23.6040  90.0000  90.0000  90.0000  61 1

