# MOL2 file generated by ConQuest
# Please check atom types

@<TRIPOS>MOLECULE
DUPTOZ
    28    28     1
SMALL
NO_CHARGES
****
Generated from CSD

@<TRIPOS>ATOM
      1 O1         1.4250    4.5364    1.5890 O.2       1 RES1    0.0000
      2 O2         3.1863    1.6735    2.1650 O.2       1 RES1    0.0000
      3 O3         5.1912    2.1488    1.4557 O.2       1 RES1    0.0000
      4 N1         4.0561    2.5078    1.8162 N.pl3     1 RES1    0.0000
      5 N2         4.5003    6.0695    1.2273 N.3       1 RES1    0.0000
      6 C1         1.9927    3.8299    3.7769 C.ar      1 RES1    0.0000
      7 C2         0.6693    3.7455    4.2072 C.ar      1 RES1    0.0000
      8 H1        -0.0394    3.8727    3.5883 H         1 RES1    0.0000
      9 C3         0.3862    3.4769    5.5388 C.ar      1 RES1    0.0000
     10 H2        -0.5169    3.4119    5.8269 H         1 RES1    0.0000
     11 C4         1.4145    3.3038    6.4481 C.ar      1 RES1    0.0000
     12 H3         1.2162    3.1141    7.3578 H         1 RES1    0.0000
     13 C5         2.7344    3.4062    6.0356 C.ar      1 RES1    0.0000
     14 H4         3.4394    3.3013    6.6635 H         1 RES1    0.0000
     15 C6         3.0218    3.6625    4.7021 C.ar      1 RES1    0.0000
     16 H5         3.9259    3.7242    4.4178 H         1 RES1    0.0000
     17 C7         2.2793    4.0984    2.3405 C.2       1 RES1    0.0000
     18 C8         3.6750    3.8622    1.8359 C.2       1 RES1    0.0000
     19 C9         4.5799    4.7568    1.2937 C.2       1 RES1    0.0000
     20 H6         5.3637    4.3724    0.9186 H         1 RES1    0.0000
     21 C10        3.3797    6.8324    1.7667 C.3       1 RES1    0.0000
     22 H7         2.6026    6.7320    1.1787 H         1 RES1    0.0000
     23 H8         3.6260    7.7794    1.8228 H         1 RES1    0.0000
     24 H9         3.1574    6.4985    2.6605 H         1 RES1    0.0000
     25 C11        5.5595    6.8390    0.5673 C.3       1 RES1    0.0000
     26 H10        6.2805    6.2339    0.2939 H         1 RES1    0.0000
     27 H11        5.9125    7.5083    1.1889 H         1 RES1    0.0000
     28 H12        5.1928    7.2876   -0.2232 H         1 RES1    0.0000
@<TRIPOS>BOND
     1    1   17 2
     2    2    4 2
     3    3    4 2
     4    4   18 1
     5    5   19 1
     6    6    7 ar
     7    7    8 1
     8    9    7 ar
     9   10    9 1
    10   11    9 ar
    11   12   11 1
    12   13   11 ar
    13   14   13 1
    14   15    6 ar
    15   16   15 1
    16   17    6 1
    17   18   17 1
    18   19   18 2
    19   20   19 1
    20   21    5 1
    21   22   21 1
    22   23   21 1
    23   24   21 1
    24   25    5 1
    25   26   25 1
    26   27   25 1
    27   28   25 1
    28   13   15 ar
@<TRIPOS>SUBSTRUCTURE
     1 RES1 1

@<TRIPOS>CRYSIN
   6.4046    8.4285   11.0404  70.2410  79.7940  86.9220   2 1

