# MOL2 file generated by ConQuest
# Please check atom types

@<TRIPOS>MOLECULE
DUSFIH
    30    31     1
SMALL
NO_CHARGES
****
Generated from CSD

@<TRIPOS>ATOM
      1 C1        12.7306    1.7116   14.0886 C.ar      1 RES1    0.0000
      2 H1        12.0839    1.7116   14.7578 H         1 RES1    0.0000
      3 C2        14.0560    1.7116   14.4155 C.ar      1 RES1    0.0000
      4 H2        14.3103    1.7116   15.3093 H         1 RES1    0.0000
      5 C3        15.0105    1.7116   13.4384 C.ar      1 RES1    0.0000
      6 H3        15.9088    1.7116   13.6809 H         1 RES1    0.0000
      7 C4        14.6758    1.7116   12.1072 C.ar      1 RES1    0.0000
      8 H4        15.3345    1.7116   11.4499 H         1 RES1    0.0000
      9 C5        13.3034    1.7116   11.7589 C.ar      1 RES1    0.0000
     10 C6        12.3497    1.7116   12.7538 C.ar      1 RES1    0.0000
     11 C7        10.6208    1.7116   11.1159 C.2       1 RES1    0.0000
     12 C8        11.5993    1.7116   10.1032 C.2       1 RES1    0.0000
     13 C9        11.2713    1.7116    8.6614 C.3       1 RES1    0.0000
     14 H5        12.0799    1.7116    8.1360 H         1 RES1    0.0000
     15 H6        10.7558    0.9277    8.4379 H         1 RES1    0.0000
     16 C10        9.1520    1.7116   10.7724 C.3       1 RES1    0.0000
     17 H7         9.1011    1.7116    9.7941 H         1 RES1    0.0000
     18 C11        8.4456    0.4484   11.2347 C.3       1 RES1    0.0000
     19 H8         8.9123   -0.3204   10.8984 H         1 RES1    0.0000
     20 H9         7.5454    0.4464   10.9031 H         1 RES1    0.0000
     21 H10        8.4330    0.4210   12.1939 H         1 RES1    0.0000
     22 N1        10.9907    1.7116   12.4119 N.pl3     1 RES1    0.0000
     23 N2        12.9169    1.7116   10.4265 N.pl3     1 RES1    0.0000
     24 O1        10.1186    1.7116   13.3707 O.2       1 RES1    0.0000
     25 O2        13.8373    1.7116    9.5113 O.2       1 RES1    0.0000
     26 H6F       10.7558    2.4954    8.4379 H         1 RES1    0.0000
     27 C11F       8.4456    2.9747   11.2347 C.3       1 RES1    0.0000
     28 H8F        8.9123    3.7435   10.8984 H         1 RES1    0.0000
     29 H9F        7.5454    2.9767   10.9031 H         1 RES1    0.0000
     30 H10F       8.4330    3.0021   12.1939 H         1 RES1    0.0000
@<TRIPOS>BOND
     1    1    2 1
     2    3    1 ar
     3    4    3 1
     4    5    3 ar
     5    6    5 1
     6    7    5 ar
     7    8    7 1
     8    9    7 ar
     9   10    1 ar
    10   11   12 1
    11   12   13 1
    12   13   14 1
    13   15   13 1
    14   16   11 1
    15   17   16 1
    16   18   16 1
    17   19   18 1
    18   20   18 1
    19   21   18 1
    20   22   10 1
    21   23    9 1
    22   24   22 1
    23   25   23 1
    24   26   13 1
    25   27   16 1
    26   28   27 1
    27   29   27 1
    28   30   27 1
    29    9   10 ar
    30   11   22 2
    31   12   23 2
@<TRIPOS>SUBSTRUCTURE
     1 RES1 1

@<TRIPOS>CRYSIN
  13.3879    6.8462   11.8861  90.0000  90.0000  90.0000  62 1

