# MOL2 file generated by ConQuest
# Please check atom types

@<TRIPOS>MOLECULE
DUSGEE
    17    17     1
SMALL
NO_CHARGES
****
Generated from CSD

@<TRIPOS>ATOM
      1 N1         4.4039    7.4075    6.8354 N.pl3     1 RES1    0.0000
      2 O1         2.5999    2.8047    5.0732 O.2       1 RES1    0.0000
      3 O2         2.9111    5.3475    5.4989 O.3       1 RES1    0.0000
      4 H1         2.5912    4.6668    5.1714 H         1 RES1    0.0000
      5 O3         3.7938    7.7798    5.8517 O.2       1 RES1    0.0000
      6 O4         4.8555    8.1757    7.6683 O.2       1 RES1    0.0000
      7 C1         3.5033    2.6075    5.8670 C.2       1 RES1    0.0000
      8 H2         3.7484    1.7267    6.0356 H         1 RES1    0.0000
      9 C2         4.2234    3.6568    6.5679 C.ar      1 RES1    0.0000
     10 C3         3.9049    5.0169    6.3338 C.ar      1 RES1    0.0000
     11 C4         4.6513    5.9767    7.0241 C.ar      1 RES1    0.0000
     12 C5         5.6534    5.6131    7.9080 C.ar      1 RES1    0.0000
     13 H3         6.1303    6.2713    8.3595 H         1 RES1    0.0000
     14 C6         5.9495    4.2854    8.1234 C.ar      1 RES1    0.0000
     15 H4         6.6274    4.0453    8.7127 H         1 RES1    0.0000
     16 C7         5.2327    3.3207    7.4584 C.ar      1 RES1    0.0000
     17 H5         5.4284    2.4233    7.6089 H         1 RES1    0.0000
@<TRIPOS>BOND
     1    1    5 2
     2    2    7 2
     3    3    4 1
     4    6    1 2
     5    7    8 1
     6    9    7 1
     7   10    3 1
     8   11    1 1
     9   12   11 ar
    10   13   12 1
    11   14   12 ar
    12   15   14 1
    13   16    9 ar
    14   17   16 1
    15    9   10 ar
    16   10   11 ar
    17   14   16 ar
@<TRIPOS>SUBSTRUCTURE
     1 RES1 1

@<TRIPOS>CRYSIN
   8.8276    8.7296    9.0110  90.0000  90.1240  90.0000 231 1

