# MOL2 file generated by ConQuest
# Please check atom types

@<TRIPOS>MOLECULE
DUTBAW
    39    40     1
SMALL
NO_CHARGES
****
Generated from CSD

@<TRIPOS>ATOM
      1 O1         6.6529    8.9595    4.1207 O.3       1 RES1    0.0000
      2 O2         3.0702   11.5235    2.0858 O.3       1 RES1    0.0000
      3 O3         1.8826   11.7176    4.3418 O.3       1 RES1    0.0000
      4 O4         6.6905    8.0500    8.6826 O.3       1 RES1    0.0000
      5 N1         4.8500    9.2011    7.7085 N.2       1 RES1    0.0000
      6 N2         7.0920    7.6137    9.9697 N.2       1 RES1    0.0000
      7 C1         4.8135    9.6966    5.3728 C.ar      1 RES1    0.0000
      8 C2         5.4661    9.6186    4.1342 C.ar      1 RES1    0.0000
      9 C3         4.8964   10.2086    2.9995 C.ar      1 RES1    0.0000
     10 H1         5.3281   10.1363    2.1569 H         1 RES1    0.0000
     11 C4         3.7022   10.8978    3.1106 C.ar      1 RES1    0.0000
     12 C5         3.0450   11.0025    4.3614 C.ar      1 RES1    0.0000
     13 C6         3.5989   10.3927    5.4624 C.ar      1 RES1    0.0000
     14 H2         3.1517   10.4433    6.2987 H         1 RES1    0.0000
     15 C7         7.3800    8.8904    2.8876 C.3       1 RES1    0.0000
     16 H3         8.2220    8.4102    3.0311 H         1 RES1    0.0000
     17 H4         7.5711    9.7975    2.5704 H         1 RES1    0.0000
     18 H5         6.8436    8.4162    2.2183 H         1 RES1    0.0000
     19 C8         3.6034   11.3592    0.7675 C.3       1 RES1    0.0000
     20 H6         3.0480   11.8506    0.1268 H         1 RES1    0.0000
     21 H7         3.6085   10.4070    0.5332 H         1 RES1    0.0000
     22 H8         4.5194   11.7074    0.7404 H         1 RES1    0.0000
     23 C9         1.2053   11.8741    5.5879 C.3       1 RES1    0.0000
     24 H9         0.4068   12.4275    5.4587 H         1 RES1    0.0000
     25 H10        1.8027   12.3092    6.2323 H         1 RES1    0.0000
     26 H11        0.9418   10.9947    5.9295 H         1 RES1    0.0000
     27 C10        5.4017    9.0840    6.5449 C.2       1 RES1    0.0000
     28 H12        6.2069    8.5879    6.4576 H         1 RES1    0.0000
     29 C11        5.4638    8.6315    8.7996 C.2       1 RES1    0.0000
     30 C12        5.0426    8.5883   10.0931 C.2       1 RES1    0.0000
     31 C13        3.7625    9.1215   10.6522 C.3       1 RES1    0.0000
     32 H13        3.3028    9.6509    9.9676 H         1 RES1    0.0000
     33 H14        3.9563    9.6889   11.4284 H         1 RES1    0.0000
     34 H15        3.1908    8.3752   10.9274 H         1 RES1    0.0000
     35 C14        6.1013    7.9450   10.7763 C.2       1 RES1    0.0000
     36 C15        6.2035    7.6273   12.2304 C.3       1 RES1    0.0000
     37 H16        7.0269    7.1219   12.3972 H         1 RES1    0.0000
     38 H17        5.4305    7.0903   12.5028 H         1 RES1    0.0000
     39 H18        6.2210    8.4598   12.7463 H         1 RES1    0.0000
@<TRIPOS>BOND
     1    1    8 1
     2    2   11 1
     3    3   12 1
     4    4    6 1
     5    5   27 2
     6    6   35 2
     7    7    8 ar
     8    8    9 ar
     9    9   10 1
    10   11    9 ar
    11   12   11 ar
    12   13    7 ar
    13   14   13 1
    14   15    1 1
    15   16   15 1
    16   17   15 1
    17   18   15 1
    18   19    2 1
    19   20   19 1
    20   21   19 1
    21   22   19 1
    22   23    3 1
    23   24   23 1
    24   25   23 1
    25   26   23 1
    26   27    7 1
    27   28   27 1
    28   29    4 1
    29   30   29 2
    30   31   30 1
    31   32   31 1
    32   33   31 1
    33   34   31 1
    34   35   30 1
    35   36   35 1
    36   37   36 1
    37   38   36 1
    38   39   36 1
    39    5   29 1
    40   12   13 ar
@<TRIPOS>SUBSTRUCTURE
     1 RES1 1

@<TRIPOS>CRYSIN
   6.6502   10.9012   11.2582  63.4630  83.0780  79.9850   2 1

