# MOL2 file generated by ConQuest
# Please check atom types

@<TRIPOS>MOLECULE
DUTGIJ
    43    46     1
SMALL
NO_CHARGES
****
Generated from CSD

@<TRIPOS>ATOM
      1 O1         2.1800    4.2376    2.3269 O.3       1 RES1    0.0000
      2 N1         9.2255    1.8680    6.0373 N.pl3     1 RES1    0.0000
      3 N2         3.5847    2.4409    3.0408 N.2       1 RES1    0.0000
      4 N3         0.9091    4.3734    1.7152 N.2       1 RES1    0.0000
      5 C1         9.0636    4.0587    5.4566 C.ar      1 RES1    0.0000
      6 C2         9.5243    5.3780    5.3559 C.ar      1 RES1    0.0000
      7 H1         9.0002    6.0369    4.9175 H         1 RES1    0.0000
      8 C3        10.7500    5.7075    5.9010 C.ar      1 RES1    0.0000
      9 H2        11.0657    6.6018    5.8462 H         1 RES1    0.0000
     10 C4        11.5263    4.7365    6.5335 C.ar      1 RES1    0.0000
     11 H3        12.3600    4.9866    6.9126 H         1 RES1    0.0000
     12 C5        11.1138    3.4159    6.6238 C.ar      1 RES1    0.0000
     13 H4        11.6556    2.7556    7.0400 H         1 RES1    0.0000
     14 C6         9.8784    3.0958    6.0802 C.ar      1 RES1    0.0000
     15 C7         9.7115    0.6186    6.6164 C.3       1 RES1    0.0000
     16 H5         8.9431    0.1089    6.9763 H         1 RES1    0.0000
     17 H6        10.3180    0.8257    7.3703 H         1 RES1    0.0000
     18 C8        10.4446   -0.2394    5.6166 C.3       1 RES1    0.0000
     19 H7        10.7063   -1.0826    6.0402 H         1 RES1    0.0000
     20 H8        11.2457    0.2340    5.3070 H         1 RES1    0.0000
     21 H9         9.8588   -0.4236    4.8538 H         1 RES1    0.0000
     22 C9         8.0271    2.0240    5.3930 C.ar      1 RES1    0.0000
     23 C10        7.8661    3.3809    5.0256 C.ar      1 RES1    0.0000
     24 C11        6.6801    3.7830    4.4109 C.ar      1 RES1    0.0000
     25 H10        6.5491    4.6948    4.1784 H         1 RES1    0.0000
     26 C12        5.6855    2.8403    4.1414 C.ar      1 RES1    0.0000
     27 C13        5.9017    1.4820    4.4791 C.ar      1 RES1    0.0000
     28 H11        5.2333    0.8432    4.2584 H         1 RES1    0.0000
     29 C14        7.0388    1.0543    5.1145 C.ar      1 RES1    0.0000
     30 H12        7.1579    0.1439    5.3559 H         1 RES1    0.0000
     31 C15        4.4592    3.2706    3.5030 C.2       1 RES1    0.0000
     32 H13        4.2900    4.2012    3.4230 H         1 RES1    0.0000
     33 C16        2.4273    2.9075    2.4647 C.2       1 RES1    0.0000
     34 C17        1.4010    2.1773    1.9611 C.2       1 RES1    0.0000
     35 C18        0.4794    3.1630    1.5138 C.2       1 RES1    0.0000
     36 C19        1.2731    0.6993    1.8900 C.3       1 RES1    0.0000
     37 H14        2.1012    0.2838    2.2114 H         1 RES1    0.0000
     38 H15        1.1107    0.4303    0.9628 H         1 RES1    0.0000
     39 H16        0.5243    0.4088    2.4513 H         1 RES1    0.0000
     40 C20       -0.8530    2.9304    0.8724 C.3       1 RES1    0.0000
     41 H17       -1.4485    2.4839    1.5108 H         1 RES1    0.0000
     42 H18       -0.7397    2.3642    0.0800 H         1 RES1    0.0000
     43 H19       -1.2419    3.7897    0.6073 H         1 RES1    0.0000
@<TRIPOS>BOND
     1    1    4 1
     2    2   14 1
     3    3   31 2
     4    4   35 2
     5    5    6 ar
     6    6    7 1
     7    8    6 ar
     8    9    8 1
     9   10    8 ar
    10   11   10 1
    11   12   10 ar
    12   13   12 1
    13   14    5 ar
    14   15    2 1
    15   16   15 1
    16   17   15 1
    17   18   15 1
    18   19   18 1
    19   20   18 1
    20   21   18 1
    21   22    2 1
    22   23    5 1
    23   24   23 ar
    24   25   24 1
    25   26   24 ar
    26   27   26 ar
    27   28   27 1
    28   29   22 ar
    29   30   29 1
    30   31   26 1
    31   32   31 1
    32   33    1 1
    33   34   33 2
    34   35   34 1
    35   36   34 1
    36   37   36 1
    37   38   36 1
    38   39   36 1
    39   40   35 1
    40   41   40 1
    41   42   40 1
    42   43   40 1
    43    3   33 1
    44   12   14 ar
    45   22   23 ar
    46   27   29 ar
@<TRIPOS>SUBSTRUCTURE
     1 RES1 1

@<TRIPOS>CRYSIN
   8.0575   13.4483   14.8488  90.0000  94.0490  90.0000  14 1

