# MOL2 file generated by ConQuest
# Please check atom types

@<TRIPOS>MOLECULE
DUTKOU
    70    74     1
SMALL
NO_CHARGES
****
Generated from CSD

@<TRIPOS>ATOM
      1 O1         1.7699    4.9321    8.8401 O.3       1 RES1    0.0000
      2 O2         3.5291    1.1611    4.1540 O.3       1 RES1    0.0000
      3 O3        -0.2866    0.6937    8.1339 O.2       1 RES1    0.0000
      4 N1         0.9163    4.0243    8.1206 N.3       1 RES1    0.0000
      5 C1         1.5597    9.1233    8.1660 C.3       1 RES1    0.0000
      6 H1         1.2569   10.0392    8.2617 H         1 RES1    0.0000
      7 H2         2.3205    9.1211    7.5629 H         1 RES1    0.0000
      8 C2         1.9899    8.5879    9.5239 C.3       1 RES1    0.0000
      9 H3         1.2596    8.6818   10.1550 H         1 RES1    0.0000
     10 H4         2.7407    9.1064    9.8540 H         1 RES1    0.0000
     11 C3         2.3925    7.1161    9.4236 C.3       1 RES1    0.0000
     12 H5         3.1796    7.0315    8.8625 H         1 RES1    0.0000
     13 H6         2.6131    6.7778   10.3055 H         1 RES1    0.0000
     14 C4         1.2566    6.2925    8.8321 C.3       1 RES1    0.0000
     15 H7         0.4819    6.3441    9.4294 H         1 RES1    0.0000
     16 C5         1.6581    3.3926    7.1033 C.ar      1 RES1    0.0000
     17 C6         1.2968    2.0563    6.9329 C.ar      1 RES1    0.0000
     18 C7         1.8518    1.2472    5.9344 C.ar      1 RES1    0.0000
     19 H8         1.5735    0.3683    5.8107 H         1 RES1    0.0000
     20 C8         2.8343    1.8123    5.1388 C.ar      1 RES1    0.0000
     21 C9         3.3589   -0.2501    4.0585 C.3       1 RES1    0.0000
     22 H9         3.5410   -0.6532    4.9101 H         1 RES1    0.0000
     23 H10        3.9655   -0.6011    3.4017 H         1 RES1    0.0000
     24 H11        2.4563   -0.4468    3.7972 H         1 RES1    0.0000
     25 C10        0.4426    8.2827    7.5687 C.3       1 RES1    0.0000
     26 H12        0.2232    8.6177    6.6856 H         1 RES1    0.0000
     27 H13       -0.3486    8.3577    8.1240 H         1 RES1    0.0000
     28 C11        0.8585    6.8076    7.4672 C.3       1 RES1    0.0000
     29 H14        0.1195    6.2819    7.1219 H         1 RES1    0.0000
     30 H15        1.6049    6.7198    6.8536 H         1 RES1    0.0000
     31 C12        0.2551    2.9477    8.9406 C.3       1 RES1    0.0000
     32 C13        0.3519    1.7275    7.9922 C.2       1 RES1    0.0000
     33 C14       -1.2422    3.2557    9.1646 C.3       1 RES1    0.0000
     34 H16       -1.6513    2.4229    9.4831 H         1 RES1    0.0000
     35 C15       -1.5549    4.3225   10.2192 C.3       1 RES1    0.0000
     36 H17       -1.1396    4.0784   11.0603 H         1 RES1    0.0000
     37 H18       -1.1858    5.1738    9.9369 H         1 RES1    0.0000
     38 C16       -3.0632    4.4571   10.4140 C.3       1 RES1    0.0000
     39 H19       -3.4193    3.6208   10.7500 H         1 RES1    0.0000
     40 H20       -3.2401    5.1451   11.0754 H         1 RES1    0.0000
     41 C17       -3.7658    4.8174    9.1144 C.3       1 RES1    0.0000
     42 H21       -3.4694    5.6917    8.8158 H         1 RES1    0.0000
     43 H22       -4.7229    4.8575    9.2626 H         1 RES1    0.0000
     44 C18       -3.4555    3.7799    8.0459 C.3       1 RES1    0.0000
     45 H23       -3.8630    4.0497    7.2083 H         1 RES1    0.0000
     46 H24       -3.8409    2.9279    8.3048 H         1 RES1    0.0000
     47 C19       -1.9528    3.6143    7.8452 C.3       1 RES1    0.0000
     48 H25       -1.5819    4.4401    7.4952 H         1 RES1    0.0000
     49 H26       -1.7912    2.9143    7.1931 H         1 RES1    0.0000
     50 C20        1.0575    2.6635   10.2472 C.3       1 RES1    0.0000
     51 H27        1.1067    3.5049   10.7476 H         1 RES1    0.0000
     52 C21        2.5057    2.1995    9.9870 C.3       1 RES1    0.0000
     53 H28        2.4917    1.3543    9.5099 H         1 RES1    0.0000
     54 H29        2.9573    2.8512    9.4282 H         1 RES1    0.0000
     55 C22        3.2781    2.0310   11.2983 C.3       1 RES1    0.0000
     56 H30        4.1689    1.6989   11.1034 H         1 RES1    0.0000
     57 H31        3.3692    2.8953   11.7276 H         1 RES1    0.0000
     58 C23        2.5829    1.0689   12.2490 C.3       1 RES1    0.0000
     59 H32        3.0559    1.0534   13.0959 H         1 RES1    0.0000
     60 H33        2.6024    0.1745   11.8769 H         1 RES1    0.0000
     61 C24        1.1338    1.4926   12.4835 C.3       1 RES1    0.0000
     62 H34        1.1188    2.3422   12.9501 H         1 RES1    0.0000
     63 H35        0.6927    0.8354   13.0435 H         1 RES1    0.0000
     64 C25        0.3690    1.6280   11.1594 C.3       1 RES1    0.0000
     65 H36       -0.5425    1.9057   11.3379 H         1 RES1    0.0000
     66 H37        0.3414    0.7673   10.7115 H         1 RES1    0.0000
     67 C26        2.6334    3.9593    6.2878 C.ar      1 RES1    0.0000
     68 H38        2.8883    4.8471    6.3905 H         1 RES1    0.0000
     69 C27        3.2059    3.1601    5.3254 C.ar      1 RES1    0.0000
     70 H39        3.8629    3.5229    4.7771 H         1 RES1    0.0000
@<TRIPOS>BOND
     1    1    4 1
     2    2   20 1
     3    3   32 2
     4    4   16 1
     5    5    6 1
     6    7    5 1
     7    8    5 1
     8    9    8 1
     9   10    8 1
    10   11    8 1
    11   12   11 1
    12   13   11 1
    13   14    1 1
    14   15   14 1
    15   16   17 ar
    16   17   18 ar
    17   18   19 1
    18   20   18 ar
    19   21    2 1
    20   22   21 1
    21   23   21 1
    22   24   21 1
    23   25    5 1
    24   26   25 1
    25   27   25 1
    26   28   14 1
    27   29   28 1
    28   30   28 1
    29   31    4 1
    30   32   17 1
    31   33   31 1
    32   34   33 1
    33   35   33 1
    34   36   35 1
    35   37   35 1
    36   38   35 1
    37   39   38 1
    38   40   38 1
    39   41   38 1
    40   42   41 1
    41   43   41 1
    42   44   41 1
    43   45   44 1
    44   46   44 1
    45   47   33 1
    46   48   47 1
    47   49   47 1
    48   50   31 1
    49   51   50 1
    50   52   50 1
    51   53   52 1
    52   54   52 1
    53   55   52 1
    54   56   55 1
    55   57   55 1
    56   58   55 1
    57   59   58 1
    58   60   58 1
    59   61   58 1
    60   62   61 1
    61   63   61 1
    62   64   50 1
    63   65   64 1
    64   66   64 1
    65   67   16 ar
    66   68   67 1
    67   69   20 ar
    68   70   69 1
    69   11   14 1
    70   25   28 1
    71   31   32 1
    72   44   47 1
    73   61   64 1
    74   67   69 ar
@<TRIPOS>SUBSTRUCTURE
     1 RES1 1

@<TRIPOS>CRYSIN
   9.3163   10.7518   11.6696  91.0640  90.9600  93.2680   2 1

