# MOL2 file generated by ConQuest
# Please check atom types

@<TRIPOS>MOLECULE
DUTQOZ
    26    27     1
SMALL
USER_CHARGES
****
Generated from CSD

@<TRIPOS>ATOM
      1 N1        -0.0548    2.6367    6.5205 N.pl3     1 RES1    0.0000
      2 N2         5.7102   -2.1062    5.7646 N.pl3     1 RES1    1.0000
      3 H1         6.1842   -2.8216    5.7831 H         1 RES1    0.0000
      4 O1         4.9928    5.0046    4.2626 O.co2     1 RES1   -1.0000
      5 O2         3.2936    6.2219    5.0186 O.co2     1 RES1    0.0000
      6 O3        -0.6771    3.6862    6.5234 O.2       1 RES1    0.0000
      7 O4        -0.5336    1.5663    6.9042 O.2       1 RES1    0.0000
      8 C1         3.8466    5.1509    4.8253 C.2       1 RES1    0.0000
      9 C2         3.2259    3.8604    5.2725 C.ar      1 RES1    0.0000
     10 C3         1.9136    3.8433    5.7032 C.ar      1 RES1    0.0000
     11 H2         1.4203    4.6296    5.7382 H         1 RES1    0.0000
     12 C4         1.3461    2.6501    6.0791 C.ar      1 RES1    0.0000
     13 C5         2.0587    1.4617    6.0520 C.ar      1 RES1    0.0000
     14 H3         1.6444    0.6646    6.2916 H         1 RES1    0.0000
     15 C6         3.3920    1.4691    5.6654 C.ar      1 RES1    0.0000
     16 C7         3.9675    2.6790    5.2775 C.ar      1 RES1    0.0000
     17 H4         4.8606    2.6991    5.0172 H         1 RES1    0.0000
     18 C8         4.4028   -2.1644    5.5806 C.ar      1 RES1    0.0000
     19 H5         3.9981   -2.9961    5.4807 H         1 RES1    0.0000
     20 C9         3.6177   -1.0351    5.5321 C.ar      1 RES1    0.0000
     21 H6         2.7004   -1.1138    5.4058 H         1 RES1    0.0000
     22 C10        4.1916    0.2187    5.6697 C.ar      1 RES1    0.0000
     23 C11        5.5797    0.2551    5.8730 C.ar      1 RES1    0.0000
     24 H7         6.0198    1.0692    5.9749 H         1 RES1    0.0000
     25 C12        6.2713   -0.9192    5.9193 C.ar      1 RES1    0.0000
     26 H8         7.1886   -0.8836    6.0669 H         1 RES1    0.0000
@<TRIPOS>BOND
     1    1    6 2
     2    2    3 1
     3    4    8 1
     4    5    8 2
     5    7    1 2
     6    8    9 1
     7    9   10 ar
     8   10   11 1
     9   12    1 1
    10   13   12 ar
    11   14   13 1
    12   15   13 ar
    13   16    9 ar
    14   17   16 1
    15   18    2 ar
    16   19   18 1
    17   20   18 ar
    18   21   20 1
    19   22   15 1
    20   23   22 ar
    21   24   23 1
    22   25    2 ar
    23   26   25 1
    24   10   12 ar
    25   15   16 ar
    26   20   22 ar
    27   23   25 ar
@<TRIPOS>SUBSTRUCTURE
     1 RES1 1

@<TRIPOS>CRYSIN
  16.1215   37.1260    7.1317  90.0000  90.0000  90.0000  43 1

