# MOL2 file generated by ConQuest
# Please check atom types

@<TRIPOS>MOLECULE
DUTRIT01
    31    33     1
SMALL
NO_CHARGES
****
Generated from CSD

@<TRIPOS>ATOM
      1 C1        -1.5175    3.6673    1.6377 C.ar      1 RES1    0.0000
      2 C2        -2.7922    3.4499    1.1454 C.ar      1 RES1    0.0000
      3 H1        -3.4682    4.0704    1.3001 H         1 RES1    0.0000
      4 C3        -3.0497    2.3039    0.4237 C.ar      1 RES1    0.0000
      5 H2        -3.9059    2.1525    0.0938 H         1 RES1    0.0000
      6 C4        -2.0526    1.3763    0.1838 C.ar      1 RES1    0.0000
      7 H3        -2.2353    0.6010   -0.2960 H         1 RES1    0.0000
      8 C5        -0.7943    1.6152    0.6617 C.ar      1 RES1    0.0000
      9 H4        -0.1202    0.9968    0.4924 H         1 RES1    0.0000
     10 C6        -0.4966    2.7576    1.3949 C.ar      1 RES1    0.0000
     11 C7         0.8722    3.0212    1.8641 C.2       1 RES1    0.0000
     12 C8         1.0533    4.3252    2.5809 C.3       1 RES1    0.0000
     13 H5         1.3079    5.0113    1.9434 H         1 RES1    0.0000
     14 H6         1.7679    4.2392    3.2310 H         1 RES1    0.0000
     15 C9        -0.2217    4.7371    3.2832 C.3       1 RES1    0.0000
     16 H7        -0.4307    4.0623    3.9623 H         1 RES1    0.0000
     17 C10       -0.0789    6.0739    3.9739 C.ar      1 RES1    0.0000
     18 C11        0.4597    6.1190    5.2392 C.ar      1 RES1    0.0000
     19 H8         0.6894    5.3260    5.6668 H         1 RES1    0.0000
     20 C12        0.6634    7.3213    5.8854 C.ar      1 RES1    0.0000
     21 H9         1.0305    7.3466    6.7396 H         1 RES1    0.0000
     22 C13        0.3151    8.4759    5.2402 C.ar      1 RES1    0.0000
     23 C14       -0.2312    8.4701    3.9865 C.ar      1 RES1    0.0000
     24 H10       -0.4649    9.2670    3.5676 H         1 RES1    0.0000
     25 C15       -0.4281    7.2580    3.3558 C.ar      1 RES1    0.0000
     26 H11       -0.8008    7.2394    2.5035 H         1 RES1    0.0000
     27 N1         0.5250    9.7701    5.9164 N.pl3     1 RES1    0.0000
     28 O1        -1.3165    4.8098    2.3719 O.3       1 RES1    0.0000
     29 O2         1.7962    2.2519    1.6701 O.2       1 RES1    0.0000
     30 O3         0.8540    9.7608    7.0843 O.2       1 RES1    0.0000
     31 O4         0.3635   10.7979    5.2814 O.2       1 RES1    0.0000
@<TRIPOS>BOND
     1    1    2 ar
     2    2    3 1
     3    4    2 ar
     4    5    4 1
     5    6    4 ar
     6    7    6 1
     7    8    6 ar
     8    9    8 1
     9   10    1 ar
    10   11   10 1
    11   12   11 1
    12   13   12 1
    13   14   12 1
    14   15   12 1
    15   16   15 1
    16   17   15 1
    17   18   17 ar
    18   19   18 1
    19   20   18 ar
    20   21   20 1
    21   22   20 ar
    22   23   22 ar
    23   24   23 1
    24   25   17 ar
    25   26   25 1
    26   27   22 1
    27   28    1 1
    28   29   11 2
    29   30   27 2
    30   31   27 2
    31    8   10 ar
    32   15   28 1
    33   23   25 ar
@<TRIPOS>SUBSTRUCTURE
     1 RES1 1

@<TRIPOS>CRYSIN
   7.7910    8.4520    9.9770  90.7800 104.0660  93.5620   2 1

