# MOL2 file generated by ConQuest
# Please check atom types

@<TRIPOS>MOLECULE
DUVMAI
    30    31     2
SMALL
NO_CHARGES
****
Generated from CSD

@<TRIPOS>ATOM
      1 C1         2.3961    3.1587    1.8587 C.2       1 RES1    0.0000
      2 C2         2.6247    4.4400    2.5730 C.2       1 RES1    0.0000
      3 C3         2.1205    5.5343    1.7259 C.2       1 RES1    0.0000
      4 C4         1.1668    5.5078   -0.6813 C.ar      1 RES1    0.0000
      5 C5         0.8054    4.6606   -1.7161 C.ar      1 RES1    0.0000
      6 C6         0.9020    3.3011   -1.6174 C.ar      1 RES1    0.0000
      7 C7         1.3978    2.6925   -0.4912 C.ar      1 RES1    0.0000
      8 C8         1.7926    3.5216    0.5521 C.ar      1 RES1    0.0000
      9 C9         1.6688    4.8993    0.4656 C.ar      1 RES1    0.0000
     10 C10        3.1707    4.4400    3.8015 C.2       1 RES1    0.0000
     11 C11        3.5052    5.5860    4.6620 C.ar      1 RES1    0.0000
     12 C12        4.1095    6.7292    4.1453 C.ar      1 RES1    0.0000
     13 C13        4.4647    7.7830    4.9631 C.ar      1 RES1    0.0000
     14 C14        4.2272    7.7146    6.3148 C.ar      1 RES1    0.0000
     15 C15        3.6583    6.6035    6.8572 C.ar      1 RES1    0.0000
     16 C16        3.2892    5.5734    6.0442 C.ar      1 RES1    0.0000
     17 N1         2.6346    4.4163    6.6524 N.pl3     1 RES1    0.0000
     18 O1         2.6469    2.0407    2.2573 O.2       1 RES1    0.0000
     19 O2         2.0242    6.7194    1.9855 O.2       1 RES1    0.0000
     20 O3         1.8700    3.7254    5.9869 O.2       1 RES1    0.0000
     21 O4         2.8541    4.2028    7.8359 O.2       1 RES1    0.0000
     22 H1        -0.5006    6.5742    4.4487 Du        2 SUP2    0.0000
     23 H2         0.5178    5.0807   -2.4133 H         1 RES1    0.0000
     24 H3         0.6632    2.7497   -2.2914 H         1 RES1    0.0000
     25 H4         1.5048    1.6750   -0.4388 H         1 RES1    0.0000
     26 H5         3.4239    3.4895    4.2294 H         1 RES1    0.0000
     27 H6         4.3061    6.7138    3.0715 H         1 RES1    0.0000
     28 H7         4.8222    8.7517    4.6438 H         1 RES1    0.0000
     29 H8         4.4918    8.5283    6.7523 H         1 RES1    0.0000
     30 H9         3.5016    6.5044    7.6787 H         1 RES1    0.0000
@<TRIPOS>BOND
     1    1    2 1
     2    2    3 1
     3    3    9 1
     4    4    5 ar
     5    5    6 ar
     6    6    7 ar
     7    7    8 ar
     8    8    1 1
     9    9    4 ar
    10   10    2 2
    11   11   10 1
    12   12   11 ar
    13   13   12 ar
    14   14   13 ar
    15   15   14 ar
    16   16   11 ar
    17   17   16 1
    18   18    1 2
    19   19    3 2
    20   20   17 2
    21   21   17 2
    22   23    5 1
    23   24    6 1
    24   25    7 1
    25   26   10 1
    26   27   12 1
    27   28   13 1
    28   29   14 1
    29   30   15 1
    30    8    9 ar
    31   15   16 ar
@<TRIPOS>SUBSTRUCTURE
     1 RES1 1
     2 SUP2 22

@<TRIPOS>CRYSIN
   7.4460   13.9580   12.6350  90.0000 105.2800  90.0000  14 2

