# MOL2 file generated by ConQuest
# Please check atom types

@<TRIPOS>MOLECULE
DUVVEW
    43    44     1
SMALL
NO_CHARGES
****
Generated from CSD

@<TRIPOS>ATOM
      1 O1         0.5120   -0.3359    9.2775 O.2       1 RES1    0.0000
      2 O2         0.8755    1.5202    8.3246 O.2       1 RES1    0.0000
      3 O3         4.4035   -2.9512    5.7118 O.2       1 RES1    0.0000
      4 O4         5.2077   -0.9254    6.1947 O.3       1 RES1    0.0000
      5 O5         3.5904   -0.0586    9.0488 O.2       1 RES1    0.0000
      6 O6         4.3983   -2.1344    8.9242 O.3       1 RES1    0.0000
      7 N1         0.7470    0.3235    8.3018 N.pl3     1 RES1    0.0000
      8 C1         0.8933   -0.3826    6.9236 C.3       1 RES1    0.0000
      9 C2         2.3754   -0.2005    6.4934 C.3       1 RES1    0.0000
     10 C3         3.1122   -1.4334    7.1004 C.3       1 RES1    0.0000
     11 C4         2.0459   -2.5343    7.2524 C.3       1 RES1    0.0000
     12 C5         0.7262   -1.8549    7.1013 C.2       1 RES1    0.0000
     13 C6        -0.4179   -2.4821    7.0726 C.2       1 RES1    0.0000
     14 C7         2.5242   -0.0482    4.9913 C.ar      1 RES1    0.0000
     15 C8         2.8773    1.1850    4.4694 C.ar      1 RES1    0.0000
     16 C9         2.9771    1.3724    3.0985 C.ar      1 RES1    0.0000
     17 C10        2.7503    0.3323    2.2446 C.ar      1 RES1    0.0000
     18 C11        2.4106   -0.8871    2.7444 C.ar      1 RES1    0.0000
     19 C12        2.2753   -1.0898    4.1025 C.ar      1 RES1    0.0000
     20 C13        4.2925   -1.8927    6.2454 C.2       1 RES1    0.0000
     21 C14        6.4136   -1.2260    5.4452 C.3       1 RES1    0.0000
     22 C15        3.7074   -1.0910    8.4766 C.2       1 RES1    0.0000
     23 C16        5.0616   -1.9839   10.2019 C.3       1 RES1    0.0000
     24 C17       -0.1416    0.3033    6.0411 C.3       1 RES1    0.0000
     25 H1         2.7488    0.5976    6.8747 H         1 RES1    0.0000
     26 H2         3.0439    1.9121    5.0736 H         1 RES1    0.0000
     27 H3         3.2099    2.2381    2.7551 H         1 RES1    0.0000
     28 H4         2.8299    0.4807    1.2994 H         1 RES1    0.0000
     29 H5         2.2803   -1.6156    2.1329 H         1 RES1    0.0000
     30 H6         2.0166   -1.9531    4.4331 H         1 RES1    0.0000
     31 H7         2.0865   -2.9521    8.1157 H         1 RES1    0.0000
     32 H8         2.1356   -3.2026    6.5690 H         1 RES1    0.0000
     33 H9        -1.2274   -1.9757    6.9732 H         1 RES1    0.0000
     34 H10       -0.4538   -3.4402    7.1202 H         1 RES1    0.0000
     35 H11        7.0192   -0.4813    5.4646 H         1 RES1    0.0000
     36 H12        6.1582   -1.4071    4.5378 H         1 RES1    0.0000
     37 H13        6.8450   -1.9991    5.8166 H         1 RES1    0.0000
     38 H14        5.5217   -2.7994   10.4139 H         1 RES1    0.0000
     39 H15        4.4224   -1.7886   10.8910 H         1 RES1    0.0000
     40 H16        5.6954   -1.2655   10.1403 H         1 RES1    0.0000
     41 H17        0.0527    1.2415    5.9812 H         1 RES1    0.0000
     42 H18       -1.0119    0.1808    6.4276 H         1 RES1    0.0000
     43 H19       -0.1242   -0.0839    5.1628 H         1 RES1    0.0000
@<TRIPOS>BOND
     1    1    7 2
     2    2    7 2
     3    3   20 2
     4    4   20 1
     5    5   22 2
     6    6   22 1
     7    7    8 1
     8    8    9 1
     9    9   10 1
    10   10   11 1
    11   11   12 1
    12   12    8 1
    13   13   12 2
    14   14    9 1
    15   15   14 ar
    16   16   15 ar
    17   17   16 ar
    18   18   17 ar
    19   19   14 ar
    20   20   10 1
    21   21    4 1
    22   22   10 1
    23   23    6 1
    24   24    8 1
    25   25    9 1
    26   26   15 1
    27   27   16 1
    28   28   17 1
    29   29   18 1
    30   30   19 1
    31   31   11 1
    32   32   11 1
    33   33   13 1
    34   34   13 1
    35   35   21 1
    36   36   21 1
    37   37   21 1
    38   38   23 1
    39   39   23 1
    40   40   23 1
    41   41   24 1
    42   42   24 1
    43   43   24 1
    44   18   19 ar
@<TRIPOS>SUBSTRUCTURE
     1 RES1 1

@<TRIPOS>CRYSIN
  13.8120    7.0353   18.0400  90.0000  97.0050  90.0000  14 1

