# MOL2 file generated by ConQuest
# Please check atom types

@<TRIPOS>MOLECULE
DUVVOG
    64    65     1
SMALL
NO_CHARGES
****
Generated from CSD

@<TRIPOS>ATOM
      1 O1         9.2195    6.3902   30.3489 O.3       1 RES1    0.0000
      2 O2         7.4266    7.1066   26.6991 O.2       1 RES1    0.0000
      3 O3         9.5833    7.3773   26.0280 O.3       1 RES1    0.0000
      4 O4        13.9374    6.0177   30.3404 O.2       1 RES1    0.0000
      5 O5        13.1603    7.8863   29.4040 O.3       1 RES1    0.0000
      6 O6        13.0697    7.0395   25.9380 O.2       1 RES1    0.0000
      7 O7        14.9016    7.0202   27.1904 O.3       1 RES1    0.0000
      8 O8         9.2682    2.9514   27.9092 O.2       1 RES1    0.0000
      9 O9         9.8301    4.2023   26.2821 O.2       1 RES1    0.0000
     10 N1         9.1550    6.7295   28.1210 N.am      1 RES1    0.0000
     11 N2         9.9891    3.7912   27.3899 N.pl3     1 RES1    0.0000
     12 C1         8.2785    6.7303   29.3327 C.3       1 RES1    0.0000
     13 C2        10.5794    6.8806   28.4835 C.3       1 RES1    0.0000
     14 H1        10.8916    7.7428   28.1381 H         1 RES1    0.0000
     15 C3        10.4556    6.9940   30.0143 C.3       1 RES1    0.0000
     16 H2        11.1894    6.5328   30.4490 H         1 RES1    0.0000
     17 H3        10.4658    7.9241   30.2880 H         1 RES1    0.0000
     18 C4        11.4728    5.7717   27.8884 C.3       1 RES1    0.0000
     19 H4        11.3421    5.8488   26.9195 H         1 RES1    0.0000
     20 C5        13.0236    5.9298   28.0854 C.3       1 RES1    0.0000
     21 C6        13.5872    4.4853   27.9979 C.3       1 RES1    0.0000
     22 H5        14.2785    4.4313   27.3204 H         1 RES1    0.0000
     23 H6        13.9663    4.2169   28.8484 H         1 RES1    0.0000
     24 C7        12.4380    3.6100   27.6409 C.2       1 RES1    0.0000
     25 C8        11.1924    4.2817   28.1955 C.3       1 RES1    0.0000
     26 C9         7.2377    5.6467   29.3099 C.3       1 RES1    0.0000
     27 H7         6.8222    5.5835   30.1743 H         1 RES1    0.0000
     28 H8         7.6533    4.8092   29.0915 H         1 RES1    0.0000
     29 H9         6.5729    5.8557   28.6495 H         1 RES1    0.0000
     30 C10        7.6774    8.1076   29.5947 C.3       1 RES1    0.0000
     31 H10        8.3828    8.7508   29.6945 H         1 RES1    0.0000
     32 H11        7.1519    8.0799   30.3985 H         1 RES1    0.0000
     33 H12        7.1179    8.3583   28.8547 H         1 RES1    0.0000
     34 C11        8.6184    7.0842   26.9113 C.2       1 RES1    0.0000
     35 C12        9.2381    7.6788   24.6177 C.3       1 RES1    0.0000
     36 C13        8.5697    6.4650   23.9939 C.3       1 RES1    0.0000
     37 H13        7.7320    6.2992   24.4318 H         1 RES1    0.0000
     38 H14        9.1398    5.6992   24.0940 H         1 RES1    0.0000
     39 H15        8.4144    6.6285   23.0617 H         1 RES1    0.0000
     40 C14        8.3789    8.9220   24.5524 C.3       1 RES1    0.0000
     41 H16        8.7839    9.6184   25.0727 H         1 RES1    0.0000
     42 H17        7.5060    8.7261   24.9022 H         1 RES1    0.0000
     43 H18        8.3006    9.2089   23.6394 H         1 RES1    0.0000
     44 C15       10.5936    7.9187   23.9980 C.3       1 RES1    0.0000
     45 H19       11.1464    7.1436   24.1256 H         1 RES1    0.0000
     46 H20       11.0056    8.6791   24.4160 H         1 RES1    0.0000
     47 H21       10.4900    8.0853   23.0585 H         1 RES1    0.0000
     48 C16       11.0027    3.8930   29.6610 C.3       1 RES1    0.0000
     49 H22       10.8744    2.9437   29.7260 H         1 RES1    0.0000
     50 H23       10.2333    4.3449   30.0165 H         1 RES1    0.0000
     51 H24       11.7806    4.1460   30.1617 H         1 RES1    0.0000
     52 C17       12.4894    2.4825   26.9675 C.2       1 RES1    0.0000
     53 H25       13.3065    2.1601   26.6638 H         1 RES1    0.0000
     54 H26       11.7094    2.0074   26.7964 H         1 RES1    0.0000
     55 C18       13.4412    6.5868   29.4103 C.2       1 RES1    0.0000
     56 C19       13.4492    8.6228   30.6112 C.3       1 RES1    0.0000
     57 H27       14.3539    8.4516   30.8815 H         1 RES1    0.0000
     58 H28       12.8494    8.3436   31.3077 H         1 RES1    0.0000
     59 H29       13.3350    9.5613   30.4490 H         1 RES1    0.0000
     60 C20       13.6286    6.7441   26.9400 C.2       1 RES1    0.0000
     61 C21       15.6433    7.6842   26.1372 C.3       1 RES1    0.0000
     62 H30       15.4717    8.6282   26.1713 H         1 RES1    0.0000
     63 H31       15.3673    7.3387   25.2842 H         1 RES1    0.0000
     64 H32       16.5829    7.5254   26.2597 H         1 RES1    0.0000
@<TRIPOS>BOND
     1    1   12 1
     2    2   34 2
     3    3   34 1
     4    4   55 2
     5    5   55 1
     6    6   60 2
     7    7   60 1
     8    8   11 2
     9    9   11 2
    10   10   12 1
    11   11   25 1
    12   12   26 1
    13   13   10 1
    14   14   13 1
    15   15    1 1
    16   16   15 1
    17   17   15 1
    18   18   13 1
    19   19   18 1
    20   20   18 1
    21   21   20 1
    22   22   21 1
    23   23   21 1
    24   24   21 1
    25   25   18 1
    26   26   27 1
    27   28   26 1
    28   29   26 1
    29   30   12 1
    30   31   30 1
    31   32   30 1
    32   33   30 1
    33   34   10 1
    34   35    3 1
    35   36   35 1
    36   37   36 1
    37   38   36 1
    38   39   36 1
    39   40   35 1
    40   41   40 1
    41   42   40 1
    42   43   40 1
    43   44   35 1
    44   45   44 1
    45   46   44 1
    46   47   44 1
    47   48   25 1
    48   49   48 1
    49   50   48 1
    50   51   48 1
    51   52   24 2
    52   53   52 1
    53   54   52 1
    54   55   20 1
    55   56    5 1
    56   57   56 1
    57   58   56 1
    58   59   56 1
    59   60   20 1
    60   61    7 1
    61   62   61 1
    62   63   61 1
    63   64   61 1
    64   13   15 1
    65   24   25 1
@<TRIPOS>SUBSTRUCTURE
     1 RES1 1

@<TRIPOS>CRYSIN
  19.0210    7.7120   31.8140  90.0000  97.1050  90.0000  15 1

