# MOL2 file generated by ConQuest
# Please check atom types

@<TRIPOS>MOLECULE
DUWKOX
    47    50     1
SMALL
USER_CHARGES
****
Generated from CSD

@<TRIPOS>ATOM
      1 N1         5.3437    5.1526    1.5923 N.pl3     1 RES1    0.0000
      2 H1         5.5460    4.9534    0.7806 H         1 RES1    0.0000
      3 N2         3.9790    8.6587    1.8379 N.4       1 RES1    1.0000
      4 O1         3.1501    9.4668    1.0524 O.2       1 RES1   -1.0000
      5 O2         9.3875    8.3153    0.5277 O.3       1 RES1    0.0000
      6 H2        10.1023    8.6345    0.7734 H         1 RES1    0.0000
      7 C1         4.7703    6.3271    2.0216 C.2       1 RES1    0.0000
      8 C2         4.2766    7.3724    1.0626 C.3       1 RES1    0.0000
      9 H3         3.4269    7.0516    0.6953 H         1 RES1    0.0000
     10 C3         3.2099    8.3443    3.1094 C.3       1 RES1    0.0000
     11 H4         2.3855    7.8919    2.8720 H         1 RES1    0.0000
     12 H5         2.9727    9.1776    3.5449 H         1 RES1    0.0000
     13 C4         3.9791    7.4747    4.0993 C.3       1 RES1    0.0000
     14 H6         4.6608    8.0050    4.5400 H         1 RES1    0.0000
     15 H7         3.3734    7.1359    4.7768 H         1 RES1    0.0000
     16 C5         4.6176    6.3319    3.3763 C.2       1 RES1    0.0000
     17 C6         5.1063    5.0655    3.8484 C.ar      1 RES1    0.0000
     18 C7         5.1770    4.4520    5.1081 C.ar      1 RES1    0.0000
     19 H8         4.9110    4.9081    5.8732 H         1 RES1    0.0000
     20 C8         5.6515    3.1530    5.1892 C.ar      1 RES1    0.0000
     21 H9         5.6876    2.7318    6.0177 H         1 RES1    0.0000
     22 C9         6.0774    2.4608    4.0498 C.ar      1 RES1    0.0000
     23 H10        6.3997    1.5932    4.1371 H         1 RES1    0.0000
     24 C10        6.0278    3.0455    2.7898 C.ar      1 RES1    0.0000
     25 H11        6.3120    2.5857    2.0331 H         1 RES1    0.0000
     26 C11        5.5347    4.3517    2.7030 C.ar      1 RES1    0.0000
     27 C12        5.2062    7.6477   -0.1200 C.3       1 RES1    0.0000
     28 H12        4.7354    8.1881   -0.7734 H         1 RES1    0.0000
     29 H13        5.4386    6.8068   -0.5428 H         1 RES1    0.0000
     30 C13        6.4906    8.3704    0.2965 C.3       1 RES1    0.0000
     31 H14        6.9439    7.8086    0.9591 H         1 RES1    0.0000
     32 C14        6.1064    9.6802    0.9872 C.3       1 RES1    0.0000
     33 H15        6.9100   10.1464    1.2660 H         1 RES1    0.0000
     34 H16        5.6316   10.2483    0.3607 H         1 RES1    0.0000
     35 C15        5.2293    9.4171    2.1963 C.3       1 RES1    0.0000
     36 H17        5.7337    8.9091    2.8505 H         1 RES1    0.0000
     37 H18        4.9831   10.2637    2.6011 H         1 RES1    0.0000
     38 C16        7.3908   10.4041   -2.6369 C.2       1 RES1    0.0000
     39 C17        6.8574    9.3676   -2.0278 C.2       1 RES1    0.0000
     40 H19        6.0202    9.0932   -2.3265 H         1 RES1    0.0000
     41 C18        7.4660    8.5734   -0.8892 C.3       1 RES1    0.0000
     42 H20        7.6655    7.6821   -1.2436 H         1 RES1    0.0000
     43 C19        8.7935    9.1713   -0.4368 C.3       1 RES1    0.0000
     44 H21        9.3858    9.2712   -1.1978 H         1 RES1    0.0000
     45 H22        8.6450   10.0487   -0.0511 H         1 RES1    0.0000
     46 H23        6.9916   10.8716   -3.3646 H         1 RES1    0.0000
     47 H24        8.2461   10.7173   -2.3687 H         1 RES1    0.0000
@<TRIPOS>BOND
     1    1    2 1
     2    3    4 1
     3    5    6 1
     4    7    1 1
     5    8    3 1
     6    9    8 1
     7   10    3 1
     8   11   10 1
     9   12   10 1
    10   13   10 1
    11   14   13 1
    12   15   13 1
    13   16    7 2
    14   17   16 1
    15   18   17 ar
    16   19   18 1
    17   20   18 ar
    18   21   20 1
    19   22   20 ar
    20   23   22 1
    21   24   22 ar
    22   25   24 1
    23   26    1 1
    24   27    8 1
    25   28   27 1
    26   29   27 1
    27   30   27 1
    28   31   30 1
    29   32   30 1
    30   33   32 1
    31   34   32 1
    32   35    3 1
    33   36   35 1
    34   37   35 1
    35   38   39 2
    36   39   40 1
    37   41   30 1
    38   42   41 1
    39   43    5 1
    40   44   43 1
    41   45   43 1
    42   46   38 1
    43   47   38 1
    44    7    8 1
    45   13   16 1
    46   17   26 ar
    47   24   26 ar
    48   32   35 1
    49   39   41 1
    50   41   43 1
@<TRIPOS>SUBSTRUCTURE
     1 RES1 1

@<TRIPOS>CRYSIN
   8.6816   10.2853    9.6236  90.0000 111.2010  90.0000   4 1

