# MOL2 file generated by ConQuest
# Please check atom types

@<TRIPOS>MOLECULE
DUWRIW
    22    22     1
SMALL
NO_CHARGES
****
Generated from CSD

@<TRIPOS>ATOM
      1 C1         0.0504    3.7628   10.6217 C.2       1 RES1    0.0000
      2 N1        -0.8017    3.6442   11.8209 N.pl3     1 RES1    0.0000
      3 O1        -0.3051    3.1204   12.8166 O.2       1 RES1    0.0000
      4 O2        -1.9375    4.0943   11.7668 O.2       1 RES1    0.0000
      5 C2         1.3337    3.4089   10.6732 C.2       1 RES1    0.0000
      6 C3         2.2098    3.6330    9.4753 C.3       1 RES1    0.0000
      7 O3         2.5590    2.4005    8.8312 O.3       1 RES1    0.0000
      8 C4         1.5398    4.6470    8.5427 C.3       1 RES1    0.0000
      9 O4         1.6155    5.9505    9.1404 O.3       1 RES1    0.0000
     10 C5         0.0466    4.4052    8.3314 C.3       1 RES1    0.0000
     11 O5        -0.6498    4.3062    9.6144 O.3       1 RES1    0.0000
     12 C6        -0.3467    3.2175    7.4645 C.3       1 RES1    0.0000
     13 O6         0.0303    1.9542    8.0081 O.3       1 RES1    0.0000
     14 H1         1.7075    3.0028   11.4641 H         1 RES1    0.0000
     15 H2         3.0620    3.9757    9.7406 H         1 RES1    0.0000
     16 H3         1.8606    2.0607    8.6406 H         1 RES1    0.0000
     17 H4         2.0189    4.6199    7.7080 H         1 RES1    0.0000
     18 H5         2.3277    6.0691    9.4366 H         1 RES1    0.0000
     19 H6        -0.2994    5.2278    7.9398 H         1 RES1    0.0000
     20 H7        -1.2795    3.2614    7.2958 H         1 RES1    0.0000
     21 H8         0.0435    3.3268    6.5770 H         1 RES1    0.0000
     22 H9        -0.4589    1.7824    8.5878 H         1 RES1    0.0000
@<TRIPOS>BOND
     1    1    2 1
     2    2    3 2
     3    4    2 2
     4    5    1 2
     5    6    5 1
     6    7    6 1
     7    8    6 1
     8    9    8 1
     9   10    8 1
    10   11    1 1
    11   12   10 1
    12   13   12 1
    13   14    5 1
    14   15    6 1
    15   16    7 1
    16   17    8 1
    17   18    9 1
    18   19   10 1
    19   20   12 1
    20   21   12 1
    21   22   13 1
    22   10   11 1
@<TRIPOS>SUBSTRUCTURE
     1 RES1 1

@<TRIPOS>CRYSIN
   6.3030    9.3370   12.8810  90.0000  90.0000  90.0000  19 1

