# MOL2 file generated by ConQuest
# Please check atom types

@<TRIPOS>MOLECULE
DUXCEF
    39    42     1
SMALL
NO_CHARGES
****
Generated from CSD

@<TRIPOS>ATOM
      1 N1        -0.7350    5.7344   10.8718 N.am      1 RES1    0.0000
      2 N2        -0.7178    7.9159   10.2961 N.2       1 RES1    0.0000
      3 C1        -1.3231    7.7706   11.5462 C.ar      1 RES1    0.0000
      4 C2        -1.3228    6.4334   11.9366 C.ar      1 RES1    0.0000
      5 C3         0.3366    6.4655    8.6595 C.ar      1 RES1    0.0000
      6 O1        -3.3604   10.3839   13.9201 O.2       1 RES1    0.0000
      7 O2        -0.5663    3.7173   11.8785 O.2       1 RES1    0.0000
      8 C4        -0.3883    6.7167    9.9213 C.2       1 RES1    0.0000
      9 C5        -1.9009    8.7399   12.3414 C.ar      1 RES1    0.0000
     10 H1        -1.9121    9.6360   12.0952 H         1 RES1    0.0000
     11 N3        -3.1312    9.2731   14.3830 N.pl3     1 RES1    0.0000
     12 C6        -2.4597    8.3011   13.5219 C.ar      1 RES1    0.0000
     13 C7        -0.6427    4.3171   10.8366 C.2       1 RES1    0.0000
     14 O3        -3.4500    8.9388   15.5175 O.2       1 RES1    0.0000
     15 C8        -2.4529    6.9760   13.9203 C.ar      1 RES1    0.0000
     16 H2        -2.8364    6.7386   14.7340 H         1 RES1    0.0000
     17 C9         0.0905    2.5158    9.3491 C.ar      1 RES1    0.0000
     18 H3         0.6478    2.2257   10.0351 H         1 RES1    0.0000
     19 C10       -1.8868    6.0092   13.1308 C.ar      1 RES1    0.0000
     20 H4        -1.8810    5.1137   13.3829 H         1 RES1    0.0000
     21 C11       -1.5816    4.0280    8.5298 C.ar      1 RES1    0.0000
     22 H5        -2.1233    4.7740    8.6500 H         1 RES1    0.0000
     23 C12       -0.0812    7.1438    7.5244 C.ar      1 RES1    0.0000
     24 H6        -0.8310    7.6929    7.5642 H         1 RES1    0.0000
     25 C13       -0.7056    3.6330    9.5267 C.ar      1 RES1    0.0000
     26 C14       -1.6433    3.3047    7.3561 C.ar      1 RES1    0.0000
     27 H7        -2.2537    3.5413    6.6956 H         1 RES1    0.0000
     28 C15        1.4527    5.6520    8.5982 C.ar      1 RES1    0.0000
     29 H8         1.7461    5.2028    9.3578 H         1 RES1    0.0000
     30 C16        0.6042    7.0111    6.3440 C.ar      1 RES1    0.0000
     31 H9         0.3256    7.4765    5.5886 H         1 RES1    0.0000
     32 C17        2.1292    5.5104    7.4017 C.ar      1 RES1    0.0000
     33 H10        2.8743    4.9564    7.3529 H         1 RES1    0.0000
     34 C18       -0.8026    2.2352    7.1645 C.ar      1 RES1    0.0000
     35 H11       -0.8148    1.7770    6.3552 H         1 RES1    0.0000
     36 C19        0.0550    1.8382    8.1561 C.ar      1 RES1    0.0000
     37 H12        0.6143    1.1073    8.0208 H         1 RES1    0.0000
     38 C20        1.7037    6.1878    6.2811 C.ar      1 RES1    0.0000
     39 H13        2.1617    6.0877    5.4783 H         1 RES1    0.0000
@<TRIPOS>BOND
     1    1    4 1
     2    2    3 1
     3    3    4 ar
     4    4   19 ar
     5    5    8 1
     6    6   11 2
     7    7   13 2
     8    8    1 1
     9    9    3 ar
    10   10    9 1
    11   11   12 1
    12   12    9 ar
    13   13    1 1
    14   14   11 2
    15   15   12 ar
    16   16   15 1
    17   17   18 1
    18   19   15 ar
    19   20   19 1
    20   21   22 1
    21   23    5 ar
    22   24   23 1
    23   25   13 1
    24   26   21 ar
    25   27   26 1
    26   28    5 ar
    27   29   28 1
    28   30   23 ar
    29   31   30 1
    30   32   28 ar
    31   33   32 1
    32   34   26 ar
    33   35   34 1
    34   36   17 ar
    35   37   36 1
    36   38   30 ar
    37   39   38 1
    38    2    8 2
    39   17   25 ar
    40   21   25 ar
    41   32   38 ar
    42   34   36 ar
@<TRIPOS>SUBSTRUCTURE
     1 RES1 1

@<TRIPOS>CRYSIN
   7.9366    8.8982   12.0137  90.5370 102.1470  96.1630   2 1

