# MOL2 file generated by ConQuest
# Please check atom types

@<TRIPOS>MOLECULE
DUXDEH01
    42    45     1
SMALL
NO_CHARGES
****
Generated from CSD

@<TRIPOS>ATOM
      1 O1         2.7760    8.8921    8.7615 O.3       1 RES1    0.0000
      2 O2         4.7898   14.2882   11.1414 O.2       1 RES1    0.0000
      3 O3         5.6001   12.9288   12.6114 O.2       1 RES1    0.0000
      4 N1         0.7183    3.5332    4.5174 N.pl3     1 RES1    0.0000
      5 N2         4.9624   13.1534   11.5852 N.pl3     1 RES1    0.0000
      6 C1         0.3850    2.1600    4.6766 C.ar      1 RES1    0.0000
      7 C2         0.6023    1.3412    5.7595 C.ar      1 RES1    0.0000
      8 C3         0.1665    0.0250    5.6459 C.ar      1 RES1    0.0000
      9 C4        -0.4516   -0.4301    4.4838 C.ar      1 RES1    0.0000
     10 C5        -0.6451    0.3921    3.4045 C.ar      1 RES1    0.0000
     11 C6        -0.2181    1.7282    3.4763 C.ar      1 RES1    0.0000
     12 C7        -0.2524    2.8570    2.5809 C.ar      1 RES1    0.0000
     13 C8        -0.7368    3.0314    1.2829 C.ar      1 RES1    0.0000
     14 C9        -0.6146    4.2751    0.6769 C.ar      1 RES1    0.0000
     15 C10       -0.0258    5.3469    1.3635 C.ar      1 RES1    0.0000
     16 C11        0.4520    5.1983    2.6589 C.ar      1 RES1    0.0000
     17 C12        0.3233    3.9650    3.2319 C.ar      1 RES1    0.0000
     18 C13        1.2023    4.3252    5.4857 C.1       1 RES1    0.0000
     19 C14        1.6177    5.0506    6.3512 C.1       1 RES1    0.0000
     20 C15        2.0500    5.9005    7.3566 C.1       1 RES1    0.0000
     21 C16        2.4234    6.6510    8.2035 C.1       1 RES1    0.0000
     22 C17        2.9432    7.5500    9.2312 C.3       1 RES1    0.0000
     23 C18        3.3444    9.8845    9.5045 C.ar      1 RES1    0.0000
     24 C19        3.2789   11.1584    8.9460 C.ar      1 RES1    0.0000
     25 C20        3.8045   12.2336    9.6285 C.ar      1 RES1    0.0000
     26 C21        4.3863   12.0263   10.8670 C.ar      1 RES1    0.0000
     27 C22        4.4545   10.7758   11.4390 C.ar      1 RES1    0.0000
     28 C23        3.9347    9.6876   10.7621 C.ar      1 RES1    0.0000
     29 H1         1.0289    1.6591    6.5465 H         1 RES1    0.0000
     30 H2         0.2929   -0.5735    6.3708 H         1 RES1    0.0000
     31 H3        -0.7460   -1.3326    4.4384 H         1 RES1    0.0000
     32 H4        -1.0624    0.0622    2.6196 H         1 RES1    0.0000
     33 H5        -1.1448    2.3094    0.8215 H         1 RES1    0.0000
     34 H6        -0.9321    4.4003   -0.2118 H         1 RES1    0.0000
     35 H7         0.0474    6.1915    0.9352 H         1 RES1    0.0000
     36 H8         0.8508    5.9229    3.1260 H         1 RES1    0.0000
     37 H9         2.4485    7.4205   10.0806 H         1 RES1    0.0000
     38 H10        3.9012    7.3626    9.3934 H         1 RES1    0.0000
     39 H11        2.8731   11.2862    8.0965 H         1 RES1    0.0000
     40 H12        3.7682   13.1059    9.2539 H         1 RES1    0.0000
     41 H13        4.8553   10.6618   12.2921 H         1 RES1    0.0000
     42 H14        3.9771    8.8187   11.1450 H         1 RES1    0.0000
@<TRIPOS>BOND
     1    1   22 1
     2    2    5 2
     3    3    5 2
     4    4    6 1
     5    5   26 1
     6    6    7 ar
     7    7    8 ar
     8    8    9 ar
     9    9   10 ar
    10   10   11 ar
    11   11    6 ar
    12   12   11 1
    13   13   12 ar
    14   14   13 ar
    15   15   14 ar
    16   16   15 ar
    17   17    4 1
    18   18    4 1
    19   19   18 3
    20   20   19 1
    21   21   20 3
    22   22   21 1
    23   23    1 1
    24   24   23 ar
    25   25   24 ar
    26   26   25 ar
    27   27   26 ar
    28   28   23 ar
    29   29    7 1
    30   30    8 1
    31   31    9 1
    32   32   10 1
    33   33   13 1
    34   34   14 1
    35   35   15 1
    36   36   16 1
    37   37   22 1
    38   38   22 1
    39   39   24 1
    40   40   25 1
    41   41   27 1
    42   42   28 1
    43   12   17 ar
    44   16   17 ar
    45   27   28 ar
@<TRIPOS>SUBSTRUCTURE
     1 RES1 1

@<TRIPOS>CRYSIN
   3.8534    8.6365   51.6690  90.0000  90.0000  90.0000  19 1

