# MOL2 file generated by ConQuest
# Please check atom types

@<TRIPOS>MOLECULE
DUXFUY
    65    69     1
SMALL
NO_CHARGES
****
Generated from CSD

@<TRIPOS>ATOM
      1 O1         5.4839    0.5260    3.4605 O.3       1 RES1    0.0000
      2 O2         8.5444    0.9590    3.4795 O.3       1 RES1    0.0000
      3 O3         2.8572    0.8783    0.1720 O.2       1 RES1    0.0000
      4 O4         3.6106    3.0091    0.0934 O.3       1 RES1    0.0000
      5 O5         4.1515   -1.7633    1.8830 O.2       1 RES1    0.0000
      6 O6         2.6225   -0.6547    3.1000 O.3       1 RES1    0.0000
      7 N1         6.3080    1.7485    3.2294 N.3       1 RES1    0.0000
      8 C1         4.0189    4.9370    4.9693 C.ar      1 RES1    0.0000
      9 C2         2.7266    5.0987    4.5864 C.ar      1 RES1    0.0000
     10 H1         2.4299    4.6503    3.8029 H         1 RES1    0.0000
     11 C3         1.7905    5.9055    5.2974 C.ar      1 RES1    0.0000
     12 C4         0.4487    6.0106    4.8742 C.ar      1 RES1    0.0000
     13 H2         0.1791    5.5858    4.0688 H         1 RES1    0.0000
     14 C5        -0.4724    6.7141    5.6034 C.ar      1 RES1    0.0000
     15 H3        -1.3717    6.7795    5.3033 H         1 RES1    0.0000
     16 C6        -0.0802    7.3358    6.7935 C.ar      1 RES1    0.0000
     17 H4        -0.7208    7.8050    7.3146 H         1 RES1    0.0000
     18 C7         1.2228    7.2724    7.2130 C.ar      1 RES1    0.0000
     19 H5         1.4724    7.7153    8.0158 H         1 RES1    0.0000
     20 C8         2.2044    6.5651    6.4836 C.ar      1 RES1    0.0000
     21 C9         3.5999    6.4695    6.8950 C.ar      1 RES1    0.0000
     22 C10        4.0942    7.1564    8.0300 C.ar      1 RES1    0.0000
     23 H6         3.5098    7.7190    8.5239 H         1 RES1    0.0000
     24 C11        5.3966    7.0271    8.4312 C.ar      1 RES1    0.0000
     25 H7         5.7035    7.4917    9.2013 H         1 RES1    0.0000
     26 C12        6.2781    6.2111    7.7089 C.ar      1 RES1    0.0000
     27 H8         7.1806    6.1177    7.9920 H         1 RES1    0.0000
     28 C13        5.8336    5.5459    6.5889 C.ar      1 RES1    0.0000
     29 H9         6.4415    5.0048    6.0983 H         1 RES1    0.0000
     30 C14        4.5001    5.6502    6.1541 C.ar      1 RES1    0.0000
     31 C15        4.8830    3.9706    4.2604 C.2       1 RES1    0.0000
     32 H10        5.5152    3.4847    4.7770 H         1 RES1    0.0000
     33 C16        4.8405    3.7306    2.9520 C.2       1 RES1    0.0000
     34 H11        4.3261    4.3233    2.4172 H         1 RES1    0.0000
     35 C17        5.5448    2.5904    2.2462 C.3       1 RES1    0.0000
     36 C18        6.6107    3.0291    1.1982 C.3       1 RES1    0.0000
     37 H12        6.4383    2.5970    0.3247 H         1 RES1    0.0000
     38 H13        6.5965    4.0118    1.0763 H         1 RES1    0.0000
     39 C19        7.9681    2.5734    1.7707 C.3       1 RES1    0.0000
     40 C20        7.5539    1.3203    2.5567 C.3       1 RES1    0.0000
     41 H14        7.3689    0.5626    1.9315 H         1 RES1    0.0000
     42 C21        4.5495    0.5076    2.4765 C.2       1 RES1    0.0000
     43 C22        4.5085    1.5982    1.7151 C.2       1 RES1    0.0000
     44 C23        8.5551    3.6359    2.7074 C.3       1 RES1    0.0000
     45 H15        9.3924    3.3038    3.0946 H         1 RES1    0.0000
     46 H16        7.9159    3.8266    3.4264 H         1 RES1    0.0000
     47 H17        8.7321    4.4561    2.2003 H         1 RES1    0.0000
     48 C24        8.9756    2.2179    0.6797 C.3       1 RES1    0.0000
     49 H18        9.8065    1.9020    1.0931 H         1 RES1    0.0000
     50 H19        9.1626    3.0119    0.1358 H         1 RES1    0.0000
     51 H20        8.6051    1.5115    0.1106 H         1 RES1    0.0000
     52 C25        8.3138   -0.3088    4.0950 C.3       1 RES1    0.0000
     53 H21        9.0510   -0.5131    4.7070 H         1 RES1    0.0000
     54 H22        8.2604   -1.0024    3.4040 H         1 RES1    0.0000
     55 H23        7.4709   -0.2813    4.5951 H         1 RES1    0.0000
     56 C26        3.7569   -0.7717    2.4284 C.2       1 RES1    0.0000
     57 C27        1.7919   -1.8512    3.1543 C.3       1 RES1    0.0000
     58 H24        1.2237   -1.8188    3.9526 H         1 RES1    0.0000
     59 H25        2.3643   -2.6457    3.1926 H         1 RES1    0.0000
     60 H26        1.2270   -1.8941    2.3542 H         1 RES1    0.0000
     61 C28        3.5791    1.7552    0.5922 C.2       1 RES1    0.0000
     62 C29        2.7948    3.2144   -1.0811 C.3       1 RES1    0.0000
     63 H27        2.8667    4.1487   -1.3689 H         1 RES1    0.0000
     64 H28        1.8607    3.0088   -0.8692 H         1 RES1    0.0000
     65 H29        3.1039    2.6256   -1.8014 H         1 RES1    0.0000
@<TRIPOS>BOND
     1    1    7 1
     2    2   40 1
     3    3   61 2
     4    4   61 1
     5    5   56 2
     6    6   56 1
     7    7   35 1
     8    8    9 ar
     9    9   10 1
    10   11    9 ar
    11   12   11 ar
    12   13   12 1
    13   14   12 ar
    14   15   14 1
    15   16   14 ar
    16   17   16 1
    17   18   16 ar
    18   19   18 1
    19   20   11 ar
    20   21   20 ar
    21   22   21 ar
    22   23   22 1
    23   24   22 ar
    24   25   24 1
    25   26   24 ar
    26   27   26 1
    27   28   26 ar
    28   29   28 1
    29   30    8 ar
    30   31    8 1
    31   32   31 1
    32   33   31 2
    33   34   33 1
    34   35   33 1
    35   36   35 1
    36   37   36 1
    37   38   36 1
    38   39   36 1
    39   40    7 1
    40   41   40 1
    41   42    1 1
    42   43   35 1
    43   44   39 1
    44   45   44 1
    45   46   44 1
    46   47   44 1
    47   48   39 1
    48   49   48 1
    49   50   48 1
    50   51   48 1
    51   52    2 1
    52   53   52 1
    53   54   52 1
    54   55   52 1
    55   56   42 1
    56   57    6 1
    57   58   57 1
    58   59   57 1
    59   60   57 1
    60   61   43 1
    61   62    4 1
    62   63   62 1
    63   64   62 1
    64   65   62 1
    65   18   20 ar
    66   21   30 ar
    67   28   30 ar
    68   39   40 1
    69   42   43 2
@<TRIPOS>SUBSTRUCTURE
     1 RES1 1

@<TRIPOS>CRYSIN
   9.7709   10.1498   14.1963  86.6460  80.4300  63.5160   2 1

