# MOL2 file generated by ConQuest
# Please check atom types

@<TRIPOS>MOLECULE
DUXFIM
    49    52     1
SMALL
USER_CHARGES
****
Generated from CSD

@<TRIPOS>ATOM
      1 C1        -0.4216    8.3501   -0.0593 C.ar      1 RES1    0.0000
      2 C2        -1.1556   10.5243   -0.9835 C.ar      1 RES1    0.0000
      3 C3        -0.7006    7.7442   -1.3075 C.ar      1 RES1    0.0000
      4 C4        -0.6273    9.7526    0.1143 C.ar      1 RES1    0.0000
      5 O1        -1.4080    7.6161    4.9450 O.2       1 RES1   -1.0000
      6 O2        -0.4122    5.0257    6.0223 O.3       1 RES1    0.0000
      7 N1        -0.3664    6.9038    4.6023 N.pl3     1 RES1    1.0000
      8 C5        -1.1756    8.5473   -2.3995 C.ar      1 RES1    0.0000
      9 C6         0.1033    7.5175    1.0398 C.2       1 RES1    0.0000
     10 H1         0.8162    6.9206    0.8433 H         1 RES1    0.0000
     11 C7        -0.3610    7.5490    2.2997 C.2       1 RES1    0.0000
     12 H2        -1.1027    8.1155    2.4774 H         1 RES1    0.0000
     13 C8        -1.3991    9.9118   -2.2062 C.ar      1 RES1    0.0000
     14 H3        -1.7265   10.4343   -2.9292 H         1 RES1    0.0000
     15 C9        -1.4090   11.9211   -0.7930 C.ar      1 RES1    0.0000
     16 H4        -1.7920   12.4272   -1.5006 H         1 RES1    0.0000
     17 C10       -0.2818   10.4630    1.3031 C.ar      1 RES1    0.0000
     18 H5         0.1223    9.9916    2.0230 H         1 RES1    0.0000
     19 C11        0.1736    6.7952    3.4009 C.2       1 RES1    0.0000
     20 C12       -0.5389    6.3469   -1.5346 C.ar      1 RES1    0.0000
     21 H6        -0.2487    5.7886   -0.8223 H         1 RES1    0.0000
     22 C13       -0.7927    5.7964   -2.7592 C.ar      1 RES1    0.0000
     23 H7        -0.6662    4.8644   -2.8912 H         1 RES1    0.0000
     24 C14       -1.1118   12.5353    0.3837 C.ar      1 RES1    0.0000
     25 H8        -1.3046   13.4589    0.4989 H         1 RES1    0.0000
     26 C15        0.3531    6.1052    5.6402 C.3       1 RES1    0.0000
     27 H9         0.5470    6.6801    6.4345 H         1 RES1    0.0000
     28 C16       -0.5163   11.8029    1.4342 C.ar      1 RES1    0.0000
     29 H10       -0.2770   12.2468    2.2391 H         1 RES1    0.0000
     30 C17       -1.4426    7.9255   -3.6567 C.ar      1 RES1    0.0000
     31 H11       -1.7643    8.4500   -4.3800 H         1 RES1    0.0000
     32 C18        1.3192    5.8578    3.4296 C.3       1 RES1    0.0000
     33 H12        2.0842    6.2195    2.9161 H         1 RES1    0.0000
     34 H13        1.0658    4.9789    3.0509 H         1 RES1    0.0000
     35 C19       -1.2433    6.6003   -3.8334 C.ar      1 RES1    0.0000
     36 H14       -1.4065    6.2072   -4.6825 H         1 RES1    0.0000
     37 C20        1.6742    5.7305    4.9326 C.3       1 RES1    0.0000
     38 C21        2.7145    6.7932    5.2979 C.3       1 RES1    0.0000
     39 H15        2.9385    6.7172    6.2485 H         1 RES1    0.0000
     40 H16        2.3482    7.6835    5.1185 H         1 RES1    0.0000
     41 H17        3.5229    6.6575    4.7597 H         1 RES1    0.0000
     42 C22        2.1786    4.3433    5.2974 C.3       1 RES1    0.0000
     43 H18        2.3862    4.3124    6.2551 H         1 RES1    0.0000
     44 H19        2.9865    4.1432    4.7807 H         1 RES1    0.0000
     45 H20        1.4866    3.6793    5.0923 H         1 RES1    0.0000
     46 C23       -1.3529    5.3100    7.0748 C.3       1 RES1    0.0000
     47 H21       -1.8608    4.4993    7.2869 H         1 RES1    0.0000
     48 H22       -1.9681    6.0143    6.7815 H         1 RES1    0.0000
     49 H23       -0.8691    5.6108    7.8722 H         1 RES1    0.0000
@<TRIPOS>BOND
     1    1    3 ar
     2    2    4 ar
     3    3    8 ar
     4    4    1 ar
     5    5    7 1
     6    6   26 1
     7    7   19 2
     8    8   13 ar
     9    9    1 1
    10   10    9 1
    11   11    9 2
    12   12   11 1
    13   13    2 ar
    14   14   13 1
    15   15    2 ar
    16   16   15 1
    17   17    4 ar
    18   18   17 1
    19   19   11 1
    20   20    3 ar
    21   21   20 1
    22   22   20 ar
    23   23   22 1
    24   24   15 ar
    25   25   24 1
    26   26    7 1
    27   27   26 1
    28   28   17 ar
    29   29   28 1
    30   30    8 ar
    31   31   30 1
    32   32   19 1
    33   33   32 1
    34   34   32 1
    35   35   22 ar
    36   36   35 1
    37   37   26 1
    38   38   37 1
    39   39   38 1
    40   40   38 1
    41   41   38 1
    42   42   37 1
    43   43   42 1
    44   44   42 1
    45   45   42 1
    46   46    6 1
    47   47   46 1
    48   48   46 1
    49   49   46 1
    50   24   28 ar
    51   30   35 ar
    52   32   37 1
@<TRIPOS>SUBSTRUCTURE
     1 RES1 1

@<TRIPOS>CRYSIN
   7.5459    9.6662   13.6975  98.5530 101.8500 105.1600   2 1

