# MOL2 file generated by ConQuest
# Please check atom types

@<TRIPOS>MOLECULE
DUXTIZ01
    10     9     1
SMALL
NO_CHARGES
****
Generated from CSD

@<TRIPOS>ATOM
      1 C1        -0.2581   -0.3454    0.6305 C.2       1 RES1    0.0000
      2 O1         0.2200   -0.6627    2.8918 O.3       1 RES1    0.0000
      3 N1         0.4831   -0.0468    1.6800 N.am      1 RES1    0.0000
      4 O2        -1.2541   -1.0684    0.6123 O.2       1 RES1    0.0000
      5 H1        -0.1801   -0.0696    3.3877 H         1 RES1    0.0000
      6 C1B        0.2581    0.3454   -0.6305 C.2       1 RES1    0.0000
      7 N1B       -0.4831    0.0468   -1.6800 N.am      1 RES1    0.0000
      8 O2B        1.2541    1.0684   -0.6123 O.2       1 RES1    0.0000
      9 O1B       -0.2200    0.6627   -2.8918 O.3       1 RES1    0.0000
     10 H1B        0.1801    0.0696   -3.3877 H         1 RES1    0.0000
@<TRIPOS>BOND
     1    1    3 1
     2    2    3 1
     3    4    1 2
     4    5    2 1
     5    6    1 1
     6    7    6 1
     7    8    6 2
     8    9    7 1
     9   10    9 1
@<TRIPOS>SUBSTRUCTURE
     1 RES1 1

@<TRIPOS>CRYSIN
   5.2080    3.8640   11.4820  90.0000 111.4500  90.0000  14 1

