# MOL2 file generated by ConQuest
# Please check atom types

@<TRIPOS>MOLECULE
DUYGIO
    50    51     1
SMALL
USER_CHARGES
****
Generated from CSD

@<TRIPOS>ATOM
      1 O1        -0.5263   -1.2205    8.0559 O.2       1 RES1   -1.0000
      2 O2         3.8908    0.6049    4.8052 O.2       1 RES1    0.0000
      3 N1         0.7360   -1.7895    8.2121 N.4       1 RES1    1.0000
      4 N2         2.1189    1.5357    5.8906 N.am      1 RES1    0.0000
      5 H1         1.3175    1.8600    5.7937 H         1 RES1    0.0000
      6 C1         0.7699   -3.1284    7.5545 C.3       1 RES1    0.0000
      7 H2         0.0996   -3.7119    7.9676 H         1 RES1    0.0000
      8 H3         1.6601   -3.5243    7.6644 H         1 RES1    0.0000
      9 H4         0.5732   -3.0282    6.6004 H         1 RES1    0.0000
     10 C2         1.0366   -1.9441    9.6605 C.3       1 RES1    0.0000
     11 H5         0.9431   -1.0769   10.1091 H         1 RES1    0.0000
     12 H6         1.9541   -2.2712    9.7707 H         1 RES1    0.0000
     13 H7         0.4108   -2.5853   10.0577 H         1 RES1    0.0000
     14 C3         1.7719   -0.9118    7.5553 C.3       1 RES1    0.0000
     15 H8         1.5827   -0.8647    6.5842 H         1 RES1    0.0000
     16 H9         2.6625   -1.3289    7.6671 H         1 RES1    0.0000
     17 C4         1.8164    0.4920    8.1130 C.3       1 RES1    0.0000
     18 H10        2.1873    0.4707    9.0316 H         1 RES1    0.0000
     19 H11        0.8977    0.8566    8.1626 H         1 RES1    0.0000
     20 C5         2.6794    1.4005    7.2356 C.3       1 RES1    0.0000
     21 H12        2.7450    2.2948    7.6536 H         1 RES1    0.0000
     22 H13        3.5930    1.0246    7.1744 H         1 RES1    0.0000
     23 C6         2.7550    1.0884    4.7963 C.2       1 RES1    0.0000
     24 C7         1.9631    1.1767    3.5038 C.3       1 RES1    0.0000
     25 H14        1.1520    1.7222    3.6576 H         1 RES1    0.0000
     26 H15        1.6713    0.2684    3.2407 H         1 RES1    0.0000
     27 C8         2.7742    1.7971    2.3535 C.3       1 RES1    0.0000
     28 H16        3.6485    1.3126    2.3229 H         1 RES1    0.0000
     29 C9         3.0939    3.2709    2.5525 C.ar      1 RES1    0.0000
     30 C10        2.3779    4.1035    3.4204 C.ar      1 RES1    0.0000
     31 H17        1.6532    3.7527    3.9256 H         1 RES1    0.0000
     32 C11        2.7279    5.4513    3.5469 C.ar      1 RES1    0.0000
     33 H18        2.2399    6.0076    4.1422 H         1 RES1    0.0000
     34 C12        3.7730    5.9869    2.8180 C.ar      1 RES1    0.0000
     35 H19        4.0091    6.9017    2.9185 H         1 RES1    0.0000
     36 C13        4.4772    5.1698    1.9352 C.ar      1 RES1    0.0000
     37 H20        5.1858    5.5319    1.4159 H         1 RES1    0.0000
     38 C14        4.1434    3.8263    1.8128 C.ar      1 RES1    0.0000
     39 H21        4.6365    3.2754    1.2156 H         1 RES1    0.0000
     40 C15        2.0762    1.5353    1.0223 C.ar      1 RES1    0.0000
     41 C16        1.0548    2.3493    0.5542 C.ar      1 RES1    0.0000
     42 H22        0.7832    3.1058    1.0613 H         1 RES1    0.0000
     43 C17        0.4249    2.0640   -0.6552 C.ar      1 RES1    0.0000
     44 H23       -0.2807    2.6203   -0.9638 H         1 RES1    0.0000
     45 C18        0.8196    0.9765   -1.4086 C.ar      1 RES1    0.0000
     46 H24        0.4060    0.8011   -2.2471 H         1 RES1    0.0000
     47 C19        1.8143    0.1470   -0.9430 C.ar      1 RES1    0.0000
     48 H25        2.0741   -0.6143   -1.4484 H         1 RES1    0.0000
     49 C20        2.4371    0.4255    0.2661 C.ar      1 RES1    0.0000
     50 H26        3.1214   -0.1526    0.5821 H         1 RES1    0.0000
@<TRIPOS>BOND
     1    1    3 1
     2    2   23 2
     3    3    6 1
     4    4    5 1
     5    6    7 1
     6    8    6 1
     7    9    6 1
     8   10    3 1
     9   11   10 1
    10   12   10 1
    11   13   10 1
    12   14    3 1
    13   15   14 1
    14   16   14 1
    15   17   14 1
    16   18   17 1
    17   19   17 1
    18   20    4 1
    19   21   20 1
    20   22   20 1
    21   23    4 1
    22   24   23 1
    23   25   24 1
    24   26   24 1
    25   27   24 1
    26   28   27 1
    27   29   27 1
    28   30   29 ar
    29   31   30 1
    30   32   30 ar
    31   33   32 1
    32   34   32 ar
    33   35   34 1
    34   36   34 ar
    35   37   36 1
    36   38   29 ar
    37   39   38 1
    38   40   27 1
    39   41   40 ar
    40   42   41 1
    41   43   41 ar
    42   44   43 1
    43   45   43 ar
    44   46   45 1
    45   47   45 ar
    46   48   47 1
    47   49   40 ar
    48   50   49 1
    49   17   20 1
    50   36   38 ar
    51   47   49 ar
@<TRIPOS>SUBSTRUCTURE
     1 RES1 1

@<TRIPOS>CRYSIN
   8.5108    8.1580   27.1180  90.0000  93.2950  90.0000  14 1

