# MOL2 file generated by ConQuest
# Please check atom types

@<TRIPOS>MOLECULE
DUYGAG
    64    64     1
SMALL
USER_CHARGES
****
Generated from CSD

@<TRIPOS>ATOM
      1 O1         4.3009   14.5130    5.5375 O.2       1 RES1   -1.0000
      2 O2         5.0177    9.2659    1.6733 O.2       1 RES1    0.0000
      3 N1         3.8987   13.2595    5.9773 N.4       1 RES1    1.0000
      4 N2         5.3368   11.4200    2.2935 N.am      1 RES1    0.0000
      5 H1         5.2492   12.2716    2.0864 H         1 RES1    0.0000
      6 C1         4.5656   12.9169    7.2685 C.3       1 RES1    0.0000
      7 H2         5.5220   13.1214    7.2060 H         1 RES1    0.0000
      8 H3         4.4465   11.9625    7.4542 H         1 RES1    0.0000
      9 H4         4.1661   13.4438    7.9923 H         1 RES1    0.0000
     10 C2         2.4302   13.2725    6.1854 C.3       1 RES1    0.0000
     11 H5         2.2056   13.9123    6.8927 H         1 RES1    0.0000
     12 H6         2.1287   12.3779    6.4483 H         1 RES1    0.0000
     13 H7         1.9846   13.5349    5.3531 H         1 RES1    0.0000
     14 C3         4.2159   12.2256    4.9304 C.3       1 RES1    0.0000
     15 H8         3.7573   12.4727    4.0886 H         1 RES1    0.0000
     16 H9         3.8552   11.3517    5.2246 H         1 RES1    0.0000
     17 C4         5.6997   12.0744    4.6544 C.3       1 RES1    0.0000
     18 H10        6.1627   11.7918    5.4824 H         1 RES1    0.0000
     19 H11        6.0742   12.9488    4.3767 H         1 RES1    0.0000
     20 C5         5.9472   11.0430    3.5557 C.3       1 RES1    0.0000
     21 H12        6.9231   10.9364    3.4247 H         1 RES1    0.0000
     22 H13        5.5818   10.1682    3.8438 H         1 RES1    0.0000
     23 C6         4.9026   10.4722    1.4363 C.2       1 RES1    0.0000
     24 C7         4.2590   10.9902    0.1701 C.3       1 RES1    0.0000
     25 H14        4.7520   10.6177   -0.6032 H         1 RES1    0.0000
     26 H15        4.3699   11.9739    0.1458 H         1 RES1    0.0000
     27 C8         2.7389   10.6642   -0.0148 C.3       1 RES1    0.0000
     28 C9         1.9129   11.1710    1.1933 C.3       1 RES1    0.0000
     29 H16        2.2311   12.0820    1.4120 H         1 RES1    0.0000
     30 H17        0.9718   11.2550    0.8983 H         1 RES1    0.0000
     31 C10        1.9208   10.3556    2.4882 C.3       1 RES1    0.0000
     32 H18        1.6424    9.4266    2.2921 H         1 RES1    0.0000
     33 H19        2.8413   10.3294    2.8527 H         1 RES1    0.0000
     34 C11        0.9834   10.9544    3.5262 C.3       1 RES1    0.0000
     35 H20        1.2352   11.8866    3.6937 H         1 RES1    0.0000
     36 H21        1.0498   10.4432    4.3594 H         1 RES1    0.0000
     37 H22        0.0626   10.9193    3.1938 H         1 RES1    0.0000
     38 C12        2.5306    9.1429   -0.1823 C.3       1 RES1    0.0000
     39 H23        2.8472    8.6964    0.6431 H         1 RES1    0.0000
     40 H24        1.5575    8.9714   -0.2534 H         1 RES1    0.0000
     41 C13        3.2177    8.4805   -1.3739 C.3       1 RES1    0.0000
     42 H25        4.1966    8.4764   -1.2220 H         1 RES1    0.0000
     43 H26        3.0397    9.0150   -2.1888 H         1 RES1    0.0000
     44 C14        2.7395    7.0479   -1.5995 C.3       1 RES1    0.0000
     45 H27        2.8519    6.5322   -0.7733 H         1 RES1    0.0000
     46 H28        3.2665    6.6366   -2.3155 H         1 RES1    0.0000
     47 H29        1.7926    7.0557   -1.8529 H         1 RES1    0.0000
     48 C15        2.2720   11.4272   -1.3070 C.3       1 RES1    0.0000
     49 H30        2.9623   11.2474   -2.0083 H         1 RES1    0.0000
     50 C16        2.1936   12.9520   -1.1551 C.3       1 RES1    0.0000
     51 H31        1.4952   13.1783   -0.4912 H         1 RES1    0.0000
     52 H32        3.0585   13.2921   -0.8141 H         1 RES1    0.0000
     53 C17        1.8686   13.6413   -2.4865 C.3       1 RES1    0.0000
     54 H33        1.8068   14.6198   -2.3424 H         1 RES1    0.0000
     55 H34        2.6020   13.4723   -3.1296 H         1 RES1    0.0000
     56 C18        0.5579   13.1331   -3.0714 C.3       1 RES1    0.0000
     57 H35       -0.1923   13.3907   -2.4787 H         1 RES1    0.0000
     58 H36        0.4069   13.5481   -3.9575 H         1 RES1    0.0000
     59 C19        0.5980   11.6207   -3.2164 C.3       1 RES1    0.0000
     60 H37        1.2808   11.3726   -3.8890 H         1 RES1    0.0000
     61 H38       -0.2802   11.2986   -3.5392 H         1 RES1    0.0000
     62 C20        0.9301   10.9402   -1.8807 C.3       1 RES1    0.0000
     63 H39        0.9694    9.9596   -2.0152 H         1 RES1    0.0000
     64 H40        0.2086   11.1298   -1.2298 H         1 RES1    0.0000
@<TRIPOS>BOND
     1    1    3 1
     2    2   23 2
     3    3    6 1
     4    4    5 1
     5    6    7 1
     6    8    6 1
     7    9    6 1
     8   10    3 1
     9   11   10 1
    10   12   10 1
    11   13   10 1
    12   14    3 1
    13   15   14 1
    14   16   14 1
    15   17   14 1
    16   18   17 1
    17   19   17 1
    18   20    4 1
    19   21   20 1
    20   22   20 1
    21   23    4 1
    22   24   23 1
    23   25   24 1
    24   26   24 1
    25   27   24 1
    26   28   27 1
    27   29   28 1
    28   30   28 1
    29   31   28 1
    30   32   31 1
    31   33   31 1
    32   34   31 1
    33   35   34 1
    34   36   34 1
    35   37   34 1
    36   38   27 1
    37   39   38 1
    38   40   38 1
    39   41   38 1
    40   42   41 1
    41   43   41 1
    42   44   41 1
    43   45   44 1
    44   46   44 1
    45   47   44 1
    46   48   27 1
    47   49   48 1
    48   50   48 1
    49   51   50 1
    50   52   50 1
    51   53   50 1
    52   54   53 1
    53   55   53 1
    54   56   53 1
    55   57   56 1
    56   58   56 1
    57   59   56 1
    58   60   59 1
    59   61   59 1
    60   62   48 1
    61   63   62 1
    62   64   62 1
    63   17   20 1
    64   59   62 1
@<TRIPOS>SUBSTRUCTURE
     1 RES1 1

@<TRIPOS>CRYSIN
  12.0640   18.9670    9.2297  90.0000 109.8960  90.0000  14 1

