# MOL2 file generated by ConQuest
# Please check atom types

@<TRIPOS>MOLECULE
DUYHAH
    70    62     2
SMALL
USER_CHARGES
****
Generated from CSD

@<TRIPOS>ATOM
      1 O1        19.2222    3.3298   -0.6440 O.2       1 RES1   -1.0000
      2 O2        20.7238    8.0208   -0.3884 O.2       1 RES1    0.0000
      3 O3        17.8481    6.1319    0.3642 O.3       1 RES1    0.0000
      4 N1        19.5004    2.7217   -1.8656 N.4       1 RES1    1.0000
      5 N2        20.1868    5.8552   -0.8214 N.am      1 RES1    0.0000
      6 H1        19.5986    5.2106   -0.7028 H         1 RES1    0.0000
      7 C1        19.8793    1.3209   -1.6305 C.3       1 RES1    0.0000
      8 H2        19.1492    0.8586   -1.1666 H         1 RES1    0.0000
      9 H3        20.6894    1.2894   -1.0791 H         1 RES1    0.0000
     10 H4        20.0508    0.8806   -2.4893 H         1 RES1    0.0000
     11 C2        18.3016    2.7617   -2.7160 C.3       1 RES1    0.0000
     12 H5        17.5921    2.2260   -2.3049 H         1 RES1    0.0000
     13 H6        18.5158    2.3969   -3.6004 H         1 RES1    0.0000
     14 H7        17.9986    3.6893   -2.8101 H         1 RES1    0.0000
     15 C3        20.8541    3.1615   -2.4376 C.3       1 RES1    0.0000
     16 H8        21.5532    2.9456   -1.7706 H         1 RES1    0.0000
     17 H9        21.0385    2.6148   -3.2429 H         1 RES1    0.0000
     18 C4        21.0048    4.6249   -2.8195 C.3       1 RES1    0.0000
     19 H10       20.1560    4.9287   -3.2278 H         1 RES1    0.0000
     20 H11       21.7087    4.6948   -3.5129 H         1 RES1    0.0000
     21 C5        21.3694    5.6093   -1.6419 C.3       1 RES1    0.0000
     22 H12       22.0863    5.2136   -1.0857 H         1 RES1    0.0000
     23 H13       21.7031    6.4650   -2.0123 H         1 RES1    0.0000
     24 C6        19.9866    7.0372   -0.2530 C.2       1 RES1    0.0000
     25 C7        18.7777    7.1668    0.6522 C.3       1 RES1    0.0000
     26 H14       19.0611    7.1067    1.5984 H         1 RES1    0.0000
     27 H15       18.3495    8.0483    0.5127 H         1 RES1    0.0000
     28 C8        16.6328    6.1774    0.9961 C.ar      1 RES1    0.0000
     29 C9        15.6566    5.3391    0.4782 C.ar      1 RES1    0.0000
     30 H16       15.8606    4.7708   -0.2550 H         1 RES1    0.0000
     31 C10       14.3856    5.3285    1.0249 C.ar      1 RES1    0.0000
     32 H17       13.7222    4.7658    0.6416 H         1 RES1    0.0000
     33 C11       14.0477    6.1215    2.1253 C.ar      1 RES1    0.0000
     34 C12       15.0497    6.9502    2.6244 C.ar      1 RES1    0.0000
     35 H18       14.8536    7.5055    3.3699 H         1 RES1    0.0000
     36 C13       16.3254    6.9975    2.0756 C.ar      1 RES1    0.0000
     37 H19       16.9805    7.5845    2.4347 H         1 RES1    0.0000
     38 C14       12.6582    6.1007    2.7790 C.3       1 RES1    0.0000
     39 C15       12.1044    7.5367    2.8088 C.3       1 RES1    0.0000
     40 H20       12.0676    7.8914    1.8957 H         1 RES1    0.0000
     41 H21       12.6897    8.1013    3.3548 H         1 RES1    0.0000
     42 H22       11.2026    7.5315    3.1949 H         1 RES1    0.0000
     43 C16       11.6574    5.2662    1.9724 C.3       1 RES1    0.0000
     44 H23       10.7966    5.2446    2.4413 H         1 RES1    0.0000
     45 H24       11.9987    4.3530    1.8731 H         1 RES1    0.0000
     46 H25       11.5364    5.6674    1.0866 H         1 RES1    0.0000
     47 C17       12.7358    5.6596    4.2672 C.3       1 RES1    0.0000
     48 H26       13.3563    6.2891    4.7124 H         1 RES1    0.0000
     49 H27       11.8399    5.8273    4.6550 H         1 RES1    0.0000
     50 C18       13.1499    4.2420    4.7272 C.3       1 RES1    0.0000
     51 C19       14.4879    3.7868    4.1563 C.3       1 RES1    0.0000
     52 H28       14.7357    2.9257    4.5524 H         1 RES1    0.0000
     53 H29       15.1756    4.4530    4.3652 H         1 RES1    0.0000
     54 H30       14.4109    3.6893    3.1846 H         1 RES1    0.0000
     55 C20       13.2919    4.3226    6.2559 C.3       1 RES1    0.0000
     56 H31       12.4349    4.5909    6.6495 H         1 RES1    0.0000
     57 H32       13.9772    4.9837    6.4858 H         1 RES1    0.0000
     58 H33       13.5523    3.4454    6.6062 H         1 RES1    0.0000
     59 C21       12.0763    3.1949    4.4160 C.3       1 RES1    0.0000
     60 H34       11.1962    3.5424    4.6729 H         1 RES1    0.0000
     61 H35       12.2635    2.3759    4.9203 H         1 RES1    0.0000
     62 H36       12.0811    2.9966    3.4564 H         1 RES1    0.0000
     63 C22       20.3806    3.6233   -2.7217 Du        2 SUP2    0.0000
     64 C23       21.5759    4.0971   -1.9192 Du        2 SUP2    0.0000
     65 H37       20.6913    3.1256   -3.5195 Du        2 SUP2    0.0000
     66 H38       19.8572    4.4040   -3.0303 Du        2 SUP2    0.0000
     67 H39       21.6378    3.5973   -1.0668 Du        2 SUP2    0.0000
     68 H40       22.4118    3.9522   -2.4291 Du        2 SUP2    0.0000
     69 H41       21.2028    6.0262   -2.5015 Du        2 SUP2    0.0000
     70 H42       22.1266    5.8913   -1.1045 Du        2 SUP2    0.0000
@<TRIPOS>BOND
     1    1    4 1
     2    2   24 2
     3    3   25 1
     4    4    7 1
     5    5    6 1
     6    7    8 1
     7    9    7 1
     8   10    7 1
     9   11    4 1
    10   12   11 1
    11   13   11 1
    12   14   11 1
    13   15    4 1
    14   16   15 1
    15   17   15 1
    16   18   15 1
    17   19   18 1
    18   20   18 1
    19   21    5 1
    20   22   21 1
    21   23   21 1
    22   24    5 1
    23   25   24 1
    24   26   25 1
    25   27   25 1
    26   28    3 1
    27   29   28 ar
    28   30   29 1
    29   31   29 ar
    30   32   31 1
    31   33   31 ar
    32   34   33 ar
    33   35   34 1
    34   36   28 ar
    35   37   36 1
    36   38   33 1
    37   39   38 1
    38   40   39 1
    39   41   39 1
    40   42   39 1
    41   43   38 1
    42   44   43 1
    43   45   43 1
    44   46   43 1
    45   47   38 1
    46   48   47 1
    47   49   47 1
    48   50   47 1
    49   51   50 1
    50   52   51 1
    51   53   51 1
    52   54   51 1
    53   55   50 1
    54   56   55 1
    55   57   55 1
    56   58   55 1
    57   59   50 1
    58   60   59 1
    59   61   59 1
    60   62   59 1
    61   18   21 1
    62   34   36 ar
@<TRIPOS>SUBSTRUCTURE
     1 RES1 1
     2 SUP2 63

@<TRIPOS>CRYSIN
  21.9485    9.9954    9.5235  90.0000  98.9390  90.0000  14 1

