# MOL2 file generated by ConQuest
# Please check atom types

@<TRIPOS>MOLECULE
DUYHUB
    76    76     1
SMALL
USER_CHARGES
****
Generated from CSD

@<TRIPOS>ATOM
      1 O1        17.5304   11.6480    4.4909 O.2       1 RES1   -1.0000
      2 O2        15.1800    5.9986    6.4525 O.2       1 RES1    0.0000
      3 N1        17.7474   10.2877    4.2648 N.4       1 RES1    1.0000
      4 N2        16.1729    7.7299    7.5206 N.am      1 RES1    0.0000
      5 H1        16.0705    8.4215    8.0547 H         1 RES1    0.0000
      6 C1        19.1450   10.1101    3.7907 C.3       1 RES1    0.0000
      7 H2        19.2964   10.6726    3.0032 H         1 RES1    0.0000
      8 H3        19.2924    9.1705    3.5543 H         1 RES1    0.0000
      9 H4        19.7669   10.3696    4.5019 H         1 RES1    0.0000
     10 C2        16.8093    9.8244    3.2027 C.3       1 RES1    0.0000
     11 H5        15.8865   10.0040    3.4798 H         1 RES1    0.0000
     12 H6        16.9257    8.8613    3.0619 H         1 RES1    0.0000
     13 H7        16.9993   10.3028    2.3690 H         1 RES1    0.0000
     14 C3        17.5072    9.5578    5.5538 C.3       1 RES1    0.0000
     15 H8        16.5971    9.7857    5.8703 H         1 RES1    0.0000
     16 H9        18.1469    9.9027    6.2253 H         1 RES1    0.0000
     17 C4        17.6296    8.0446    5.5195 C.3       1 RES1    0.0000
     18 H10       18.5132    7.7916    5.1503 H         1 RES1    0.0000
     19 H11       16.9294    7.6683    4.9285 H         1 RES1    0.0000
     20 C5        17.4771    7.4685    6.9246 C.3       1 RES1    0.0000
     21 H12       17.6221    6.4900    6.8867 H         1 RES1    0.0000
     22 H13       18.1788    7.8543    7.5065 H         1 RES1    0.0000
     23 C6        15.1252    6.9278    7.2637 C.2       1 RES1    0.0000
     24 C7        13.8838    7.2432    8.0742 C.3       1 RES1    0.0000
     25 H14       13.9860    8.1478    8.4627 H         1 RES1    0.0000
     26 H15       13.8306    6.6018    8.8263 H         1 RES1    0.0000
     27 C8        12.5491    7.1943    7.2985 C.3       1 RES1    0.0000
     28 C9        12.1610    5.7517    6.8862 C.3       1 RES1    0.0000
     29 H16       11.2430    5.7766    6.5174 H         1 RES1    0.0000
     30 H17       12.7652    5.4705    6.1538 H         1 RES1    0.0000
     31 C10       12.2040    4.6829    7.9657 C.3       1 RES1    0.0000
     32 H18       11.7876    5.0339    8.7919 H         1 RES1    0.0000
     33 H19       13.1459    4.4594    8.1692 H         1 RES1    0.0000
     34 C11       11.4638    3.4153    7.5206 C.3       1 RES1    0.0000
     35 H20       10.4896    3.5798    7.5752 H         1 RES1    0.0000
     36 H21       11.6837    3.2341    6.5732 H         1 RES1    0.0000
     37 C12       11.7970    2.1811    8.3432 C.3       1 RES1    0.0000
     38 H22       12.7377    1.9408    8.2050 H         1 RES1    0.0000
     39 H23       11.2240    1.4374    8.0619 H         1 RES1    0.0000
     40 H24       11.6439    2.3702    9.2929 H         1 RES1    0.0000
     41 C13       12.6862    7.9984    5.9811 C.3       1 RES1    0.0000
     42 H25       13.3604    7.5451    5.4151 H         1 RES1    0.0000
     43 H26       11.8216    7.9504    5.5025 H         1 RES1    0.0000
     44 C14       13.0798    9.4685    6.0946 C.3       1 RES1    0.0000
     45 H27       12.4234    9.9445    6.6634 H         1 RES1    0.0000
     46 H28       13.9698    9.5413    6.5231 H         1 RES1    0.0000
     47 C15       13.1238   10.1147    4.7196 C.3       1 RES1    0.0000
     48 H29       12.2180   10.0751    4.3215 H         1 RES1    0.0000
     49 H30       13.7276    9.5862    4.1412 H         1 RES1    0.0000
     50 C16       13.5927   11.5625    4.7189 C.3       1 RES1    0.0000
     51 H31       13.0434   12.0838    5.3407 H         1 RES1    0.0000
     52 H32       13.5070   11.9334    3.8162 H         1 RES1    0.0000
     53 H33       14.5315   11.6023    5.0000 H         1 RES1    0.0000
     54 C17       11.4180    7.8033    8.1483 C.ar      1 RES1    0.0000
     55 C18       11.5846    8.2903    9.4373 C.ar      1 RES1    0.0000
     56 H34       12.4296    8.2000    9.8612 H         1 RES1    0.0000
     57 C19       10.5401    8.9086   10.1260 C.ar      1 RES1    0.0000
     58 H35       10.6956    9.2352   11.0049 H         1 RES1    0.0000
     59 C20        9.2815    9.0591    9.5650 C.ar      1 RES1    0.0000
     60 C21        9.1053    8.5353    8.2819 C.ar      1 RES1    0.0000
     61 H36        8.2510    8.5980    7.8701 H         1 RES1    0.0000
     62 C22       10.1382    7.9298    7.5982 C.ar      1 RES1    0.0000
     63 H37        9.9749    7.5879    6.7263 H         1 RES1    0.0000
     64 C23        8.1193    9.7859   10.2613 C.3       1 RES1    0.0000
     65 C24        8.4884   10.2579   11.6658 C.3       1 RES1    0.0000
     66 H38        8.7205    9.4838   12.2202 H         1 RES1    0.0000
     67 H39        7.7262   10.7279   12.0628 H         1 RES1    0.0000
     68 H40        9.2564   10.8658   11.6147 H         1 RES1    0.0000
     69 C25        7.7261   11.0055    9.4195 C.3       1 RES1    0.0000
     70 H41        7.0431   11.5239    9.8941 H         1 RES1    0.0000
     71 H42        7.3672   10.7060    8.5586 H         1 RES1    0.0000
     72 H43        8.5165   11.5657    9.2672 H         1 RES1    0.0000
     73 C26        6.9127    8.8425   10.3623 C.3       1 RES1    0.0000
     74 H44        7.1602    8.0486   10.8818 H         1 RES1    0.0000
     75 H45        6.6345    8.5698    9.4633 H         1 RES1    0.0000
     76 H46        6.1716    9.3052   10.8074 H         1 RES1    0.0000
@<TRIPOS>BOND
     1    1    3 1
     2    2   23 2
     3    3    6 1
     4    4    5 1
     5    6    7 1
     6    8    6 1
     7    9    6 1
     8   10    3 1
     9   11   10 1
    10   12   10 1
    11   13   10 1
    12   14    3 1
    13   15   14 1
    14   16   14 1
    15   17   14 1
    16   18   17 1
    17   19   17 1
    18   20    4 1
    19   21   20 1
    20   22   20 1
    21   23    4 1
    22   24   23 1
    23   25   24 1
    24   26   24 1
    25   27   24 1
    26   28   27 1
    27   29   28 1
    28   30   28 1
    29   31   28 1
    30   32   31 1
    31   33   31 1
    32   34   31 1
    33   35   34 1
    34   36   34 1
    35   37   34 1
    36   38   37 1
    37   39   37 1
    38   40   37 1
    39   41   27 1
    40   42   41 1
    41   43   41 1
    42   44   41 1
    43   45   44 1
    44   46   44 1
    45   47   44 1
    46   48   47 1
    47   49   47 1
    48   50   47 1
    49   51   50 1
    50   52   50 1
    51   53   50 1
    52   54   27 1
    53   55   54 ar
    54   56   55 1
    55   57   55 ar
    56   58   57 1
    57   59   57 ar
    58   60   59 ar
    59   61   60 1
    60   62   54 ar
    61   63   62 1
    62   64   59 1
    63   65   64 1
    64   66   65 1
    65   67   65 1
    66   68   65 1
    67   69   64 1
    68   70   69 1
    69   71   69 1
    70   72   69 1
    71   73   64 1
    72   74   73 1
    73   75   73 1
    74   76   73 1
    75   17   20 1
    76   60   62 ar
@<TRIPOS>SUBSTRUCTURE
     1 RES1 1

@<TRIPOS>CRYSIN
  16.9160   10.4459   14.3157  90.0000  90.7680  90.0000  14 1

