# MOL2 file generated by ConQuest
# Please check atom types

@<TRIPOS>MOLECULE
DUYREU
    32    37     1
SMALL
NO_CHARGES
****
Generated from CSD

@<TRIPOS>ATOM
      1 C1        -0.6415    9.4842    3.6168 C.3       1 RES1    0.0000
      2 C2         0.7193   10.0181    3.1894 C.3       1 RES1    0.0000
      3 C3         1.6273    8.7960    3.4095 C.3       1 RES1    0.0000
      4 C4         2.9537    9.3047    3.9821 C.3       1 RES1    0.0000
      5 C5         3.3494    8.2849    5.0557 C.3       1 RES1    0.0000
      6 C6         1.9949    8.2490    5.7711 C.3       1 RES1    0.0000
      7 C7         0.9565    8.0563    4.6436 C.3       1 RES1    0.0000
      8 C8        -0.2596    8.9516    4.9925 C.3       1 RES1    0.0000
      9 C9         1.0801   10.9133    4.3895 C.3       1 RES1    0.0000
     10 C10        2.4780   10.4681    4.8766 C.3       1 RES1    0.0000
     11 C11        1.8146    9.7428    6.1107 C.3       1 RES1    0.0000
     12 C12        0.4105   10.1820    5.6201 C.3       1 RES1    0.0000
     13 O1        -0.6622    8.1413    1.6778 O.2       1 RES1    0.0000
     14 O2        -2.2590    7.9091    3.0864 O.2       1 RES1    0.0000
     15 O3        -2.0462   10.9636    2.5279 O.2       1 RES1    0.0000
     16 O4        -2.2259   10.8762    4.6600 O.2       1 RES1    0.0000
     17 O5         3.2656    6.4657    3.5641 O.2       1 RES1    0.0000
     18 O6         4.5771    6.3280    5.2442 O.2       1 RES1    0.0000
     19 N1        -1.2223    8.4214    2.7070 N.pl3     1 RES1    0.0000
     20 N2        -1.7297   10.5459    3.6156 N.pl3     1 RES1    0.0000
     21 N3         3.7668    6.9289    4.5663 N.pl3     1 RES1    0.0000
     22 H1         0.8213   10.4609    2.2715 H         1 RES1    0.0000
     23 H2         1.7598    8.1868    2.6110 H         1 RES1    0.0000
     24 H3         3.5954    9.5632    3.2667 H         1 RES1    0.0000
     25 H4         4.1283    8.5578    5.6669 H         1 RES1    0.0000
     26 H5         1.8883    7.6003    6.5685 H         1 RES1    0.0000
     27 H6         0.7223    7.0976    4.4727 H         1 RES1    0.0000
     28 H7        -1.0412    8.5459    5.5967 H         1 RES1    0.0000
     29 H8         0.9106   11.8972    4.2736 H         1 RES1    0.0000
     30 H9         3.1902   11.2030    4.9761 H         1 RES1    0.0000
     31 H10        2.0424   10.0300    7.0485 H         1 RES1    0.0000
     32 H11       -0.1818   10.7242    6.2523 H         1 RES1    0.0000
@<TRIPOS>BOND
     1    1    2 1
     2    2    3 1
     3    3    4 1
     4    4    5 1
     5    5    6 1
     6    6    7 1
     7    7    3 1
     8    8    1 1
     9    9    2 1
    10   10    4 1
    11   11    6 1
    12   12    8 1
    13   13   19 2
    14   14   19 2
    15   15   20 2
    16   16   20 2
    17   17   21 2
    18   18   21 2
    19   19    1 1
    20   20    1 1
    21   21    5 1
    22   22    2 1
    23   23    3 1
    24   24    4 1
    25   25    5 1
    26   26    6 1
    27   27    7 1
    28   28    8 1
    29   29    9 1
    30   30   10 1
    31   31   11 1
    32   32   12 1
    33    7    8 1
    34    9   10 1
    35    9   12 1
    36   10   11 1
    37   11   12 1
@<TRIPOS>SUBSTRUCTURE
     1 RES1 1

@<TRIPOS>CRYSIN
   8.2030   11.9690   12.3230  90.0000 108.1700  90.0000  14 1

