# MOL2 file generated by ConQuest
# Please check atom types

@<TRIPOS>MOLECULE
DUZFEK
    48    50     1
SMALL
NO_CHARGES
****
Generated from CSD

@<TRIPOS>ATOM
      1 N1         0.4004    2.8243    8.6918 N.am      1 RES1    0.0000
      2 N2         1.2835    3.8146    9.0761 N.2       1 RES1    0.0000
      3 N3         2.1718    1.8436    9.4366 N.am      1 RES1    0.0000
      4 N4         3.1162    0.8639    9.6818 N.am      1 RES1    0.0000
      5 N5         6.9618    6.0384   11.1499 N.pl3     1 RES1    0.0000
      6 O1         0.4467    0.4770    8.6914 O.2       1 RES1    0.0000
      7 O2         7.1953    7.1009   10.5956 O.2       1 RES1    0.0000
      8 O3         7.7010    5.5422   11.9802 O.2       1 RES1    0.0000
      9 O4         3.5685   -1.0253   10.7920 O.2       1 RES1    0.0000
     10 O5         1.9031    0.3326   11.4904 O.3       1 RES1    0.0000
     11 C1         0.9254    1.5734    8.8986 C.2       1 RES1    0.0000
     12 C2         2.3367    3.2137    9.5166 C.2       1 RES1    0.0000
     13 C3         3.5324    3.9114    9.9780 C.ar      1 RES1    0.0000
     14 C4         3.7468    5.2134    9.5321 C.ar      1 RES1    0.0000
     15 H1         3.1307    5.6104    8.9607 H         1 RES1    0.0000
     16 C5         4.8532    5.9136    9.9263 C.ar      1 RES1    0.0000
     17 H2         4.9956    6.7814    9.6257 H         1 RES1    0.0000
     18 C6         5.7482    5.3138   10.7707 C.ar      1 RES1    0.0000
     19 C7         5.5498    4.0454   11.2613 C.ar      1 RES1    0.0000
     20 H3         6.1548    3.6675   11.8576 H         1 RES1    0.0000
     21 C8         4.4410    3.3500   10.8538 C.ar      1 RES1    0.0000
     22 H4         4.2986    2.4882   11.1715 H         1 RES1    0.0000
     23 C9        -0.8806    3.1680    8.1854 C.ar      1 RES1    0.0000
     24 C10       -1.6838    2.2323    7.5870 C.ar      1 RES1    0.0000
     25 H5        -1.3991    1.3500    7.5169 H         1 RES1    0.0000
     26 C11       -2.9135    2.6017    7.0894 C.ar      1 RES1    0.0000
     27 H6        -3.4600    1.9643    6.6912 H         1 RES1    0.0000
     28 C12       -3.3361    3.8925    7.1760 C.ar      1 RES1    0.0000
     29 H7        -4.1658    4.1388    6.8354 H         1 RES1    0.0000
     30 C13       -2.5292    4.8276    7.7698 C.ar      1 RES1    0.0000
     31 H8        -2.8175    5.7106    7.8265 H         1 RES1    0.0000
     32 C14       -1.3010    4.4864    8.2832 C.ar      1 RES1    0.0000
     33 H9        -0.7618    5.1275    8.6886 H         1 RES1    0.0000
     34 C15        4.0684    0.5558    8.6151 C.3       1 RES1    0.0000
     35 H10        4.8889    0.2332    9.0193 H         1 RES1    0.0000
     36 H11        4.2770    1.3763    8.1420 H         1 RES1    0.0000
     37 C16        3.5996   -0.4551    7.6248 C.3       1 RES1    0.0000
     38 H12        3.3947   -1.2761    8.0775 H         1 RES1    0.0000
     39 H13        4.2896   -0.6110    6.9762 H         1 RES1    0.0000
     40 H14        2.8122   -0.1281    7.1826 H         1 RES1    0.0000
     41 C17        2.8877   -0.0365   10.6811 C.2       1 RES1    0.0000
     42 C18        1.5123   -0.6652   12.4675 C.3       1 RES1    0.0000
     43 H15        1.0470   -0.2316   13.1994 H         1 RES1    0.0000
     44 H16        2.3066   -1.0889   12.8276 H         1 RES1    0.0000
     45 C19        0.6320   -1.6995   11.8717 C.3       1 RES1    0.0000
     46 H17       -0.1866   -1.2926   11.5785 H         1 RES1    0.0000
     47 H18        0.4387   -2.3716   12.5285 H         1 RES1    0.0000
     48 H19        1.0751   -2.1039   11.1211 H         1 RES1    0.0000
@<TRIPOS>BOND
     1    1    2 1
     2    2   12 2
     3    3    4 1
     4    4   34 1
     5    5    7 2
     6    6   11 2
     7    8    5 2
     8    9   41 2
     9   10   41 1
    10   11    1 1
    11   12    3 1
    12   13   12 1
    13   14   13 ar
    14   15   14 1
    15   16   14 ar
    16   17   16 1
    17   18    5 1
    18   19   18 ar
    19   20   19 1
    20   21   13 ar
    21   22   21 1
    22   23    1 1
    23   24   23 ar
    24   25   24 1
    25   26   24 ar
    26   27   26 1
    27   28   26 ar
    28   29   28 1
    29   30   28 ar
    30   31   30 1
    31   32   23 ar
    32   33   32 1
    33   34   35 1
    34   36   34 1
    35   37   34 1
    36   38   37 1
    37   39   37 1
    38   40   37 1
    39   41    4 1
    40   42   10 1
    41   43   42 1
    42   44   42 1
    43   45   42 1
    44   46   45 1
    45   47   45 1
    46   48   45 1
    47    3   11 1
    48   16   18 ar
    49   19   21 ar
    50   30   32 ar
@<TRIPOS>SUBSTRUCTURE
     1 RES1 1

@<TRIPOS>CRYSIN
   9.9394   16.4239   11.7360  90.0000  92.0340  90.0000 231 1

