# MOL2 file generated by ConQuest
# Please check atom types

@<TRIPOS>MOLECULE
DZHPDO
    17    18     1
SMALL
NO_CHARGES
****
Generated from CSD

@<TRIPOS>ATOM
      1 O1         6.2579    1.2257    0.4984 O.2       1 RES1    0.0000
      2 O2         7.1394    3.3492   -0.9289 O.2       1 RES1    0.0000
      3 N1         6.5068    2.3486    1.0020 N.pl3     1 RES1    0.0000
      4 N2         6.9403    3.3701    0.3192 N.pl3     1 RES1    0.0000
      5 C1         6.1502    2.8459    2.3676 C.3       1 RES1    0.0000
      6 C2         4.8788    3.7041    2.1657 C.3       1 RES1    0.0000
      7 C3         5.4109    4.9090    1.3614 C.3       1 RES1    0.0000
      8 C4         6.8951    4.5649    1.2070 C.3       1 RES1    0.0000
      9 C5         7.2334    3.9070    2.5354 C.3       1 RES1    0.0000
     10 H1         6.0817    2.0899    3.0277 H         1 RES1    0.0000
     11 H2         4.5439    3.9917    3.0483 H         1 RES1    0.0000
     12 H3         4.2133    3.1651    1.6683 H         1 RES1    0.0000
     13 H4         4.9674    5.0736    0.5561 H         1 RES1    0.0000
     14 H5         5.3168    5.7658    1.8228 H         1 RES1    0.0000
     15 H6         7.4709    5.3021    0.8445 H         1 RES1    0.0000
     16 H7         8.1484    3.5818    2.5746 H         1 RES1    0.0000
     17 H8         7.0785    4.5024    3.3058 H         1 RES1    0.0000
@<TRIPOS>BOND
     1    1    3 1
     2    2    4 1
     3    3    4 2
     4    4    8 1
     5    5    3 1
     6    6    5 1
     7    7    6 1
     8    8    7 1
     9    9    5 1
    10   10    5 1
    11   11    6 1
    12   12    6 1
    13   13    7 1
    14   14    7 1
    15   15    8 1
    16   16    9 1
    17   17    9 1
    18    8    9 1
@<TRIPOS>SUBSTRUCTURE
     1 RES1 1

@<TRIPOS>CRYSIN
   8.6200    6.7200   10.4400  90.0000  99.4500  90.0000  14 1

