# MOL2 file generated by ConQuest
# Please check atom types

@<TRIPOS>MOLECULE
EABXIO01
    18    18     1
SMALL
USER_CHARGES
****
Generated from CSD

@<TRIPOS>ATOM
      1 O1         3.1999    1.6072    6.2028 O.2       1 RES1    0.0000
      2 O2        -0.2254    4.4877    5.3074 O.2       1 RES1    0.0000
      3 O3         2.3121    4.2667    6.3931 O.3       1 RES1    0.0000
      4 O4         3.2511    4.5910    4.3312 O.2       1 RES1    0.0000
      5 N1         1.6227    3.2270    5.7992 N.am      1 RES1    0.0000
      6 N2         4.4615    6.8317    5.3891 N.1       1 RES1    1.0000
      7 N3         5.1994    7.3928    4.7665 N.2       1 RES1   -1.0000
      8 C1         2.1127    1.9337    5.7897 C.2       1 RES1    0.0000
      9 C2         1.0152    1.0919    5.1885 C.3       1 RES1    0.0000
     10 H1         0.7345    0.3837    5.8202 H         1 RES1    0.0000
     11 H2         1.3237    0.6655    4.3498 H         1 RES1    0.0000
     12 C3        -0.1506    2.0566    4.9064 C.3       1 RES1    0.0000
     13 H3        -0.3789    2.0537    3.9426 H         1 RES1    0.0000
     14 H4        -0.9522    1.7938    5.4244 H         1 RES1    0.0000
     15 C4         0.3291    3.4156    5.3304 C.2       1 RES1    0.0000
     16 C5         3.0940    4.9783    5.4541 C.2       1 RES1    0.0000
     17 C6         3.5990    6.1326    6.1055 C.2       1 RES1    0.0000
     18 H5         3.3382    6.3825    6.9849 H         1 RES1    0.0000
@<TRIPOS>BOND
     1    1    8 2
     2    2   15 2
     3    3    5 1
     4    4   16 2
     5    5    8 1
     6    6    7 2
     7    8    9 1
     8    9   10 1
     9   11    9 1
    10   12    9 1
    11   13   12 1
    12   14   12 1
    13   15    5 1
    14   16    3 1
    15   17    6 2
    16   18   17 1
    17   12   15 1
    18   16   17 1
@<TRIPOS>SUBSTRUCTURE
     1 RES1 1

@<TRIPOS>CRYSIN
   6.6353    8.1462   14.2898  90.0000  90.0000  90.0000  19 1

