# MOL2 file generated by ConQuest
# Please check atom types

@<TRIPOS>MOLECULE
EABXIO
    18    18     1
SMALL
USER_CHARGES
****
Generated from CSD

@<TRIPOS>ATOM
      1 N1         1.6985    3.2828    8.6247 N.am      1 RES1    0.0000
      2 C1         2.9822    3.4756    9.1050 C.2       1 RES1    0.0000
      3 O1         3.5265    4.5531    9.1282 O.2       1 RES1    0.0000
      4 C2         3.4564    2.1155    9.5273 C.3       1 RES1    0.0000
      5 C3         2.3083    1.1500    9.2400 C.3       1 RES1    0.0000
      6 C4         1.2196    1.9779    8.6291 C.2       1 RES1    0.0000
      7 O2         0.1409    1.6550    8.2025 O.2       1 RES1    0.0000
      8 O3         1.0099    4.3225    8.0284 O.3       1 RES1    0.0000
      9 C5         0.2391    5.0450    8.9570 C.2       1 RES1    0.0000
     10 O4         0.0801    4.6693   10.0670 O.2       1 RES1    0.0000
     11 C6        -0.2712    6.1859    8.3084 C.2       1 RES1    0.0000
     12 N2        -1.1187    6.9018    9.0107 N.1       1 RES1    1.0000
     13 N3        -1.8327    7.4949    9.6172 N.2       1 RES1   -1.0000
     14 H1         3.6668    2.1666   10.3166 H         1 RES1    0.0000
     15 H2         4.2211    1.8536    9.0542 H         1 RES1    0.0000
     16 H3         2.0171    0.7332    9.9248 H         1 RES1    0.0000
     17 H4         2.4779    0.5190    8.6189 H         1 RES1    0.0000
     18 H5        -0.0668    6.4092    7.4872 H         1 RES1    0.0000
@<TRIPOS>BOND
     1    1    2 1
     2    2    3 2
     3    4    2 1
     4    5    4 1
     5    6    1 1
     6    7    6 2
     7    8    1 1
     8    9    8 1
     9   10    9 2
    10   11    9 1
    11   12   11 2
    12   13   12 2
    13   14    4 1
    14   15    4 1
    15   16    5 1
    16   17    5 1
    17   18   11 1
    18    5    6 1
@<TRIPOS>SUBSTRUCTURE
     1 RES1 1

@<TRIPOS>CRYSIN
   6.6790    8.2380   14.5100  90.0000  90.0000  90.0000  19 1

