# MOL2 file generated by ConQuest
# Please check atom types

@<TRIPOS>MOLECULE
EACBIT
    24    24     1
SMALL
NO_CHARGES
****
Generated from CSD

@<TRIPOS>ATOM
      1 O1         0.5699    4.1109    9.9346 O.3       1 RES1    0.0000
      2 N1         1.6866    3.9648   10.7146 N.2       1 RES1    0.0000
      3 N2         1.8306    1.5452    8.2569 N.1       1 RES1    0.0000
      4 C1         2.4408    2.9800   10.3666 C.2       1 RES1    0.0000
      5 C2         3.6356    2.6998   11.0823 C.2       1 RES1    0.0000
      6 C3         4.4903    1.7150   10.9021 C.2       1 RES1    0.0000
      7 C4         5.7099    1.4433   11.6446 C.ar      1 RES1    0.0000
      8 C5         5.9916    2.1565   12.8065 C.ar      1 RES1    0.0000
      9 C6         7.1756    1.8678   13.4919 C.ar      1 RES1    0.0000
     10 C7         8.0502    0.9509   13.0207 C.ar      1 RES1    0.0000
     11 C8         7.8005    0.2462   11.8820 C.ar      1 RES1    0.0000
     12 C9         6.6019    0.4924   11.2073 C.ar      1 RES1    0.0000
     13 C10        2.0875    2.1904    9.1689 C.1       1 RES1    0.0000
     14 C11       -0.2203    5.1874   10.4808 C.3       1 RES1    0.0000
     15 H1         3.8744    3.2924   11.8659 H         1 RES1    0.0000
     16 H2         4.3214    1.0799   10.1970 H         1 RES1    0.0000
     17 H3         6.3654   -0.0153   10.3702 H         1 RES1    0.0000
     18 H4         8.4239   -0.4372   11.5196 H         1 RES1    0.0000
     19 H5         8.8696    0.7369   13.4758 H         1 RES1    0.0000
     20 H6         7.4519    2.3602   14.3040 H         1 RES1    0.0000
     21 H7         5.4135    2.8212   13.2170 H         1 RES1    0.0000
     22 H8         0.2650    5.9905   10.5754 H         1 RES1    0.0000
     23 H9        -0.6747    4.9709   11.2733 H         1 RES1    0.0000
     24 H10       -0.9540    5.4107    9.8115 H         1 RES1    0.0000
@<TRIPOS>BOND
     1    1    2 1
     2    2    4 2
     3    3   13 3
     4    4    5 1
     5    5    6 2
     6    6    7 1
     7    7    8 ar
     8    8    9 ar
     9    9   10 ar
    10   10   11 ar
    11   11   12 ar
    12   12    7 ar
    13   13    4 1
    14   14    1 1
    15   15    5 1
    16   16    6 1
    17   17   12 1
    18   18   11 1
    19   19   10 1
    20   20    9 1
    21   21    8 1
    22   22   14 1
    23   23   14 1
    24   24   14 1
@<TRIPOS>SUBSTRUCTURE
     1 RES1 1

@<TRIPOS>CRYSIN
   6.8140    8.4900   17.9240  90.0000  95.2500  90.0000  14 1

