# MOL2 file generated by ConQuest
# Please check atom types

@<TRIPOS>MOLECULE
EBEWOA
    23    25     1
SMALL
NO_CHARGES
****
Generated from CSD

@<TRIPOS>ATOM
      1 C1         0.8704   11.9514    8.6055 C.ar      1 RES1    0.0000
      2 C2         0.5781   11.4565    7.3873 C.ar      1 RES1    0.0000
      3 C3        -0.2902   10.3694    7.2053 C.ar      1 RES1    0.0000
      4 C4        -0.9255    9.7600    8.2465 C.ar      1 RES1    0.0000
      5 C5        -1.2270    9.7184   10.7529 C.ar      1 RES1    0.0000
      6 C6        -0.8788   10.1532   12.0011 C.ar      1 RES1    0.0000
      7 C7         0.0278   11.2125   12.1472 C.ar      1 RES1    0.0000
      8 C8         0.5672   11.7976   11.0360 C.ar      1 RES1    0.0000
      9 C9         0.2562   11.3397    9.7347 C.ar      1 RES1    0.0000
     10 C10       -0.6694   10.2515    9.5567 C.ar      1 RES1    0.0000
     11 C11        1.0808   11.8346    6.0351 C.2       1 RES1    0.0000
     12 O1         1.8753   12.6510    5.6880 O.2       1 RES1    0.0000
     13 O2         0.4427   11.0101    5.1059 O.3       1 RES1    0.0000
     14 C12       -0.3509   10.0641    5.7620 C.2       1 RES1    0.0000
     15 O3        -0.9169    9.2119    5.1519 O.2       1 RES1    0.0000
     16 N1        -2.2751    8.6857   10.7039 N.pl3     1 RES1    0.0000
     17 O4        -3.0181    8.6568    9.7377 O.2       1 RES1    0.0000
     18 O5        -2.3873    7.9317   11.6581 O.2       1 RES1    0.0000
     19 H1         1.4717   12.6915    8.7116 H         1 RES1    0.0000
     20 H2        -1.5253    9.0245    8.1014 H         1 RES1    0.0000
     21 H3        -1.2558    9.7346   12.7783 H         1 RES1    0.0000
     22 H4         0.2702   11.5224   13.0223 H         1 RES1    0.0000
     23 H5         1.1686   12.5412   11.1410 H         1 RES1    0.0000
@<TRIPOS>BOND
     1    1    2 ar
     2    2    3 ar
     3    3    4 ar
     4    4   10 ar
     5    5    6 ar
     6    6    7 ar
     7    7    8 ar
     8    8    9 ar
     9    9    1 ar
    10   10    5 ar
    11   11    2 1
    12   12   11 2
    13   13   11 1
    14   14    3 1
    15   15   14 2
    16   16    5 1
    17   17   16 2
    18   18   16 2
    19   19    1 1
    20   20    4 1
    21   21    6 1
    22   22    7 1
    23   23    8 1
    24    9   10 ar
    25   13   14 1
@<TRIPOS>SUBSTRUCTURE
     1 RES1 1

@<TRIPOS>CRYSIN
   8.6975   11.5640   10.1886  90.0000 100.9890  90.0000 231 1

