# MOL2 file generated by ConQuest
# Please check atom types

@<TRIPOS>MOLECULE
EBIVET
    57    50     2
SMALL
NO_CHARGES
****
Generated from CSD

@<TRIPOS>ATOM
      1 O1         7.6803    0.5966    5.4911 O.2       1 RES1    0.0000
      2 N1         7.3841    1.2540    0.8168 N.pl3     1 RES1    0.0000
      3 O2         7.3195   -1.1328    3.0603 O.3       1 RES1    0.0000
      4 O3         3.4700    1.7450    4.1356 O.2       1 RES1    0.0000
      5 O4         6.5644    1.7502    0.0679 O.2       1 RES1    0.0000
      6 C1         4.4371    1.7119    4.8417 C.2       1 RES1    0.0000
      7 O5         8.2748    0.4800    0.4597 O.2       1 RES1    0.0000
      8 O6         6.6983    3.9744    2.0694 O.3       1 RES1    0.0000
      9 H1         6.8358    4.2317    1.2822 H         1 RES1    0.0000
     10 O7         4.4509    1.9420    6.1645 O.3       1 RES1    0.0000
     11 N2         6.5155    0.4834    5.1364 N.pl3     1 RES1    0.0000
     12 O8         5.8032   -0.4849    5.3637 O.2       1 RES1    0.0000
     13 C2         6.5576    2.9567    4.6855 C.3       1 RES1    0.0000
     14 H2         5.9238    3.6859    4.4710 H         1 RES1    0.0000
     15 H3         6.7132    2.9786    5.6623 H         1 RES1    0.0000
     16 C3         4.1179   -0.0838    1.7483 C.ar      1 RES1    0.0000
     17 H4         3.6339    0.7236    1.6199 H         1 RES1    0.0000
     18 C4         5.3750   -0.0388    2.3707 C.ar      1 RES1    0.0000
     19 C5         5.8895    1.6267    4.3384 C.3       1 RES1    0.0000
     20 C6         4.2727   -2.4554    1.4791 C.ar      1 RES1    0.0000
     21 H5         3.8943   -3.2762    1.1875 H         1 RES1    0.0000
     22 C7         7.3480    1.6139    2.2775 C.3       1 RES1    0.0000
     23 H6         8.0036    1.0376    2.7651 H         1 RES1    0.0000
     24 C8         7.9875   -2.3364    3.4421 C.3       1 RES1    0.0000
     25 H7         8.2235   -2.8482    2.6405 H         1 RES1    0.0000
     26 H8         7.3953   -2.8733    4.0087 H         1 RES1    0.0000
     27 H9         8.8023   -2.1139    3.9389 H         1 RES1    0.0000
     28 C9         6.0828   -1.2432    2.5019 C.ar      1 RES1    0.0000
     29 C10        9.0483    3.4327    1.7645 C.3       1 RES1    0.0000
     30 H10        8.9358    3.3042    0.8000 H         1 RES1    0.0000
     31 H11        9.7604    2.8443    2.0922 H         1 RES1    0.0000
     32 H12        9.2867    4.3660    1.9439 H         1 RES1    0.0000
     33 C11        5.9302    1.3077    2.8073 C.3       1 RES1    0.0000
     34 H13        5.3357    1.9893    2.3801 H         1 RES1    0.0000
     35 C12        7.7496    3.0973    2.4740 C.3       1 RES1    0.0000
     36 C13        7.8752    3.2531    3.9885 C.3       1 RES1    0.0000
     37 H14        8.5711    2.6347    4.3252 H         1 RES1    0.0000
     38 H15        8.1585    4.1776    4.2006 H         1 RES1    0.0000
     39 C14        5.5353   -2.4479    2.0677 C.ar      1 RES1    0.0000
     40 H16        6.0192   -3.2588    2.1720 H         1 RES1    0.0000
     41 C15        3.5665   -1.2821    1.3158 C.ar      1 RES1    0.0000
     42 H17        2.7078   -1.2937    0.9097 H         1 RES1    0.0000
     43 C16        3.1716    2.0212    6.8603 C.3       1 RES1    0.0000
     44 H18        2.4600    2.2830    6.2243 H         1 RES1    0.0000
     45 H19        3.2197    2.7072    7.5713 H         1 RES1    0.0000
     46 C17        2.8508    0.7043    7.4567 C.3       1 RES1    0.0000
     47 H20        2.7532    0.0377    6.7439 H         1 RES1    0.0000
     48 H21        2.0117    0.7691    7.9589 H         1 RES1    0.0000
     49 H22        3.5734    0.4338    8.0598 H         1 RES1    0.0000
     50 C18        3.0496    1.4473    6.7726 Du        2 SUP2    0.0000
     51 H23        2.3928    1.0232    6.1657 Du        2 SUP2    0.0000
     52 H24        2.7399    2.3632    6.9881 Du        2 SUP2    0.0000
     53 O9         4.3768    1.4811    6.1570 Du        2 SUP2    0.0000
     54 C19        3.2118    0.6444    8.0124 Du        2 SUP2    0.0000
     55 H25        3.4919   -0.2647    7.7769 Du        2 SUP2    0.0000
     56 H26        2.3590    0.6096    8.4922 Du        2 SUP2    0.0000
     57 H27        3.8919    1.0589    8.5831 Du        2 SUP2    0.0000
@<TRIPOS>BOND
     1    1   11 2
     2    2    5 2
     3    3   24 1
     4    4    6 2
     5    6   10 1
     6    7    2 2
     7    8    9 1
     8   10   43 1
     9   11   12 2
    10   13   14 1
    11   15   13 1
    12   16   17 1
    13   18   16 ar
    14   19    6 1
    15   20   21 1
    16   22    2 1
    17   23   22 1
    18   24   25 1
    19   26   24 1
    20   27   24 1
    21   28    3 1
    22   29   30 1
    23   31   29 1
    24   32   29 1
    25   33   18 1
    26   34   33 1
    27   35    8 1
    28   36   13 1
    29   37   36 1
    30   38   36 1
    31   39   20 ar
    32   40   39 1
    33   41   16 ar
    34   42   41 1
    35   43   44 1
    36   45   43 1
    37   46   43 1
    38   47   46 1
    39   48   46 1
    40   49   46 1
    41   11   19 1
    42   13   19 1
    43   18   28 ar
    44   19   33 1
    45   20   41 ar
    46   22   33 1
    47   22   35 1
    48   28   39 ar
    49   29   35 1
    50   35   36 1
@<TRIPOS>SUBSTRUCTURE
     1 RES1 1
     2 SUP2 50

@<TRIPOS>CRYSIN
   7.5301    9.6615   12.4838  90.0000  93.4620  90.0000   4 1

