# MOL2 file generated by ConQuest
# Please check atom types

@<TRIPOS>MOLECULE
EBOZED
    43    45     1
SMALL
NO_CHARGES
****
Generated from CSD

@<TRIPOS>ATOM
      1 O1         2.8695    6.6718    2.9982 O.2       1 RES1    0.0000
      2 O2         2.1768    5.0559    1.7419 O.2       1 RES1    0.0000
      3 O3         2.1009    0.5961    3.3392 O.2       1 RES1    0.0000
      4 O4         2.8260    0.1686    5.3375 O.2       1 RES1    0.0000
      5 O5         4.8556    8.8297    4.3256 O.2       1 RES1    0.0000
      6 N1         2.7549    5.4653    2.7465 N.pl3     1 RES1    0.0000
      7 N2         2.6893    0.9198    4.3693 N.pl3     1 RES1    0.0000
      8 N3         4.6913    6.1372    4.8302 N.pl3     1 RES1    0.0000
      9 H1         4.5067    6.7365    4.2420 H         1 RES1    0.0000
     10 N4         5.4640    6.4399    5.9030 N.2       1 RES1    0.0000
     11 C1         3.3060    4.4968    3.6747 C.ar      1 RES1    0.0000
     12 C2         2.8501    3.1912    3.5365 C.ar      1 RES1    0.0000
     13 H2         2.2857    2.9555    2.8356 H         1 RES1    0.0000
     14 C3         3.2501    2.2571    4.4566 C.ar      1 RES1    0.0000
     15 C4         4.1310    2.5729    5.4839 C.ar      1 RES1    0.0000
     16 H3         4.3825    1.9227    6.1012 H         1 RES1    0.0000
     17 C5         4.6267    3.8446    5.5830 C.ar      1 RES1    0.0000
     18 H4         5.2490    4.0433    6.2457 H         1 RES1    0.0000
     19 C6         4.2083    4.8620    4.6966 C.ar      1 RES1    0.0000
     20 C7         6.0432    7.6000    5.9612 C.2       1 RES1    0.0000
     21 C8         6.7944    7.8977    7.1976 C.ar      1 RES1    0.0000
     22 C9         6.8494    9.2061    7.6912 C.ar      1 RES1    0.0000
     23 H5         6.4525    9.8971    7.2112 H         1 RES1    0.0000
     24 C10        7.4885    9.4802    8.8867 C.ar      1 RES1    0.0000
     25 H6         7.5061   10.3504    9.2140 H         1 RES1    0.0000
     26 C11        8.1020    8.4633    9.5995 C.ar      1 RES1    0.0000
     27 H7         8.5296    8.6496   10.4041 H         1 RES1    0.0000
     28 C12        8.0773    7.1589    9.1077 C.ar      1 RES1    0.0000
     29 H8         8.5023    6.4764    9.5759 H         1 RES1    0.0000
     30 C13        7.4208    6.8791    7.9240 C.ar      1 RES1    0.0000
     31 H9         7.3958    6.0041    7.6067 H         1 RES1    0.0000
     32 C14        5.9444    8.6262    4.8502 C.2       1 RES1    0.0000
     33 C15        7.1745    9.3003    4.3720 C.ar      1 RES1    0.0000
     34 C16        8.4424    8.7956    4.6747 C.ar      1 RES1    0.0000
     35 H10        8.5224    8.0365    5.2066 H         1 RES1    0.0000
     36 C17        9.5748    9.4131    4.1893 C.ar      1 RES1    0.0000
     37 H11       10.4144    9.0670    4.3875 H         1 RES1    0.0000
     38 C18        9.4623   10.5500    3.4083 C.ar      1 RES1    0.0000
     39 H12       10.2281   10.9754    3.0947 H         1 RES1    0.0000
     40 C19        8.2118   11.0572    3.0919 C.ar      1 RES1    0.0000
     41 H13        8.1407   11.8174    2.5619 H         1 RES1    0.0000
     42 C20        7.0697   10.4355    3.5638 C.ar      1 RES1    0.0000
     43 H14        6.2320   10.7726    3.3429 H         1 RES1    0.0000
@<TRIPOS>BOND
     1    1    6 2
     2    2    6 2
     3    3    7 2
     4    4    7 2
     5    5   32 2
     6    6   11 1
     7    7   14 1
     8    8    9 1
     9   10    8 1
    10   11   12 ar
    11   12   13 1
    12   14   12 ar
    13   15   14 ar
    14   16   15 1
    15   17   15 ar
    16   18   17 1
    17   19    8 1
    18   20   10 2
    19   21   20 1
    20   22   21 ar
    21   23   22 1
    22   24   22 ar
    23   25   24 1
    24   26   24 ar
    25   27   26 1
    26   28   26 ar
    27   29   28 1
    28   30   21 ar
    29   31   30 1
    30   32   20 1
    31   33   32 1
    32   34   33 ar
    33   35   34 1
    34   36   34 ar
    35   37   36 1
    36   38   36 ar
    37   39   38 1
    38   40   38 ar
    39   41   40 1
    40   42   33 ar
    41   43   42 1
    42   11   19 ar
    43   17   19 ar
    44   28   30 ar
    45   40   42 ar
@<TRIPOS>SUBSTRUCTURE
     1 RES1 1

@<TRIPOS>CRYSIN
   8.2131   23.8543    9.0919  90.0000  90.6630  90.0000  14 1

