# MOL2 file generated by ConQuest
# Please check atom types

@<TRIPOS>MOLECULE
EBURUR
    39    41     1
SMALL
NO_CHARGES
****
Generated from CSD

@<TRIPOS>ATOM
      1 O1         2.7416    6.2117    2.6894 O.3       1 RES1    0.0000
      2 O2         4.2700   10.2178    3.0156 O.2       1 RES1    0.0000
      3 O3         5.7169    7.6361    3.3000 O.2       1 RES1    0.0000
      4 O4         6.8777    7.1047    5.0070 O.2       1 RES1    0.0000
      5 N1         2.7575    8.5778    2.6582 N.am      1 RES1    0.0000
      6 N2         5.8883    7.5999    4.5068 N.pl3     1 RES1    0.0000
      7 C1         2.0044    7.3440    3.0507 C.3       1 RES1    0.0000
      8 C2         0.7272    7.4445    2.1980 C.3       1 RES1    0.0000
      9 C3         1.2357    8.2194    0.9851 C.ar      1 RES1    0.0000
     10 C4         0.6982    8.3478   -0.2817 C.ar      1 RES1    0.0000
     11 C5         1.3197    9.1849   -1.1836 C.ar      1 RES1    0.0000
     12 C6         2.4613    9.8655   -0.8450 C.ar      1 RES1    0.0000
     13 C7         3.0245    9.7412    0.4233 C.ar      1 RES1    0.0000
     14 C8         2.3890    8.9104    1.3083 C.ar      1 RES1    0.0000
     15 C9         3.6484    9.2429    3.4093 C.2       1 RES1    0.0000
     16 C10        3.7741    8.8078    4.8608 C.ar      1 RES1    0.0000
     17 C11        2.8083    9.2719    5.7381 C.ar      1 RES1    0.0000
     18 C12        2.9263    9.0658    7.0865 C.ar      1 RES1    0.0000
     19 C13        4.0030    8.3976    7.5806 C.ar      1 RES1    0.0000
     20 C14        5.0022    7.9376    6.7525 C.ar      1 RES1    0.0000
     21 C15        4.8587    8.1469    5.3734 C.ar      1 RES1    0.0000
     22 C16       -0.2831    8.3344    2.9476 C.3       1 RES1    0.0000
     23 C17        0.1160    6.0977    1.8778 C.3       1 RES1    0.0000
     24 H1         1.8023    7.3461    4.0096 H         1 RES1    0.0000
     25 H2        -0.0701    7.8796   -0.5156 H         1 RES1    0.0000
     26 H3         0.9604    9.2958   -2.0348 H         1 RES1    0.0000
     27 H4         2.8781   10.4063   -1.4776 H         1 RES1    0.0000
     28 H5         3.7937   10.2022    0.6711 H         1 RES1    0.0000
     29 H6         2.0692    9.7278    5.4057 H         1 RES1    0.0000
     30 H7         2.2708    9.3662    7.6745 H         1 RES1    0.0000
     31 H8         4.0765    8.2588    8.4979 H         1 RES1    0.0000
     32 H9         5.7497    7.4973    7.0865 H         1 RES1    0.0000
     33 H10       -1.1164    8.4048    2.4366 H         1 RES1    0.0000
     34 H11       -0.4735    7.9500    3.8295 H         1 RES1    0.0000
     35 H12        0.1086    9.2263    3.0584 H         1 RES1    0.0000
     36 H13       -0.6878    6.2065    1.3283 H         1 RES1    0.0000
     37 H14       -0.1172    5.6336    2.7090 H         1 RES1    0.0000
     38 H15        0.7793    5.5704    1.3853 H         1 RES1    0.0000
     39 H16        3.1661    5.9392    3.3355 H         1 RES1    0.0000
@<TRIPOS>BOND
     1    1    7 1
     2    2   15 2
     3    3    6 2
     4    4    6 2
     5    5    7 1
     6    6   21 1
     7    7    8 1
     8    8    9 1
     9    9   10 ar
    10   10   11 ar
    11   11   12 ar
    12   12   13 ar
    13   13   14 ar
    14   14    5 1
    15   15    5 1
    16   16   15 1
    17   17   16 ar
    18   18   17 ar
    19   19   18 ar
    20   20   19 ar
    21   21   16 ar
    22   22    8 1
    23   23    8 1
    24   24    7 1
    25   25   10 1
    26   26   11 1
    27   27   12 1
    28   28   13 1
    29   29   17 1
    30   30   18 1
    31   31   19 1
    32   32   20 1
    33   33   22 1
    34   34   22 1
    35   35   22 1
    36   36   23 1
    37   37   23 1
    38   38   23 1
    39   39    1 1
    40    9   14 ar
    41   20   21 ar
@<TRIPOS>SUBSTRUCTURE
     1 RES1 1

@<TRIPOS>CRYSIN
   9.6035   10.3597   15.5415  90.0000  97.9530  90.0000  14 1

