# MOL2 file generated by ConQuest
# Please check atom types

@<TRIPOS>MOLECULE
EBUVUS
    51    52     1
SMALL
NO_CHARGES
****
Generated from CSD

@<TRIPOS>ATOM
      1 O1         8.9778    2.7139   -0.3635 O.2       1 RES1    0.0000
      2 O2         9.6772    0.6104   -0.1842 O.3       1 RES1    0.0000
      3 O3         7.6405   -0.9713    1.4882 O.2       1 RES1    0.0000
      4 O4         9.3324   -0.2202    2.7434 O.3       1 RES1    0.0000
      5 O5         9.1475    4.6426    8.7786 O.2       1 RES1    0.0000
      6 O6        10.9419    5.0465    9.9204 O.2       1 RES1    0.0000
      7 O7        14.7119    7.0577    7.9024 O.2       1 RES1    0.0000
      8 O8        14.8691    7.1831    5.7532 O.2       1 RES1    0.0000
      9 N1         9.1487    3.5435    4.9781 N.2       1 RES1    0.0000
     10 N2         9.4359    4.1024    6.2064 N.3       1 RES1    0.0000
     11 N3        10.3373    4.9387    8.8593 N.pl3     1 RES1    0.0000
     12 N4        14.2871    6.8450    6.7744 N.pl3     1 RES1    0.0000
     13 C1         7.5162    2.4058    3.6708 C.2       1 RES1    0.0000
     14 C2         6.2755    1.8632    3.5779 C.2       1 RES1    0.0000
     15 C3         5.7700    1.4281    2.2682 C.2       1 RES1    0.0000
     16 C4         6.6708    1.6243    1.0766 C.3       1 RES1    0.0000
     17 C5         8.1371    1.3881    1.4491 C.3       1 RES1    0.0000
     18 C6         8.5023    2.4203    2.5225 C.3       1 RES1    0.0000
     19 C7         5.3506    1.6985    4.7605 C.3       1 RES1    0.0000
     20 C8         4.5446    0.9485    2.0881 C.2       1 RES1    0.0000
     21 C9         8.9881    1.6640    0.2070 C.2       1 RES1    0.0000
     22 C10        8.3209   -0.0724    1.8819 C.2       1 RES1    0.0000
     23 C11       10.4751    0.7855   -1.3888 C.3       1 RES1    0.0000
     24 C12        9.5774   -1.5954    3.1574 C.3       1 RES1    0.0000
     25 C13        7.9692    3.0421    4.8966 C.2       1 RES1    0.0000
     26 C14       10.6026    4.7467    6.3669 C.ar      1 RES1    0.0000
     27 C15       11.0813    5.1951    7.6343 C.ar      1 RES1    0.0000
     28 C16       12.2770    5.8777    7.7582 C.ar      1 RES1    0.0000
     29 C17       13.0286    6.1209    6.6424 C.ar      1 RES1    0.0000
     30 C18       12.6020    5.7007    5.3775 C.ar      1 RES1    0.0000
     31 C19       11.4355    5.0278    5.2520 C.ar      1 RES1    0.0000
     32 H1         6.4304    1.0906    0.3342 H         1 RES1    0.0000
     33 H2         6.5780    2.5523    0.7743 H         1 RES1    0.0000
     34 H3         9.3980    2.2012    2.8689 H         1 RES1    0.0000
     35 H4         8.5699    3.3174    2.1191 H         1 RES1    0.0000
     36 H5         5.7950    1.8801    5.5584 H         1 RES1    0.0000
     37 H6         4.6081    2.2776    4.6864 H         1 RES1    0.0000
     38 H7         5.0002    0.8073    4.8005 H         1 RES1    0.0000
     39 H8         3.9962    0.8094    2.8200 H         1 RES1    0.0000
     40 H9         4.2362    0.7619    1.1492 H         1 RES1    0.0000
     41 H10        9.8969    0.9313   -2.1924 H         1 RES1    0.0000
     42 H11       11.0140   -0.0247   -1.4589 H         1 RES1    0.0000
     43 H12       10.9446    1.5817   -1.4426 H         1 RES1    0.0000
     44 H13        9.8064   -2.1303    2.3473 H         1 RES1    0.0000
     45 H14       10.2920   -1.5420    3.6594 H         1 RES1    0.0000
     46 H15        8.6688   -1.9373    3.5861 H         1 RES1    0.0000
     47 H16        7.4176    3.0673    5.6481 H         1 RES1    0.0000
     48 H17        8.9714    3.9139    6.9114 H         1 RES1    0.0000
     49 H18       12.5508    6.1677    8.6311 H         1 RES1    0.0000
     50 H19       13.1653    5.9762    4.6130 H         1 RES1    0.0000
     51 H20       11.1424    4.7346    4.4256 H         1 RES1    0.0000
@<TRIPOS>BOND
     1    1   21 2
     2    2   21 1
     3    3   22 2
     4    4   22 1
     5    5   11 2
     6    6   11 2
     7    7   12 2
     8    8   12 2
     9    9   10 1
    10   10   26 1
    11   11   27 1
    12   12   29 1
    13   13   14 2
    14   14   15 1
    15   15   16 1
    16   16   17 1
    17   17   18 1
    18   18   13 1
    19   19   14 1
    20   20   15 2
    21   21   17 1
    22   22   17 1
    23   23    2 1
    24   24    4 1
    25   25    9 2
    26   26   27 ar
    27   27   28 ar
    28   28   29 ar
    29   29   30 ar
    30   30   31 ar
    31   31   26 ar
    32   32   16 1
    33   33   16 1
    34   34   18 1
    35   35   18 1
    36   36   19 1
    37   37   19 1
    38   38   19 1
    39   39   20 1
    40   40   20 1
    41   41   23 1
    42   42   23 1
    43   43   23 1
    44   44   24 1
    45   45   24 1
    46   46   24 1
    47   47   25 1
    48   48   10 1
    49   49   28 1
    50   50   30 1
    51   51   31 1
    52   13   25 1
@<TRIPOS>SUBSTRUCTURE
     1 RES1 1

@<TRIPOS>CRYSIN
  11.5540   11.8130    8.2501  97.8900  97.2300  63.5700   2 1

