# MOL2 file generated by ConQuest
# Please check atom types

@<TRIPOS>MOLECULE
ECAFOF
    73    71     2
SMALL
NO_CHARGES
****
Generated from CSD

@<TRIPOS>ATOM
      1 O1         1.9526   13.2055    4.3985 O.2       1 RES1    0.0000
      2 O2         4.1585   11.5473    3.2190 O.2       1 RES1    0.0000
      3 O3        -0.2483   11.2126    0.9722 O.2       1 RES1    0.0000
      4 O4         2.1357    4.7263    1.9151 O.3       1 RES1    0.0000
      5 C1         0.8352    4.0667    1.8890 C.3       1 RES1    0.0000
      6 H1         0.8653    3.2745    2.4281 H         1 RES1    0.0000
      7 H2         0.6183    3.8268    0.9814 H         1 RES1    0.0000
      8 H3         0.1643    4.6635    2.2269 H         1 RES1    0.0000
      9 O5         4.4996    5.4919    1.3546 O.3       1 RES1    0.0000
     10 C2         2.1758   11.9392    1.9090 C.3       1 RES1    0.0000
     11 H4         1.2955   12.0340    2.3313 H         1 RES1    0.0000
     12 N1         1.9814   11.1415    0.6973 N.am      1 RES1    0.0000
     13 C3         3.1703   10.6478   -0.0031 C.3       1 RES1    0.0000
     14 H5         3.8099   10.3173    0.6466 H         1 RES1    0.0000
     15 H6         3.5866   11.3813   -0.4838 H         1 RES1    0.0000
     16 C4         2.8292    9.5363   -0.9844 C.3       1 RES1    0.0000
     17 H7         3.5929    9.4080   -1.5849 H         1 RES1    0.0000
     18 N2         1.6955   10.0118   -1.7754 N.3       1 RES1    0.0000
     19 C5         0.5066    9.9839   -0.9061 C.3       1 RES1    0.0000
     20 H8        -0.2433   10.3619   -1.4099 H         1 RES1    0.0000
     21 C6         0.7211   10.8360    0.3164 C.2       1 RES1    0.0000
     22 C7         0.1091    8.5754   -0.4561 C.3       1 RES1    0.0000
     23 H9        -0.5468    8.6395    0.2549 H         1 RES1    0.0000
     24 H10       -0.2997    8.1054   -1.1995 H         1 RES1    0.0000
     25 C8         1.3005    7.7944    0.0323 C.ar      1 RES1    0.0000
     26 C9         1.1211    6.6062    0.7479 C.ar      1 RES1    0.0000
     27 H11        0.2608    6.3078    0.9322 H         1 RES1    0.0000
     28 C10        2.1896    5.8838    1.1764 C.ar      1 RES1    0.0000
     29 C11        3.4951    6.3064    0.8969 C.ar      1 RES1    0.0000
     30 C12        3.6594    7.4681    0.1981 C.ar      1 RES1    0.0000
     31 H12        4.5222    7.7609    0.0108 H         1 RES1    0.0000
     32 C13        2.5771    8.2323   -0.2442 C.ar      1 RES1    0.0000
     33 C14        5.8465    5.8880    1.0858 C.3       1 RES1    0.0000
     34 H13        5.9794    5.9466    0.1367 H         1 RES1    0.0000
     35 H14        6.4509    5.2381    1.4529 H         1 RES1    0.0000
     36 H15        6.0145    6.7443    1.4851 H         1 RES1    0.0000
     37 C15        3.0599   11.1484    2.8934 C.2       1 RES1    0.0000
     38 N3         2.5307   10.0035    3.3035 N.am      1 RES1    0.0000
     39 H16        1.6917    9.7901    3.0562 H         1 RES1    0.0000
     40 C16        3.1051    9.0802    4.3033 C.3       1 RES1    0.0000
     41 C17        3.1866    9.8110    5.6410 C.3       1 RES1    0.0000
     42 H17        3.6769   10.6282    5.5289 H         1 RES1    0.0000
     43 H18        3.6330    9.2546    6.2830 H         1 RES1    0.0000
     44 H19        2.3000   10.0090    5.9512 H         1 RES1    0.0000
     45 C18        4.4557    8.5810    3.8334 C.3       1 RES1    0.0000
     46 H20        4.3541    8.1235    2.9963 H         1 RES1    0.0000
     47 H21        4.8181    7.9785    4.4861 H         1 RES1    0.0000
     48 H22        5.0501    9.3271    3.7212 H         1 RES1    0.0000
     49 C19        2.0981    7.9339    4.4262 C.3       1 RES1    0.0000
     50 H23        1.2353    8.2895    4.6489 H         1 RES1    0.0000
     51 H24        2.3840    7.3300    5.1157 H         1 RES1    0.0000
     52 H25        2.0454    7.4639    3.5907 H         1 RES1    0.0000
     53 C20        2.6887   13.3324    1.6464 C.ar      1 RES1    0.0000
     54 C21        3.1063   14.2054    2.6493 C.ar      1 RES1    0.0000
     55 C22        3.6230   15.4536    2.4005 C.ar      1 RES1    0.0000
     56 H26        3.9002   16.0016    3.0992 H         1 RES1    0.0000
     57 C23        3.7196   15.8775    1.0858 C.ar      1 RES1    0.0000
     58 H27        4.0682   16.7171    0.8908 H         1 RES1    0.0000
     59 C24        3.3082   15.0742    0.0952 C.ar      1 RES1    0.0000
     60 H28        3.3609   15.3685   -0.7848 H         1 RES1    0.0000
     61 C25        2.8166   13.8344    0.3578 C.ar      1 RES1    0.0000
     62 H29        2.5545   13.2989   -0.3563 H         1 RES1    0.0000
     63 N4         2.9069   13.8679    4.0806 N.pl3     1 RES1    0.0000
     64 O6         3.8450   14.2375    4.8424 O.2       1 RES1    0.0000
     65 C26        1.5099    9.3006   -3.0301 C.3       1 RES1    0.0000
     66 H30        2.2962    9.3968   -3.5723 H         1 RES1    0.0000
     67 H31        0.7537    9.6646   -3.4955 H         1 RES1    0.0000
     68 H32        1.3569    8.3690   -2.8504 H         1 RES1    0.0000
     69 C27        0.9180    4.4209    2.6569 Du        2 SUP2    0.0000
     70 H33        1.0346    3.5897    3.1300 Du        2 SUP2    0.0000
     71 H34        0.1856    4.3288    2.0395 Du        2 SUP2    0.0000
     72 H35        0.7324    5.1210    3.2774 Du        2 SUP2    0.0000
     73 O7         2.5583   14.7549    4.8992 Du        2 SUP2    0.0000
@<TRIPOS>BOND
     1    1   63 2
     2    2   37 2
     3    3   21 2
     4    4    5 1
     5    5    6 1
     6    7    5 1
     7    8    5 1
     8    9   29 1
     9   10   11 1
    10   12   10 1
    11   13   12 1
    12   14   13 1
    13   15   13 1
    14   16   13 1
    15   17   16 1
    16   18   16 1
    17   19   18 1
    18   20   19 1
    19   21   12 1
    20   22   19 1
    21   23   22 1
    22   24   22 1
    23   25   22 1
    24   26   25 ar
    25   27   26 1
    26   28    4 1
    27   29   28 ar
    28   30   29 ar
    29   31   30 1
    30   32   16 1
    31   33    9 1
    32   34   33 1
    33   35   33 1
    34   36   33 1
    35   37   10 1
    36   38   37 1
    37   39   38 1
    38   40   38 1
    39   41   40 1
    40   42   41 1
    41   43   41 1
    42   44   41 1
    43   45   40 1
    44   46   45 1
    45   47   45 1
    46   48   45 1
    47   49   40 1
    48   50   49 1
    49   51   49 1
    50   52   49 1
    51   53   10 1
    52   54   53 ar
    53   55   54 ar
    54   56   55 1
    55   57   55 ar
    56   58   57 1
    57   59   57 ar
    58   60   59 1
    59   61   53 ar
    60   62   61 1
    61   63   54 1
    62   64   63 2
    63   65   18 1
    64   66   65 1
    65   67   65 1
    66   68   65 1
    67   19   21 1
    68   25   32 ar
    69   26   28 ar
    70   30   32 ar
    71   59   61 ar
@<TRIPOS>SUBSTRUCTURE
     1 RES1 1
     2 SUP2 69

@<TRIPOS>CRYSIN
  12.5407   13.9460   15.3580  90.0000  90.0000  90.0000  19 1

