# MOL2 file generated by ConQuest
# Please check atom types

@<TRIPOS>MOLECULE
ECALEC
    30    32     1
SMALL
USER_CHARGES
****
Generated from CSD

@<TRIPOS>ATOM
      1 O1         0.0568    0.0267    7.6430 O.2       1 RES1   -1.0000
      2 N1         1.1500    0.6971    7.6758 N.pl3     1 RES1    1.0000
      3 N2         2.2598    0.3742    6.8880 N.pl3     1 RES1    0.0000
      4 C1        -0.3457    1.6037   10.1323 C.ar      1 RES1    0.0000
      5 H1        -0.3531    0.6768   10.0502 H         1 RES1    0.0000
      6 C2        -1.1913    2.2559   11.0405 C.ar      1 RES1    0.0000
      7 H2        -1.7126    1.7742   11.6423 H         1 RES1    0.0000
      8 C3        -1.2283    3.6030   11.0077 C.ar      1 RES1    0.0000
      9 H3        -1.9296    4.0285   11.4399 H         1 RES1    0.0000
     10 C4        -0.3734    4.3139   10.4387 C.ar      1 RES1    0.0000
     11 H4        -0.3191    5.2216   10.6411 H         1 RES1    0.0000
     12 C5         0.5185    3.7419    9.4758 C.ar      1 RES1    0.0000
     13 H5         1.0774    4.2770    8.9615 H         1 RES1    0.0000
     14 C6         0.5154    2.3895    9.3445 C.ar      1 RES1    0.0000
     15 C7         1.4290    1.7801    8.4308 C.2       1 RES1    0.0000
     16 C8         2.7777    2.1489    8.1354 C.2       1 RES1    0.0000
     17 H6         3.2477    2.8658    8.4965 H         1 RES1    0.0000
     18 C9         3.2468    1.2509    7.2217 C.2       1 RES1    0.0000
     19 H7         4.1082    1.2397    6.8770 H         1 RES1    0.0000
     20 C10        2.3332   -0.7591    5.9524 C.ar      1 RES1    0.0000
     21 C11        1.2500   -1.1172    5.2029 C.ar      1 RES1    0.0000
     22 H8         0.4432   -0.6597    5.3069 H         1 RES1    0.0000
     23 C12        1.3456   -2.1703    4.2783 C.ar      1 RES1    0.0000
     24 H9         0.5790   -2.4258    3.8188 H         1 RES1    0.0000
     25 C13        2.5246   -2.8546    4.0267 C.ar      1 RES1    0.0000
     26 H10        2.6076   -3.4827    3.3428 H         1 RES1    0.0000
     27 C14        3.6449   -2.4964    4.9403 C.ar      1 RES1    0.0000
     28 H11        4.4319   -2.9925    4.9075 H         1 RES1    0.0000
     29 C15        3.5492   -1.4540    5.8211 C.ar      1 RES1    0.0000
     30 H12        4.2859   -1.2076    6.3299 H         1 RES1    0.0000
@<TRIPOS>BOND
     1    1    2 1
     2    2    3 1
     3    3   18 1
     4    4    5 1
     5    6    4 ar
     6    7    6 1
     7    8    6 ar
     8    9    8 1
     9   10    8 ar
    10   11   10 1
    11   12   10 ar
    12   13   12 1
    13   14    4 ar
    14   15    2 2
    15   16   15 1
    16   17   16 1
    17   18   16 2
    18   19   18 1
    19   20    3 1
    20   21   20 ar
    21   22   21 1
    22   23   21 ar
    23   24   23 1
    24   25   23 ar
    25   26   25 1
    26   27   25 ar
    27   28   27 1
    28   29   20 ar
    29   30   29 1
    30   12   14 ar
    31   14   15 1
    32   27   29 ar
@<TRIPOS>SUBSTRUCTURE
     1 RES1 1

@<TRIPOS>CRYSIN
   6.1726    6.1726   54.7100  90.0000  90.0000 120.0000 170 1

