# MOL2 file generated by ConQuest
# Please check atom types

@<TRIPOS>MOLECULE
ECECIA
    46    48     1
SMALL
NO_CHARGES
****
Generated from CSD

@<TRIPOS>ATOM
      1 C1         5.3188   14.3446    3.3725 C.ar      1 RES1    0.0000
      2 C2         5.7604   14.6867    4.6405 C.ar      1 RES1    0.0000
      3 C3         6.7745   13.9230    5.2129 C.ar      1 RES1    0.0000
      4 C4         7.3075   12.8457    4.5044 C.ar      1 RES1    0.0000
      5 C5         6.8119   12.5090    3.2461 C.ar      1 RES1    0.0000
      6 C6         5.8058   13.2622    2.6640 C.ar      1 RES1    0.0000
      7 C7         8.4554   12.0398    5.0114 C.2       1 RES1    0.0000
      8 C8        10.0931   11.7915    6.6514 C.3       1 RES1    0.0000
      9 C9        10.5031   12.3285    7.9963 C.3       1 RES1    0.0000
     10 C10       10.6155   13.8589    8.0973 C.3       1 RES1    0.0000
     11 C11       10.8534   14.2974    9.5361 C.2       1 RES1    0.0000
     12 C12       10.4286   13.3775   10.6728 C.3       1 RES1    0.0000
     13 C13       10.3039   11.9261   10.2131 C.3       1 RES1    0.0000
     14 C14       11.6592   11.4106    9.7677 C.2       1 RES1    0.0000
     15 C15       11.7907   11.6792    8.4781 C.2       1 RES1    0.0000
     16 C16        9.2720    9.8708   10.7620 C.3       1 RES1    0.0000
     17 C17        8.9148    9.0375   11.9707 C.3       1 RES1    0.0000
     18 C18       10.0957    8.6429   12.7874 C.2       1 RES1    0.0000
     19 C19       10.2308    8.7837   14.0858 C.2       1 RES1    0.0000
     20 N1         4.3072   15.1977    2.7277 N.pl3     1 RES1    0.0000
     21 O1         4.0747   16.2975    3.2158 O.2       1 RES1    0.0000
     22 O2         3.7582   14.7630    1.7228 O.2       1 RES1    0.0000
     23 O3         8.8948   12.4633    6.2063 O.3       1 RES1    0.0000
     24 O4         8.9498   11.1206    4.4034 O.2       1 RES1    0.0000
     25 O5        11.3276   15.3888    9.7788 O.2       1 RES1    0.0000
     26 O6         9.5470   11.9303    8.9923 O.3       1 RES1    0.0000
     27 O7         9.6264   11.2000   11.1841 O.3       1 RES1    0.0000
     28 H1         5.3945   15.4000    5.0978 H         1 RES1    0.0000
     29 H2         7.1041   14.1440    6.0620 H         1 RES1    0.0000
     30 H3         7.1701   11.7743    2.7623 H         1 RES1    0.0000
     31 H4         5.4632   13.0618    1.8207 H         1 RES1    0.0000
     32 H5        10.8050   11.9215    5.9925 H         1 RES1    0.0000
     33 H6         9.9156   10.8467    6.7247 H         1 RES1    0.0000
     34 H7        11.3339   14.2176    7.5547 H         1 RES1    0.0000
     35 H8         9.7761   14.2566    7.7985 H         1 RES1    0.0000
     36 H9        11.0599   13.4523   11.4045 H         1 RES1    0.0000
     37 H10        9.5351   13.6897   10.9650 H         1 RES1    0.0000
     38 H11       12.2948   11.0249   10.3493 H         1 RES1    0.0000
     39 H12       12.5589   11.5387    7.9208 H         1 RES1    0.0000
     40 H13       10.0488    9.4617   10.2701 H         1 RES1    0.0000
     41 H14        8.5160    9.9152   10.1624 H         1 RES1    0.0000
     42 H15        8.2613    9.5368   12.5234 H         1 RES1    0.0000
     43 H16        8.4848    8.2318   11.6258 H         1 RES1    0.0000
     44 H17       10.8340    8.2386   12.2816 H         1 RES1    0.0000
     45 H18       11.0113    8.4988   14.5280 H         1 RES1    0.0000
     46 H19        9.5429    9.2098   14.5760 H         1 RES1    0.0000
@<TRIPOS>BOND
     1    1    2 ar
     2    2    3 ar
     3    3    4 ar
     4    4    5 ar
     5    5    6 ar
     6    6    1 ar
     7    7    4 1
     8    8    9 1
     9    9   10 1
    10   10   11 1
    11   11   12 1
    12   12   13 1
    13   13   14 1
    14   14   15 2
    15   15    9 1
    16   16   17 1
    17   17   18 1
    18   18   19 2
    19   19   45 1
    20   20    1 1
    21   21   20 2
    22   22   20 2
    23   23    7 1
    24   24    7 2
    25   25   11 2
    26   26    9 1
    27   27   13 1
    28   28    2 1
    29   29    3 1
    30   30    5 1
    31   31    6 1
    32   32    8 1
    33   33    8 1
    34   34   10 1
    35   35   10 1
    36   36   12 1
    37   37   12 1
    38   38   14 1
    39   39   15 1
    40   40   16 1
    41   41   16 1
    42   42   17 1
    43   43   17 1
    44   44   18 1
    45   46   19 1
    46    8   23 1
    47   13   26 1
    48   16   27 1
@<TRIPOS>SUBSTRUCTURE
     1 RES1 1

@<TRIPOS>CRYSIN
   9.5271   10.5027   11.2586  63.1420  68.4410  65.8280   2 1

