# MOL2 file generated by ConQuest
# Please check atom types

@<TRIPOS>MOLECULE
ECEREL
    48    49     1
SMALL
NO_CHARGES
****
Generated from CSD

@<TRIPOS>ATOM
      1 O1        -3.6101    1.7355   14.1979 O.2       1 RES1    0.0000
      2 O2        -4.0699    3.0652   12.4330 O.3       1 RES1    0.0000
      3 O3        -1.7830    4.3154   14.1658 O.2       1 RES1    0.0000
      4 O4        -0.7660    4.3224   16.0037 O.2       1 RES1    0.0000
      5 O5         2.1467    0.9390   17.4002 O.2       1 RES1    0.0000
      6 O6         2.1530   -0.9133   16.4232 O.2       1 RES1    0.0000
      7 O7         0.2584    3.0015   11.0595 O.2       1 RES1    0.0000
      8 O8        -0.0748    3.0365    8.9406 O.2       1 RES1    0.0000
      9 O9        -1.3399   -1.2753    7.1451 O.2       1 RES1    0.0000
     10 O10       -3.1000   -2.1945    7.9841 O.2       1 RES1    0.0000
     11 N1        -1.0743    3.7852   14.9706 N.pl3     1 RES1    0.0000
     12 N2         1.7980    0.2196   16.5092 N.pl3     1 RES1    0.0000
     13 N3        -0.2700    2.5846   10.0488 N.pl3     1 RES1    0.0000
     14 N4        -2.1968   -1.3793    8.0073 N.pl3     1 RES1    0.0000
     15 C1        -3.3027    2.2914   13.1847 C.2       1 RES1    0.0000
     16 C2        -1.9106    2.1781   12.5439 C.3       1 RES1    0.0000
     17 H1        -1.6430    3.0704   12.2419 H         1 RES1    0.0000
     18 C3        -0.8902    1.7040   13.5701 C.ar      1 RES1    0.0000
     19 C4        -0.5295    2.4468   14.6933 C.ar      1 RES1    0.0000
     20 C5         0.3627    1.9819   15.6429 C.ar      1 RES1    0.0000
     21 H2         0.5938    2.5028   16.3781 H         1 RES1    0.0000
     22 C6        -1.9816    1.2695   11.3227 C.ar      1 RES1    0.0000
     23 C7         0.8943    0.7358   15.4735 C.ar      1 RES1    0.0000
     24 C8         0.5822   -0.0455   14.3913 C.ar      1 RES1    0.0000
     25 H3         0.9516   -0.8946   14.2956 H         1 RES1    0.0000
     26 C9        -0.2867    0.4520   13.4484 C.ar      1 RES1    0.0000
     27 H4        -0.4794   -0.0666   12.7010 H         1 RES1    0.0000
     28 C10       -1.2116    1.4599   10.1731 C.ar      1 RES1    0.0000
     29 C11       -1.2734    0.6050    9.0909 C.ar      1 RES1    0.0000
     30 H5        -0.7434    0.7463    8.3393 H         1 RES1    0.0000
     31 C12       -2.1362   -0.4555    9.1551 C.ar      1 RES1    0.0000
     32 C13       -2.9410   -0.6797   10.2442 C.ar      1 RES1    0.0000
     33 H6        -3.5280   -1.4003   10.2633 H         1 RES1    0.0000
     34 C14       -2.8562    0.1927   11.3100 C.ar      1 RES1    0.0000
     35 H7        -3.4062    0.0537   12.0478 H         1 RES1    0.0000
     36 C15       -5.4746    3.3869   12.8185 C.3       1 RES1    0.0000
     37 C16       -5.4820    4.0900   14.1603 C.3       1 RES1    0.0000
     38 H8        -5.2348    3.4675   14.8477 H         1 RES1    0.0000
     39 H9        -6.3618    4.4310   14.3366 H         1 RES1    0.0000
     40 H10       -4.8537    4.8153   14.1440 H         1 RES1    0.0000
     41 C17       -6.2897    2.1256   12.7994 C.3       1 RES1    0.0000
     42 H11       -6.1637    1.6771   11.9590 H         1 RES1    0.0000
     43 H12       -7.2185    2.3428   12.9114 H         1 RES1    0.0000
     44 H13       -6.0063    1.5510   13.5140 H         1 RES1    0.0000
     45 C18       -5.9016    4.3317   11.7158 C.3       1 RES1    0.0000
     46 H14       -5.3066    5.0850   11.6912 H         1 RES1    0.0000
     47 H15       -6.7967    4.6366   11.8839 H         1 RES1    0.0000
     48 H16       -5.8731    3.8728   10.8727 H         1 RES1    0.0000
@<TRIPOS>BOND
     1    1   15 2
     2    2   15 1
     3    3   11 2
     4    4   11 2
     5    5   12 2
     6    6   12 2
     7    7   13 2
     8    8   13 2
     9    9   14 2
    10   10   14 2
    11   11   19 1
    12   12   23 1
    13   13   28 1
    14   14   31 1
    15   15   16 1
    16   16   17 1
    17   18   16 1
    18   19   18 ar
    19   20   19 ar
    20   21   20 1
    21   22   16 1
    22   23   20 ar
    23   24   23 ar
    24   25   24 1
    25   26   18 ar
    26   27   26 1
    27   28   22 ar
    28   29   28 ar
    29   30   29 1
    30   31   29 ar
    31   32   31 ar
    32   33   32 1
    33   34   22 ar
    34   35   34 1
    35   36    2 1
    36   37   36 1
    37   38   37 1
    38   39   37 1
    39   40   37 1
    40   41   36 1
    41   42   41 1
    42   43   41 1
    43   44   41 1
    44   45   36 1
    45   46   45 1
    46   47   45 1
    47   48   45 1
    48   24   26 ar
    49   32   34 ar
@<TRIPOS>SUBSTRUCTURE
     1 RES1 1

@<TRIPOS>CRYSIN
  12.7700   11.6790   14.3100  90.0000 107.2770  90.0000 231 1

