# MOL2 file generated by ConQuest
# Please check atom types

@<TRIPOS>MOLECULE
ECIBIB01
    19    19     1
SMALL
NO_CHARGES
****
Generated from CSD

@<TRIPOS>ATOM
      1 C1        -0.1568    8.3470    6.4082 C.ar      1 RES1    0.0000
      2 C2        -1.0541    7.7079    5.5851 C.ar      1 RES1    0.0000
      3 H1        -1.2857    6.8069    5.7250 H         1 RES1    0.0000
      4 C3        -1.5868    8.4013    4.5205 C.ar      1 RES1    0.0000
      5 H2        -2.1751    7.9454    3.9526 H         1 RES1    0.0000
      6 C4        -1.2408    9.7036    4.2991 C.ar      1 RES1    0.0000
      7 H3        -1.6731   10.1262    3.5592 H         1 RES1    0.0000
      8 C5        -0.3505   10.3219    5.1181 C.ar      1 RES1    0.0000
      9 H4        -0.1321   11.1991    4.9702 H         1 RES1    0.0000
     10 C6         0.2078    9.6524    6.1840 C.ar      1 RES1    0.0000
     11 H5         0.8718   10.0465    6.8255 H         1 RES1    0.0000
     12 C7        -0.1541    7.8700    8.8788 C.3       1 RES1    0.0000
     13 H6         0.4931    7.8339    9.5725 H         1 RES1    0.0000
     14 H7        -0.3699    8.6971    8.9467 H         1 RES1    0.0000
     15 H8        -0.8190    7.2658    9.1027 H         1 RES1    0.0000
     16 N1         0.3841    7.6810    7.5502 N.3       1 RES1    0.0000
     17 N2         1.2052    6.6356    7.3472 N.pl3     1 RES1    0.0000
     18 O1         1.6166    6.4463    6.2041 O.2       1 RES1    0.0000
     19 O2         1.5198    5.9583    8.3130 O.2       1 RES1    0.0000
@<TRIPOS>BOND
     1    1    2 ar
     2    2    3 1
     3    4    2 ar
     4    5    4 1
     5    6    4 ar
     6    7    6 1
     7    8    6 ar
     8    9    8 1
     9   10    1 ar
    10   11   10 1
    11   12   13 1
    12   14   12 1
    13   15   12 1
    14   16    1 1
    15   17   16 1
    16   18   17 2
    17   19   17 2
    18    8   10 ar
    19   12   16 1
@<TRIPOS>SUBSTRUCTURE
     1 RES1 1

@<TRIPOS>CRYSIN
   8.8060   10.9260   15.9250  90.0000  90.0000  90.0000  61 1

