# MOL2 file generated by ConQuest
# Please check atom types

@<TRIPOS>MOLECULE
ECIGAY
    37    38     1
SMALL
USER_CHARGES
****
Generated from CSD

@<TRIPOS>ATOM
      1 O1         3.6287   -1.5114    1.0096 O.2       1 RES1   -1.0000
      2 N1         3.0094   -1.2077   -0.0659 N.pl3     1 RES1    1.0000
      3 C1         2.7194   -2.2248   -1.1319 C.3       1 RES1    0.0000
      4 C2         1.4378   -2.9293   -0.6994 C.3       1 RES1    0.0000
      5 H1         1.5908   -3.2884    0.1320 H         1 RES1    0.0000
      6 H2         1.2820   -3.6699   -1.3196 H         1 RES1    0.0000
      7 H3         0.7123   -2.2652   -0.6315 H         1 RES1    0.0000
      8 C3         3.8651   -3.2018   -1.2385 C.3       1 RES1    0.0000
      9 H4         3.9326   -3.7098   -0.3676 H         1 RES1    0.0000
     10 H5         4.6584   -2.7265   -1.4421 H         1 RES1    0.0000
     11 H6         3.6488   -3.8665   -1.8851 H         1 RES1    0.0000
     12 C4         2.5218   -1.2839   -2.3456 C.3       1 RES1    0.0000
     13 C5         1.4789   -1.7354   -3.3489 C.3       1 RES1    0.0000
     14 H7         0.6432   -1.8512   -2.8936 H         1 RES1    0.0000
     15 H8         1.7119   -2.6319   -3.6760 H         1 RES1    0.0000
     16 H9         1.4445   -1.1267   -4.0907 H         1 RES1    0.0000
     17 C6         3.8316   -0.9070   -3.0473 C.3       1 RES1    0.0000
     18 H10        3.6205   -0.1789   -3.6948 H         1 RES1    0.0000
     19 H11        4.1704   -1.6649   -3.5157 H         1 RES1    0.0000
     20 H12        4.4934   -0.5648   -2.3564 H         1 RES1    0.0000
     21 N2         2.0629   -0.0389   -1.6447 N.pl3     1 RES1    0.0000
     22 O2         1.5041    0.9278   -2.2758 O.2       1 RES1    0.0000
     23 C7         2.4621   -0.0161   -0.3557 C.2       1 RES1    0.0000
     24 C8         2.3480    1.1209    0.5234 C.2       1 RES1    0.0000
     25 C9         2.4383    2.4360    0.1407 C.2       1 RES1    0.0000
     26 H13        2.6388    2.8389   -0.6975 H         1 RES1    0.0000
     27 N3         2.3035    3.1833    1.2390 N.pl3     1 RES1    0.0000
     28 C10        2.3882    4.6262    1.3488 C.3       1 RES1    0.0000
     29 H14        2.7341    4.9444    0.5278 H         1 RES1    0.0000
     30 H15        2.9203    4.8587    2.0736 H         1 RES1    0.0000
     31 H16        1.4695    5.0258    1.4704 H         1 RES1    0.0000
     32 N4         2.0991    2.4234    2.3488 N.2       1 RES1    0.0000
     33 C11        2.1263    1.1648    1.9260 C.2       1 RES1    0.0000
     34 C12        1.8858    0.0522    2.8955 C.3       1 RES1    0.0000
     35 H17        1.6874    0.3889    3.7985 H         1 RES1    0.0000
     36 H18        2.5891   -0.5988    2.9219 H         1 RES1    0.0000
     37 H19        1.1052   -0.4732    2.6863 H         1 RES1    0.0000
@<TRIPOS>BOND
     1    1    2 1
     2    2    3 1
     3    3    4 1
     4    4    5 1
     5    6    4 1
     6    7    4 1
     7    8    3 1
     8    9    8 1
     9   10    8 1
    10   11    8 1
    11   12    3 1
    12   13   12 1
    13   14   13 1
    14   15   13 1
    15   16   13 1
    16   17   12 1
    17   18   17 1
    18   19   17 1
    19   20   17 1
    20   21   12 1
    21   22   21 2
    22   23    2 2
    23   24   23 1
    24   25   24 2
    25   26   25 1
    26   27   25 1
    27   28   27 1
    28   29   28 1
    29   30   28 1
    30   31   28 1
    31   32   27 1
    32   33   24 1
    33   34   33 1
    34   35   34 1
    35   36   34 1
    36   37   34 1
    37   21   23 1
    38   32   33 2
@<TRIPOS>SUBSTRUCTURE
     1 RES1 1

@<TRIPOS>CRYSIN
   9.6520   14.7860   10.0800  90.0000 110.7600  90.0000  14 1

