# MOL2 file generated by ConQuest
# Please check atom types

@<TRIPOS>MOLECULE
ECIJAE
    51    52     1
SMALL
NO_CHARGES
****
Generated from CSD

@<TRIPOS>ATOM
      1 O1         0.4073    4.9045    7.4016 O.3       1 RES1    0.0000
      2 O2        -1.7849    4.4413    7.4900 O.2       1 RES1    0.0000
      3 O3        -3.1694    5.1109    5.0965 O.2       1 RES1    0.0000
      4 O4        -1.8034    6.1315    3.6103 O.3       1 RES1    0.0000
      5 O5        -0.4515   10.7420    5.8854 O.3       1 RES1    0.0000
      6 O6         1.5077   11.3721    4.1920 O.3       1 RES1    0.0000
      7 O7         3.1167    9.5074    3.1366 O.3       1 RES1    0.0000
      8 O8         1.7909    2.9069    6.0858 O.2       1 RES1    0.0000
      9 O9         3.1741    4.4557    5.1997 O.3       1 RES1    0.0000
     10 N1        -0.9002    4.9186    6.7892 N.pl3     1 RES1    0.0000
     11 C1        -0.8698    5.4778    5.6017 C.2       1 RES1    0.0000
     12 C2         0.5094    5.8847    5.1997 C.3       1 RES1    0.0000
     13 H1         0.7496    5.4034    4.3562 H         1 RES1    0.0000
     14 C3         1.3416    5.2749    6.3743 C.3       1 RES1    0.0000
     15 H2         1.9795    5.9581    6.7276 H         1 RES1    0.0000
     16 C4        -2.0888    5.5434    4.7757 C.2       1 RES1    0.0000
     17 C5        -2.9227    6.2553    2.6792 C.3       1 RES1    0.0000
     18 H3        -2.7156    6.9549    2.0107 H         1 RES1    0.0000
     19 H4        -3.7301    6.5391    3.1757 H         1 RES1    0.0000
     20 C6        -3.2069    4.9583    1.9680 C.3       1 RES1    0.0000
     21 H5        -3.9031    5.1016    1.2930 H         1 RES1    0.0000
     22 H6        -3.5132    4.2901    2.6158 H         1 RES1    0.0000
     23 H7        -2.3894    4.6383    1.5322 H         1 RES1    0.0000
     24 C7         0.7439    7.3699    4.9915 C.ar      1 RES1    0.0000
     25 C8        -0.0534    8.3430    5.5833 C.ar      1 RES1    0.0000
     26 H8        -0.7853    8.0969    6.1367 H         1 RES1    0.0000
     27 C9         0.2394    9.6899    5.3503 C.ar      1 RES1    0.0000
     28 C10        1.3014   10.0500    4.5145 C.ar      1 RES1    0.0000
     29 C11        2.1062    9.0590    3.9419 C.ar      1 RES1    0.0000
     30 C12        1.8283    7.7156    4.1810 C.ar      1 RES1    0.0000
     31 H9         2.3729    7.0388    3.7950 H         1 RES1    0.0000
     32 C13       -1.5948   10.4304    6.6848 C.3       1 RES1    0.0000
     33 H10       -2.0251   11.2613    6.9785 H         1 RES1    0.0000
     34 H11       -1.3140    9.9139    7.4686 H         1 RES1    0.0000
     35 H12       -2.2294    9.9039    6.1561 H         1 RES1    0.0000
     36 C14        2.2560   12.0840    5.1831 C.3       1 RES1    0.0000
     37 H13        2.4529   12.9869    4.8579 H         1 RES1    0.0000
     38 H14        3.0949   11.6107    5.3609 H         1 RES1    0.0000
     39 H15        1.7317   12.1416    6.0087 H         1 RES1    0.0000
     40 C15        3.9254    8.5083    2.5051 C.3       1 RES1    0.0000
     41 H16        4.6109    8.9422    1.9564 H         1 RES1    0.0000
     42 H17        3.3615    7.9429    1.9370 H         1 RES1    0.0000
     43 H18        4.3575    7.9567    3.1899 H         1 RES1    0.0000
     44 C16        2.1090    4.0506    5.8996 C.2       1 RES1    0.0000
     45 C17        3.9833    3.4066    4.5815 C.3       1 RES1    0.0000
     46 H19        3.4181    2.8300    4.0084 H         1 RES1    0.0000
     47 H20        4.4053    2.8426    5.2769 H         1 RES1    0.0000
     48 C18        5.0373    4.0942    3.7548 C.3       1 RES1    0.0000
     49 H21        5.5719    3.4223    3.2817 H         1 RES1    0.0000
     50 H22        5.6199    4.6207    4.3407 H         1 RES1    0.0000
     51 H23        4.6070    4.6871    3.1033 H         1 RES1    0.0000
@<TRIPOS>BOND
     1    1   10 1
     2    2   10 1
     3    3   16 2
     4    4   16 1
     5    5   27 1
     6    6   28 1
     7    7   29 1
     8    8   44 2
     9    9   44 1
    10   10   11 2
    11   11   12 1
    12   12   13 1
    13   14    1 1
    14   15   14 1
    15   16   11 1
    16   17    4 1
    17   18   17 1
    18   19   17 1
    19   20   17 1
    20   21   20 1
    21   22   20 1
    22   23   20 1
    23   24   12 1
    24   25   24 ar
    25   26   25 1
    26   27   25 ar
    27   28   27 ar
    28   29   28 ar
    29   30   24 ar
    30   31   30 1
    31   32    5 1
    32   33   32 1
    33   34   32 1
    34   35   32 1
    35   36    6 1
    36   37   36 1
    37   38   36 1
    38   39   36 1
    39   40    7 1
    40   41   40 1
    41   42   40 1
    42   43   40 1
    43   44   14 1
    44   45    9 1
    45   46   45 1
    46   47   45 1
    47   48   45 1
    48   49   48 1
    49   50   48 1
    50   51   48 1
    51   12   14 1
    52   29   30 ar
@<TRIPOS>SUBSTRUCTURE
     1 RES1 1

@<TRIPOS>CRYSIN
  11.5804   12.5223   14.0268  90.0000 112.8050  90.0000 231 1

