# MOL2 file generated by ConQuest
# Please check atom types

@<TRIPOS>MOLECULE
ECINAH
    44    47     1
SMALL
NO_CHARGES
****
Generated from CSD

@<TRIPOS>ATOM
      1 O1         9.0905    5.8460    3.0371 O.3       1 RES1    0.0000
      2 O2         9.7545   11.7359    5.7012 O.3       1 RES1    0.0000
      3 C1        10.9435   12.8807    7.3534 C.ar      1 RES1    0.0000
      4 H1        10.4978   13.6741    7.0801 H         1 RES1    0.0000
      5 O3         8.7595   10.8793    3.9619 O.2       1 RES1    0.0000
      6 O4        13.4050    7.1825    7.6500 O.2       1 RES1    0.0000
      7 O5        14.7182    6.7830   10.7531 O.2       1 RES1    0.0000
      8 O6        14.4121    8.6945    9.7790 O.2       1 RES1    0.0000
      9 O7         8.7965    8.3878    3.4831 O.3       1 RES1    0.0000
     10 O8        10.3399    4.6578    4.4263 O.2       1 RES1    0.0000
     11 C2         8.8596    4.6268    2.2884 C.3       1 RES1    0.0000
     12 H2         9.7007    4.3294    1.8816 H         1 RES1    0.0000
     13 H3         8.1985    4.7954    1.5851 H         1 RES1    0.0000
     14 H4         8.5246    3.9314    2.8918 H         1 RES1    0.0000
     15 C3         9.8776    5.7122    4.0943 C.2       1 RES1    0.0000
     16 C4        10.1493    6.9790    4.8338 C.ar      1 RES1    0.0000
     17 C5         9.6414    8.2435    4.5109 C.ar      1 RES1    0.0000
     18 C6        10.0300    9.3639    5.2970 C.ar      1 RES1    0.0000
     19 C7         9.4911   10.6709    4.9259 C.2       1 RES1    0.0000
     20 C8        10.6718   11.6667    6.7320 C.ar      1 RES1    0.0000
     21 C9        11.8722   12.9122    8.3742 C.ar      1 RES1    0.0000
     22 H5        12.0597   13.7304    8.8196 H         1 RES1    0.0000
     23 C10       10.9001    9.2365    6.4046 C.ar      1 RES1    0.0000
     24 C11       11.3675    7.9449    6.7232 C.ar      1 RES1    0.0000
     25 C12       12.2742    7.5739    7.8684 C.2       1 RES1    0.0000
     26 C13       11.7146    7.5258    9.2556 C.ar      1 RES1    0.0000
     27 C14       12.5414    7.4664   10.3867 C.ar      1 RES1    0.0000
     28 C15       12.0481    7.2809   11.6613 C.ar      1 RES1    0.0000
     29 H6        12.6354    7.2474   12.4070 H         1 RES1    0.0000
     30 C16       10.6749    7.1441   11.8336 C.ar      1 RES1    0.0000
     31 H7        10.3196    7.0157   12.7046 H         1 RES1    0.0000
     32 C17        9.8226    7.1941   10.7440 C.ar      1 RES1    0.0000
     33 H8         8.8856    7.0993   10.8681 H         1 RES1    0.0000
     34 C18       10.3423    7.3842    9.4613 C.ar      1 RES1    0.0000
     35 H9         9.7525    7.4177    8.7182 H         1 RES1    0.0000
     36 N1        14.0023    7.6565   10.2787 N.pl3     1 RES1    0.0000
     37 C19       11.0061    6.8663    5.9256 C.ar      1 RES1    0.0000
     38 H10       11.3606    6.0101    6.1353 H         1 RES1    0.0000
     39 C20       11.2801   10.4664    7.1036 C.ar      1 RES1    0.0000
     40 C21       12.2510   10.5514    8.1195 C.ar      1 RES1    0.0000
     41 H11       12.7226    9.7676    8.3766 H         1 RES1    0.0000
     42 C22       12.5344   11.7466    8.7523 C.ar      1 RES1    0.0000
     43 H12       13.1819   11.7731    9.4465 H         1 RES1    0.0000
     44 H13        8.6382    9.3276    3.4408 H         1 RES1    0.0000
@<TRIPOS>BOND
     1    1   11 1
     2    2   19 1
     3    3    4 1
     4    5   19 2
     5    6   25 2
     6    7   36 2
     7    8   36 2
     8    9   17 1
     9   10   15 2
    10   11   12 1
    11   13   11 1
    12   14   11 1
    13   15    1 1
    14   16   15 1
    15   17   16 ar
    16   18   17 ar
    17   19   18 1
    18   20    2 1
    19   21    3 ar
    20   22   21 1
    21   23   18 ar
    22   24   23 ar
    23   25   24 1
    24   26   25 1
    25   27   26 ar
    26   28   27 ar
    27   29   28 1
    28   30   28 ar
    29   31   30 1
    30   32   30 ar
    31   33   32 1
    32   34   26 ar
    33   35   34 1
    34   36   27 1
    35   37   16 ar
    36   38   37 1
    37   39   20 ar
    38   40   39 ar
    39   41   40 1
    40   42   21 ar
    41   43   42 1
    42   44    9 1
    43    3   20 ar
    44   23   39 1
    45   24   37 ar
    46   32   34 ar
    47   40   42 ar
@<TRIPOS>SUBSTRUCTURE
     1 RES1 1

@<TRIPOS>CRYSIN
   8.6996    9.4687   11.8581  87.3600  71.9960  77.0730   2 1

