# MOL2 file generated by ConQuest
# Please check atom types

@<TRIPOS>MOLECULE
ECIQAK
    58    62     1
SMALL
NO_CHARGES
****
Generated from CSD

@<TRIPOS>ATOM
      1 N1         8.4967    6.8293    6.7082 N.pl3     1 RES1    0.0000
      2 O1        12.5168    3.7711    3.6858 O.2       1 RES1    0.0000
      3 O2        11.7458    1.3777    3.1625 O.3       1 RES1    0.0000
      4 O3        14.6822    8.8845    0.7392 O.3       1 RES1    0.0000
      5 O4         8.7813    7.3134    7.7938 O.2       1 RES1    0.0000
      6 O5         7.3803    6.4034    6.4329 O.2       1 RES1    0.0000
      7 C1        14.0949    7.7481    1.2024 C.ar      1 RES1    0.0000
      8 C2        13.1672    7.7940    2.2634 C.ar      1 RES1    0.0000
      9 C3        12.5500    6.6121    2.6829 C.ar      1 RES1    0.0000
     10 C4        12.8509    5.4110    2.0168 C.ar      1 RES1    0.0000
     11 C5        13.7557    5.4102    0.9571 C.ar      1 RES1    0.0000
     12 H1        13.9335    4.5923    0.5090 H         1 RES1    0.0000
     13 C6        14.4079    6.5599    0.5308 C.ar      1 RES1    0.0000
     14 C7        12.8356    9.1298    2.8564 C.ar      1 RES1    0.0000
     15 C8        13.7174    9.7732    3.7029 C.ar      1 RES1    0.0000
     16 H2        14.5493    9.3655    3.9174 H         1 RES1    0.0000
     17 C9        13.3997   11.0114    4.2426 C.ar      1 RES1    0.0000
     18 H3        14.0173   11.4485    4.8192 H         1 RES1    0.0000
     19 C10       12.2075   11.6093    3.9502 C.ar      1 RES1    0.0000
     20 H4        11.9950   12.4578    4.3184 H         1 RES1    0.0000
     21 C11       11.3096   10.9716    3.1160 C.ar      1 RES1    0.0000
     22 H5        10.4756   11.3801    2.9124 H         1 RES1    0.0000
     23 C12       11.6274    9.7346    2.5770 C.ar      1 RES1    0.0000
     24 H6        11.0039    9.2971    2.0072 H         1 RES1    0.0000
     25 C13       11.5188    6.6443    3.7603 C.ar      1 RES1    0.0000
     26 C14       11.7826    7.2121    5.0091 C.ar      1 RES1    0.0000
     27 H7        12.6472    7.5599    5.1950 H         1 RES1    0.0000
     28 C15       10.7981    7.2704    5.9752 C.ar      1 RES1    0.0000
     29 H8        10.9748    7.6605    6.8223 H         1 RES1    0.0000
     30 C16        9.5534    6.7513    5.6910 C.ar      1 RES1    0.0000
     31 C17        9.2590    6.1666    4.4749 C.ar      1 RES1    0.0000
     32 H9         8.3951    5.8067    4.3034 H         1 RES1    0.0000
     33 C18       10.2493    6.1159    3.5150 C.ar      1 RES1    0.0000
     34 H10       10.0639    5.7142    2.6733 H         1 RES1    0.0000
     35 C19       12.3470    4.0993    2.5059 C.2       1 RES1    0.0000
     36 C20       11.6700    3.1856    1.5590 C.ar      1 RES1    0.0000
     37 C21       11.3949    1.8622    1.9416 C.ar      1 RES1    0.0000
     38 C22       10.7463    1.0077    1.0596 C.ar      1 RES1    0.0000
     39 H11       10.5740    0.1086    1.3131 H         1 RES1    0.0000
     40 C23       10.3525    1.4589   -0.1790 C.ar      1 RES1    0.0000
     41 H12        9.9145    0.8646   -0.7761 H         1 RES1    0.0000
     42 C24       10.5882    2.7710   -0.5677 C.ar      1 RES1    0.0000
     43 H13       10.2971    3.0803   -1.4176 H         1 RES1    0.0000
     44 C25       11.2484    3.6187    0.2931 C.ar      1 RES1    0.0000
     45 H14       11.4230    4.5118    0.0246 H         1 RES1    0.0000
     46 C26       15.3268    6.5180   -0.6347 C.ar      1 RES1    0.0000
     47 C27       15.0156    5.7347   -1.7421 C.ar      1 RES1    0.0000
     48 H15       14.2250    5.2075   -1.7394 H         1 RES1    0.0000
     49 C28       15.8522    5.7178   -2.8530 C.ar      1 RES1    0.0000
     50 H16       15.6351    5.1713   -3.5990 H         1 RES1    0.0000
     51 C29       16.9949    6.4891   -2.8803 C.ar      1 RES1    0.0000
     52 H17       17.5480    6.5024   -3.6530 H         1 RES1    0.0000
     53 C30       17.3301    7.2451   -1.7742 C.ar      1 RES1    0.0000
     54 H18       18.1274    7.7610   -1.7804 H         1 RES1    0.0000
     55 C31       16.5128    7.2588   -0.6545 C.ar      1 RES1    0.0000
     56 H19       16.7610    7.7731    0.1045 H         1 RES1    0.0000
     57 H20       14.5675    9.5183    1.3186 H         1 RES1    0.0000
     58 H21       12.1153    2.0750    3.6619 H         1 RES1    0.0000
@<TRIPOS>BOND
     1    1    5 2
     2    2   35 2
     3    3   37 1
     4    4    7 1
     5    6    1 2
     6    7    8 ar
     7    8    9 ar
     8    9   10 ar
     9   10   11 ar
    10   11   12 1
    11   13    7 ar
    12   14    8 1
    13   15   14 ar
    14   16   15 1
    15   17   15 ar
    16   18   17 1
    17   19   17 ar
    18   20   19 1
    19   21   19 ar
    20   22   21 1
    21   23   14 ar
    22   24   23 1
    23   25    9 1
    24   26   25 ar
    25   27   26 1
    26   28   26 ar
    27   29   28 1
    28   30    1 1
    29   31   30 ar
    30   32   31 1
    31   33   25 ar
    32   34   33 1
    33   35   10 1
    34   36   35 1
    35   37   36 ar
    36   38   37 ar
    37   39   38 1
    38   40   38 ar
    39   41   40 1
    40   42   40 ar
    41   43   42 1
    42   44   36 ar
    43   45   44 1
    44   46   13 1
    45   47   46 ar
    46   48   47 1
    47   49   47 ar
    48   50   49 1
    49   51   49 ar
    50   52   51 1
    51   53   51 ar
    52   54   53 1
    53   55   46 ar
    54   56   55 1
    55   57    4 1
    56   58    3 1
    57   11   13 ar
    58   21   23 ar
    59   28   30 ar
    60   31   33 ar
    61   42   44 ar
    62   53   55 ar
@<TRIPOS>SUBSTRUCTURE
     1 RES1 1

@<TRIPOS>CRYSIN
  36.4369   40.2125    6.8319  90.0000  90.0000  90.0000  43 1

