# MOL2 file generated by ConQuest
# Please check atom types

@<TRIPOS>MOLECULE
ECUMUN
    45    48     1
SMALL
NO_CHARGES
****
Generated from CSD

@<TRIPOS>ATOM
      1 O1        -0.6235    1.8202    4.4302 O.3       1 RES1    0.0000
      2 N1        -2.0328    1.6259    4.7173 N.3       1 RES1    0.0000
      3 C1        -2.7438    1.5397    3.5010 C.ar      1 RES1    0.0000
      4 C2        -4.0281    1.0304    3.4993 C.ar      1 RES1    0.0000
      5 H1        -4.3936    0.6942    4.2851 H         1 RES1    0.0000
      6 C3        -4.7687    1.0182    2.3373 C.ar      1 RES1    0.0000
      7 H2        -5.6326    0.6744    2.3490 H         1 RES1    0.0000
      8 C4        -4.2533    1.5055    1.1655 C.ar      1 RES1    0.0000
      9 H3        -4.7597    1.4898    0.3853 H         1 RES1    0.0000
     10 C5        -2.9772    2.0186    1.1591 C.ar      1 RES1    0.0000
     11 H4        -2.6196    2.3539    0.3693 H         1 RES1    0.0000
     12 C6        -2.2227    2.0407    2.3170 C.ar      1 RES1    0.0000
     13 H5        -1.3625    2.3931    2.3022 H         1 RES1    0.0000
     14 C7        -3.1907    0.7620    6.7191 C.ar      1 RES1    0.0000
     15 C8        -3.9011   -0.3054    7.2344 C.ar      1 RES1    0.0000
     16 H6        -3.7334   -1.1605    6.9098 H         1 RES1    0.0000
     17 C9        -4.8484   -0.1329    8.2147 C.ar      1 RES1    0.0000
     18 H7        -5.3125   -0.8667    8.5468 H         1 RES1    0.0000
     19 C10       -5.1050    1.1072    8.6969 C.ar      1 RES1    0.0000
     20 H8        -5.7400    1.2241    9.3664 H         1 RES1    0.0000
     21 C11       -4.4248    2.1987    8.1934 C.ar      1 RES1    0.0000
     22 H9        -4.6097    3.0515    8.5159 H         1 RES1    0.0000
     23 C12       -3.4615    2.0247    7.2007 C.ar      1 RES1    0.0000
     24 H10       -3.0013    2.7598    6.8641 H         1 RES1    0.0000
     25 C13       -0.4892    0.0499    7.6862 C.ar      1 RES1    0.0000
     26 C14       -0.5412    1.0068    8.6785 C.ar      1 RES1    0.0000
     27 H11       -0.7215    1.8911    8.4542 H         1 RES1    0.0000
     28 C15       -0.3297    0.6677   10.0060 C.ar      1 RES1    0.0000
     29 H12       -0.3736    1.3239   10.6628 H         1 RES1    0.0000
     30 C16       -0.0555   -0.6245   10.3530 C.ar      1 RES1    0.0000
     31 H13        0.0878   -0.8495   11.2439 H         1 RES1    0.0000
     32 C17        0.0050   -1.5822    9.3855 C.ar      1 RES1    0.0000
     33 H14        0.1900   -2.4635    9.6165 H         1 RES1    0.0000
     34 C18       -0.2076   -1.2476    8.0668 C.ar      1 RES1    0.0000
     35 H15       -0.1614   -1.9116    7.4175 H         1 RES1    0.0000
     36 C19       -2.1315    0.5019    5.6800 C.3       1 RES1    0.0000
     37 H16       -2.3602   -0.3166    5.1909 H         1 RES1    0.0000
     38 C20       -0.6714    0.3785    6.2199 C.3       1 RES1    0.0000
     39 H17       -0.2538   -0.3531    5.7199 H         1 RES1    0.0000
     40 C21       -0.0226    1.6622    5.7205 C.3       1 RES1    0.0000
     41 H18       -0.2512    2.4161    6.3042 H         1 RES1    0.0000
     42 C22        1.4610    1.5813    5.5176 C.3       1 RES1    0.0000
     43 H19        1.6616    0.8676    4.9078 H         1 RES1    0.0000
     44 H20        1.8900    1.4135    6.3595 H         1 RES1    0.0000
     45 H21        1.7801    2.4113    5.1547 H         1 RES1    0.0000
@<TRIPOS>BOND
     1    1    2 1
     2    2    3 1
     3    3    4 ar
     4    4    5 1
     5    6    4 ar
     6    7    6 1
     7    8    6 ar
     8    9    8 1
     9   10    8 ar
    10   11   10 1
    11   12    3 ar
    12   13   12 1
    13   14   15 ar
    14   15   16 1
    15   17   15 ar
    16   18   17 1
    17   19   17 ar
    18   20   19 1
    19   21   19 ar
    20   22   21 1
    21   23   14 ar
    22   24   23 1
    23   25   26 ar
    24   26   27 1
    25   28   26 ar
    26   29   28 1
    27   30   28 ar
    28   31   30 1
    29   32   30 ar
    30   33   32 1
    31   34   25 ar
    32   35   34 1
    33   36    2 1
    34   37   36 1
    35   38   25 1
    36   39   38 1
    37   40    1 1
    38   41   40 1
    39   42   40 1
    40   43   42 1
    41   44   42 1
    42   45   42 1
    43   10   12 ar
    44   14   36 1
    45   21   23 ar
    46   32   34 ar
    47   36   38 1
    48   38   40 1
@<TRIPOS>SUBSTRUCTURE
     1 RES1 1

@<TRIPOS>CRYSIN
   8.4694    9.9145   11.0455 104.2100  93.4960 100.1260   2 1

