# MOL2 file generated by ConQuest
# Please check atom types

@<TRIPOS>MOLECULE
ECUXOQ
    34    37     1
SMALL
NO_CHARGES
****
Generated from CSD

@<TRIPOS>ATOM
      1 C1         2.6143    9.5743    1.8763 C.3       1 RES1    0.0000
      2 H1         2.8296    9.1867    1.0023 H         1 RES1    0.0000
      3 N1         2.4093    8.5286    2.8985 N.3       1 RES1    0.0000
      4 N2         1.4041    7.5952    2.7001 N.pl3     1 RES1    0.0000
      5 O1         1.0756    6.9359    3.6747 O.2       1 RES1    0.0000
      6 O2         0.9881    7.4937    1.5709 O.2       1 RES1    0.0000
      7 C2         2.6091    9.0792    4.2274 C.3       1 RES1    0.0000
      8 H2         3.0397    8.4247    4.8171 H         1 RES1    0.0000
      9 N3         1.4384    9.6081    4.8251 N.3       1 RES1    0.0000
     10 N4         0.7462    8.8304    5.7983 N.pl3     1 RES1    0.0000
     11 O3         1.3535    7.9924    6.3457 O.2       1 RES1    0.0000
     12 O4        -0.4271    9.1432    5.9675 O.2       1 RES1    0.0000
     13 C3         0.7230   10.6055    4.0886 C.3       1 RES1    0.0000
     14 H3        -0.0703   10.9073    4.5791 H         1 RES1    0.0000
     15 N5         0.3602   10.0983    2.7491 N.3       1 RES1    0.0000
     16 N6        -0.9966   10.1684    2.3537 N.pl3     1 RES1    0.0000
     17 O5        -1.7883   10.1164    3.2502 O.2       1 RES1    0.0000
     18 O6        -1.2317   10.1828    1.1623 O.2       1 RES1    0.0000
     19 C4         1.3689   10.5234    1.7983 C.3       1 RES1    0.0000
     20 H4         1.0095   10.5789    0.8873 H         1 RES1    0.0000
     21 N7         1.6536   11.8746    2.3656 N.3       1 RES1    0.0000
     22 N8         2.5843   12.6268    1.6397 N.pl3     1 RES1    0.0000
     23 O7         3.0903   13.5469    2.2704 O.2       1 RES1    0.0000
     24 O8         2.7592   12.3696    0.4588 O.2       1 RES1    0.0000
     25 C5         1.7060   11.8021    3.8122 C.3       1 RES1    0.0000
     26 H5         1.3697   12.6292    4.2142 H         1 RES1    0.0000
     27 N9         2.9925   11.4604    4.3451 N.3       1 RES1    0.0000
     28 N10        3.7859   12.4819    4.8489 N.pl3     1 RES1    0.0000
     29 O9         4.9223   12.2368    5.0327 O.2       1 RES1    0.0000
     30 O10        3.2352   13.5506    5.1530 O.2       1 RES1    0.0000
     31 C6         3.6049   10.2444    3.8545 C.3       1 RES1    0.0000
     32 H6         4.4763   10.1019    4.2803 H         1 RES1    0.0000
     33 N11        3.7404   10.2650    2.4423 N.3       1 RES1    0.0000
     34 H7         4.6144   10.0464    2.1686 H         1 RES1    0.0000
@<TRIPOS>BOND
     1    1    2 1
     2    3    1 1
     3    4    3 1
     4    5    4 2
     5    6    4 2
     6    7    3 1
     7    8    7 1
     8    9    7 1
     9   10    9 1
    10   11   10 2
    11   12   10 2
    12   13    9 1
    13   14   13 1
    14   15   13 1
    15   16   15 1
    16   17   16 2
    17   18   16 2
    18   19    1 1
    19   20   19 1
    20   21   19 1
    21   22   21 1
    22   23   22 2
    23   24   22 2
    24   25   13 1
    25   26   25 1
    26   27   25 1
    27   28   27 1
    28   29   28 2
    29   30   28 2
    30   31    7 1
    31   32   31 1
    32   33    1 1
    33   34   33 1
    34   15   19 1
    35   21   25 1
    36   27   31 1
    37   31   33 1
@<TRIPOS>SUBSTRUCTURE
     1 RES1 1

@<TRIPOS>CRYSIN
   8.5770   12.0750   13.2230  90.0000  90.0000  90.0000  19 1

