# MOL2 file generated by ConQuest
# Please check atom types

@<TRIPOS>MOLECULE
ECUYOR
    40    41     1
SMALL
NO_CHARGES
****
Generated from CSD

@<TRIPOS>ATOM
      1 N1         1.0355    2.3083    0.8069 N.am      1 RES1    0.0000
      2 H1         0.6461    2.4759    0.1010 H         1 RES1    0.0000
      3 C1         1.8946    1.2006    0.8091 C.2       1 RES1    0.0000
      4 C2         2.5211    0.8224    1.9442 C.2       1 RES1    0.0000
      5 C3         2.2785    1.5579    3.2515 C.3       1 RES1    0.0000
      6 H2         3.1504    1.6364    3.7357 H         1 RES1    0.0000
      7 C4         1.7414    2.9577    3.0015 C.2       1 RES1    0.0000
      8 C5         1.0044    3.2760    1.7803 C.2       1 RES1    0.0000
      9 C6         1.2966    0.7784    4.1441 C.ar      1 RES1    0.0000
     10 C7         1.3675    0.6757    5.5363 C.ar      1 RES1    0.0000
     11 C8         0.4040    0.0259    6.3015 C.ar      1 RES1    0.0000
     12 H3         0.4865   -0.0110    7.2468 H         1 RES1    0.0000
     13 C9        -0.6770   -0.5670    5.6703 C.ar      1 RES1    0.0000
     14 H4        -1.3350   -1.0270    6.1788 H         1 RES1    0.0000
     15 C10       -0.7920   -0.4840    4.2952 C.ar      1 RES1    0.0000
     16 H5        -1.5341   -0.8842    3.8566 H         1 RES1    0.0000
     17 C11        0.1761    0.1846    3.5516 C.ar      1 RES1    0.0000
     18 H6         0.0732    0.2403    2.6095 H         1 RES1    0.0000
     19 C12        1.9973    0.5485   -0.5395 C.3       1 RES1    0.0000
     20 H7         2.9341    0.3260   -0.7238 H         1 RES1    0.0000
     21 H8         1.6665    1.1647   -1.2258 H         1 RES1    0.0000
     22 H9         1.4597   -0.2703   -0.5489 H         1 RES1    0.0000
     23 O1         3.5446   -1.1729    1.0818 O.2       1 RES1    0.0000
     24 C13        3.4263   -0.3422    1.9533 C.2       1 RES1    0.0000
     25 O2         4.1358   -0.3980    3.1003 O.3       1 RES1    0.0000
     26 C14        5.0924   -1.4812    3.1902 C.3       1 RES1    0.0000
     27 H10        4.6348   -2.3353    3.0418 H         1 RES1    0.0000
     28 H11        5.5035   -1.4819    4.0799 H         1 RES1    0.0000
     29 H12        5.7879   -1.3610    2.5099 H         1 RES1    0.0000
     30 C15        1.9191    3.9413    3.9014 C.2       1 RES1    0.0000
     31 H13        1.5682    4.8083    3.7371 H         1 RES1    0.0000
     32 O3         2.5911    3.6923    5.0275 O.3       1 RES1    0.0000
     33 C16        2.7627    4.7981    5.9416 C.3       1 RES1    0.0000
     34 H14        3.1174    5.5715    5.4550 H         1 RES1    0.0000
     35 H15        3.3898    4.5424    6.6495 H         1 RES1    0.0000
     36 H16        1.8977    5.0302    6.3395 H         1 RES1    0.0000
     37 O4         0.3956    4.3354    1.5870 O.2       1 RES1    0.0000
     38 N2         2.5067    1.1983    6.3143 N.pl3     1 RES1    0.0000
     39 O5         3.6451    0.9953    5.8985 O.2       1 RES1    0.0000
     40 O6         2.2443    1.7775    7.3671 O.2       1 RES1    0.0000
@<TRIPOS>BOND
     1    1    2 1
     2    3    1 1
     3    4    3 2
     4    5    4 1
     5    6    5 1
     6    7    5 1
     7    8    1 1
     8    9    5 1
     9   10    9 ar
    10   11   10 ar
    11   12   11 1
    12   13   11 ar
    13   14   13 1
    14   15   13 ar
    15   16   15 1
    16   17    9 ar
    17   18   17 1
    18   19    3 1
    19   20   19 1
    20   21   19 1
    21   22   19 1
    22   23   24 2
    23   24    4 1
    24   25   24 1
    25   26   25 1
    26   27   26 1
    27   28   26 1
    28   29   26 1
    29   30    7 2
    30   31   30 1
    31   32   30 1
    32   33   32 1
    33   34   33 1
    34   35   33 1
    35   36   33 1
    36   37    8 2
    37   38   10 1
    38   39   38 2
    39   40   38 2
    40    7    8 1
    41   15   17 ar
@<TRIPOS>SUBSTRUCTURE
     1 RES1 1

@<TRIPOS>CRYSIN
  14.7121    7.3252   15.6777  90.0000 114.8990  90.0000  14 1

