# MOL2 file generated by ConQuest
# Please check atom types

@<TRIPOS>MOLECULE
ECUYUX
    44    47     1
SMALL
NO_CHARGES
****
Generated from CSD

@<TRIPOS>ATOM
      1 N1         1.7483    1.4201    4.4931 N.ar      1 RES1    0.0000
      2 C1         0.7373    1.6986    5.3311 C.ar      1 RES1    0.0000
      3 C2         0.9632    1.9547    6.6913 C.ar      1 RES1    0.0000
      4 C3         3.3359    1.6960    6.2877 C.ar      1 RES1    0.0000
      5 C4         2.2793    1.9675    7.1689 C.ar      1 RES1    0.0000
      6 C5         4.7157    1.5612    6.7901 C.2       1 RES1    0.0000
      7 H1         4.7832    1.3223    7.7073 H         1 RES1    0.0000
      8 N2         5.8333    1.7132    6.1937 N.2       1 RES1    0.0000
      9 C6         5.9277    2.1330    4.8487 C.ar      1 RES1    0.0000
     10 C7         7.0628    2.8713    4.5001 C.ar      1 RES1    0.0000
     11 H2         7.7179    3.0565    5.1622 H         1 RES1    0.0000
     12 C8         7.2517    3.3373    3.2124 C.ar      1 RES1    0.0000
     13 H3         8.0228    3.8506    3.0013 H         1 RES1    0.0000
     14 C9         6.3135    3.0550    2.2288 C.ar      1 RES1    0.0000
     15 H4         6.4424    3.3722    1.3426 H         1 RES1    0.0000
     16 C10        5.1869    2.3077    2.5435 C.ar      1 RES1    0.0000
     17 H5         4.5437    2.1108    1.8728 H         1 RES1    0.0000
     18 C11        5.0026    1.8496    3.8380 C.ar      1 RES1    0.0000
     19 O1         3.9225    0.9940    4.0599 O.3       1 RES1    0.0000
     20 C12        2.9797    1.4133    4.9689 C.ar      1 RES1    0.0000
     21 C13       -0.6205    1.7262    4.6810 C.3       1 RES1    0.0000
     22 H6        -0.8957    2.6566    4.5399 H         1 RES1    0.0000
     23 H7        -1.2702    1.2782    5.2623 H         1 RES1    0.0000
     24 H8        -0.5787    1.2638    3.8176 H         1 RES1    0.0000
     25 C14       -0.1460    2.1614    7.6823 C.2       1 RES1    0.0000
     26 O2        -0.1347    1.7033    8.7952 O.2       1 RES1    0.0000
     27 O3        -1.1383    2.9099    7.1991 O.3       1 RES1    0.0000
     28 C15       -2.2501    3.1430    8.0987 C.3       1 RES1    0.0000
     29 H9        -2.7140    2.2976    8.2695 H         1 RES1    0.0000
     30 H10       -2.8726    3.7809    7.6893 H         1 RES1    0.0000
     31 H11       -1.9155    3.5092    8.9438 H         1 RES1    0.0000
     32 C16        2.5655    2.4543    8.5571 C.ar      1 RES1    0.0000
     33 C17        2.6993    1.6670    9.7022 C.ar      1 RES1    0.0000
     34 C18        2.8916    2.2048   10.9627 C.ar      1 RES1    0.0000
     35 H12        2.9853    1.6388   11.7190 H         1 RES1    0.0000
     36 C19        2.9457    3.5792   11.1026 C.ar      1 RES1    0.0000
     37 H13        3.0771    3.9660   11.9591 H         1 RES1    0.0000
     38 C20        2.8078    4.3896    9.9889 C.ar      1 RES1    0.0000
     39 H14        2.8375    5.3340   10.0883 H         1 RES1    0.0000
     40 C21        2.6273    3.8367    8.7293 C.ar      1 RES1    0.0000
     41 H15        2.5450    4.4076    7.9734 H         1 RES1    0.0000
     42 N3         2.5830    0.2100    9.6099 N.pl3     1 RES1    0.0000
     43 O4         2.7204   -0.3310    8.5251 O.2       1 RES1    0.0000
     44 O5         2.3466   -0.4069   10.6432 O.2       1 RES1    0.0000
@<TRIPOS>BOND
     1    1    2 ar
     2    2    3 ar
     3    3    5 ar
     4    4    5 ar
     5    5   32 1
     6    6    4 1
     7    7    6 1
     8    8    6 2
     9    9    8 1
    10   10    9 ar
    11   11   10 1
    12   12   10 ar
    13   13   12 1
    14   14   12 ar
    15   15   14 1
    16   16   14 ar
    17   17   16 1
    18   18    9 ar
    19   19   18 1
    20   20    1 ar
    21   21    2 1
    22   22   21 1
    23   23   21 1
    24   24   21 1
    25   25    3 1
    26   26   25 2
    27   27   25 1
    28   28   27 1
    29   29   28 1
    30   30   28 1
    31   31   28 1
    32   32   33 ar
    33   33   34 ar
    34   34   35 1
    35   36   34 ar
    36   37   36 1
    37   38   36 ar
    38   39   38 1
    39   40   32 ar
    40   41   40 1
    41   42   33 1
    42   43   42 2
    43   44   42 2
    44    4   20 ar
    45   16   18 ar
    46   19   20 1
    47   38   40 ar
@<TRIPOS>SUBSTRUCTURE
     1 RES1 1

@<TRIPOS>CRYSIN
  11.2798    8.0138   20.1417  90.0000  96.5910  90.0000 231 1

