# MOL2 file generated by ConQuest
# Please check atom types

@<TRIPOS>MOLECULE
EDAFUL
    32    34     1
SMALL
NO_CHARGES
****
Generated from CSD

@<TRIPOS>ATOM
      1 N1        10.1772    2.8895    4.9642 N.2       1 RES1    0.0000
      2 O1         7.2903    4.0618    3.8607 O.3       1 RES1    0.0000
      3 O2         5.8688    2.7154    5.0074 O.3       1 RES1    0.0000
      4 O3         6.4206    0.4869    6.4052 O.3       1 RES1    0.0000
      5 O4         7.8499   -1.0100    7.1989 O.2       1 RES1    0.0000
      6 O5        10.7307    2.4090    6.1771 O.3       1 RES1    0.0000
      7 C1         5.9241    3.9539    4.2892 C.3       1 RES1    0.0000
      8 C2         5.6331    5.0645    5.2324 C.3       1 RES1    0.0000
      9 C3         5.0182    3.9367    3.0978 C.3       1 RES1    0.0000
     10 C4         7.9068    2.7870    3.9285 C.3       1 RES1    0.0000
     11 C5         6.8127    1.8251    4.4356 C.3       1 RES1    0.0000
     12 C6         7.4483    1.0064    5.5591 C.3       1 RES1    0.0000
     13 C7         6.7462   -0.5531    7.1928 C.2       1 RES1    0.0000
     14 C8         5.5821   -1.0136    7.9927 C.3       1 RES1    0.0000
     15 C9         8.4181    1.9856    6.2218 C.3       1 RES1    0.0000
     16 C10        8.9233    2.6955    5.0104 C.2       1 RES1    0.0000
     17 C11        9.7506    1.5449    6.8106 C.3       1 RES1    0.0000
     18 H1         6.2332    5.0147    5.9814 H         1 RES1    0.0000
     19 H2         4.7280    4.9920    5.5437 H         1 RES1    0.0000
     20 H3         5.7505    5.9050    4.7839 H         1 RES1    0.0000
     21 H4         5.2479    3.1968    2.5307 H         1 RES1    0.0000
     22 H5         5.1175    4.7572    2.6077 H         1 RES1    0.0000
     23 H6         4.1080    3.8469    3.3891 H         1 RES1    0.0000
     24 H7         8.2670    2.5078    3.0608 H         1 RES1    0.0000
     25 H8         6.4319    1.2684    3.7251 H         1 RES1    0.0000
     26 H9         7.9543    0.2629    5.1707 H         1 RES1    0.0000
     27 H10        5.8429   -1.7580    8.5398 H         1 RES1    0.0000
     28 H11        4.8740   -1.2829    7.4024 H         1 RES1    0.0000
     29 H12        5.2755   -0.2974    8.5537 H         1 RES1    0.0000
     30 H13        7.9474    2.5994    6.8229 H         1 RES1    0.0000
     31 H14        9.7575    1.6628    7.7738 H         1 RES1    0.0000
     32 H15        9.9276    0.6138    6.6071 H         1 RES1    0.0000
@<TRIPOS>BOND
     1    1    6 1
     2    2    7 1
     3    3    7 1
     4    4   12 1
     5    5   13 2
     6    6   17 1
     7    7    8 1
     8    8   18 1
     9    9    7 1
    10   10    2 1
    11   11    3 1
    12   12   11 1
    13   13    4 1
    14   14   13 1
    15   15   12 1
    16   16    1 2
    17   17   15 1
    18   19    8 1
    19   20    8 1
    20   21    9 1
    21   22    9 1
    22   23    9 1
    23   24   10 1
    24   25   11 1
    25   26   12 1
    26   27   14 1
    27   28   14 1
    28   29   14 1
    29   30   15 1
    30   31   17 1
    31   32   17 1
    32   10   11 1
    33   10   16 1
    34   15   16 1
@<TRIPOS>SUBSTRUCTURE
     1 RES1 1

@<TRIPOS>CRYSIN
   8.6357    9.0665   15.4120  90.0000  90.0000  90.0000  19 1

