# MOL2 file generated by ConQuest
# Please check atom types

@<TRIPOS>MOLECULE
EDARUX
    45    50     1
SMALL
NO_CHARGES
****
Generated from CSD

@<TRIPOS>ATOM
      1 O1        -1.0804   -1.2186    0.5597 O.2       1 RES1    0.0000
      2 O2         0.6857    4.2154    6.7735 O.2       1 RES1    0.0000
      3 N1        -0.7970   -0.3466    1.4668 N.pl3     1 RES1    0.0000
      4 N2         0.4181    3.4211    5.8022 N.pl3     1 RES1    0.0000
      5 C1        -1.6876    0.7105    1.7047 C.ar      1 RES1    0.0000
      6 C2        -2.8666    0.7994    0.9497 C.ar      1 RES1    0.0000
      7 C3        -3.7372    1.8244    1.1640 C.ar      1 RES1    0.0000
      8 C4        -3.4683    2.7857    2.1123 C.ar      1 RES1    0.0000
      9 C5        -2.3096    2.7001    2.8558 C.ar      1 RES1    0.0000
     10 C6        -1.4052    1.6708    2.6760 C.ar      1 RES1    0.0000
     11 C7        -0.1751    1.6012    3.5725 C.3       1 RES1    0.0000
     12 C8         0.7369    0.4388    3.1886 C.ar      1 RES1    0.0000
     13 C9         1.9502    0.2729    3.8503 C.ar      1 RES1    0.0000
     14 C10        2.7969   -0.7695    3.5461 C.ar      1 RES1    0.0000
     15 C11        2.4349   -1.6892    2.5776 C.ar      1 RES1    0.0000
     16 C12        1.2535   -1.5553    1.8995 C.ar      1 RES1    0.0000
     17 C13        0.4042   -0.4865    2.1945 C.ar      1 RES1    0.0000
     18 C14       -0.3549    2.2707    6.0462 C.ar      1 RES1    0.0000
     19 C15       -0.8205    2.0373    7.3459 C.ar      1 RES1    0.0000
     20 C16       -1.5680    0.9309    7.6091 C.ar      1 RES1    0.0000
     21 C17       -1.8893    0.0429    6.6012 C.ar      1 RES1    0.0000
     22 C18       -1.4346    0.2807    5.3152 C.ar      1 RES1    0.0000
     23 C19       -0.6515    1.3840    5.0146 C.ar      1 RES1    0.0000
     24 C20        0.6100    2.9065    3.4286 C.ar      1 RES1    0.0000
     25 C21        1.0761    3.2837    2.1667 C.ar      1 RES1    0.0000
     26 C22        1.8015    4.4501    1.9974 C.ar      1 RES1    0.0000
     27 C23        2.0713    5.2483    3.0875 C.ar      1 RES1    0.0000
     28 C24        1.6256    4.9128    4.3364 C.ar      1 RES1    0.0000
     29 C25        0.8813    3.7376    4.5068 C.ar      1 RES1    0.0000
     30 H1        -2.9921    0.1366    0.2680 H         1 RES1    0.0000
     31 H2        -4.5426    1.8698    0.6561 H         1 RES1    0.0000
     32 H3        -4.0467    3.5264    2.2870 H         1 RES1    0.0000
     33 H4        -2.1394    3.3691    3.5245 H         1 RES1    0.0000
     34 H5         2.1943    0.9387    4.5340 H         1 RES1    0.0000
     35 H6         3.6864   -0.8183    4.0393 H         1 RES1    0.0000
     36 H7         3.0054   -2.3790    2.3190 H         1 RES1    0.0000
     37 H8         0.9646   -2.1937    1.2135 H         1 RES1    0.0000
     38 H9        -0.5722    2.6930    8.0519 H         1 RES1    0.0000
     39 H10       -1.8548    0.8011    8.4506 H         1 RES1    0.0000
     40 H11       -2.4956   -0.6608    6.7757 H         1 RES1    0.0000
     41 H12       -1.6408   -0.3868    4.5553 H         1 RES1    0.0000
     42 H13        0.9189    2.6827    1.3895 H         1 RES1    0.0000
     43 H14        2.1681    4.7203    1.1002 H         1 RES1    0.0000
     44 H15        2.5903    6.0554    3.0058 H         1 RES1    0.0000
     45 H16        1.7374    5.4736    5.1608 H         1 RES1    0.0000
@<TRIPOS>BOND
     1    1    3 1
     2    2    4 1
     3    3    5 1
     4    4   18 1
     5    5    6 ar
     6    6    7 ar
     7    7    8 ar
     8    8    9 ar
     9    9   10 ar
    10   10    5 ar
    11   11   10 1
    12   12   11 1
    13   13   12 ar
    14   14   13 ar
    15   15   14 ar
    16   16   15 ar
    17   17    3 1
    18   18   19 ar
    19   19   20 ar
    20   20   21 ar
    21   21   22 ar
    22   22   23 ar
    23   23   11 1
    24   24   11 1
    25   25   24 ar
    26   26   25 ar
    27   27   26 ar
    28   28   27 ar
    29   29    4 1
    30   30    6 1
    31   31    7 1
    32   32    8 1
    33   33    9 1
    34   34   13 1
    35   35   14 1
    36   36   15 1
    37   37   16 1
    38   38   19 1
    39   39   20 1
    40   40   21 1
    41   41   22 1
    42   42   25 1
    43   43   26 1
    44   44   27 1
    45   45   28 1
    46   12   17 ar
    47   16   17 ar
    48   18   23 ar
    49   24   29 ar
    50   28   29 ar
@<TRIPOS>SUBSTRUCTURE
     1 RES1 1

@<TRIPOS>CRYSIN
   8.4741    9.0232   13.5340  96.5990  93.7360 115.2540   2 1

