# MOL2 file generated by ConQuest
# Please check atom types

@<TRIPOS>MOLECULE
EDASOR
    29    30     1
SMALL
NO_CHARGES
****
Generated from CSD

@<TRIPOS>ATOM
      1 O1         3.3243    4.8726   -3.1137 O.2       1 RES1    0.0000
      2 O2         2.7564    4.1661   -1.1778 O.2       1 RES1    0.0000
      3 N1         2.8581    4.0009   -2.3978 N.pl3     1 RES1    0.0000
      4 N2         2.2076    1.6241   -0.8381 N.pl3     1 RES1    0.0000
      5 H1         2.4477    2.3746   -0.4043 H         1 RES1    0.0000
      6 N3         1.9424    0.5103   -0.1493 N.2       1 RES1    0.0000
      7 N4         2.0749    0.6784    1.0908 N.2       1 RES1    0.0000
      8 N5         2.5431    1.8279    4.3537 N.1       1 RES1    0.0000
      9 C1         2.1304    1.6220   -2.2156 C.ar      1 RES1    0.0000
     10 C2         2.4285    2.7510   -3.0008 C.ar      1 RES1    0.0000
     11 C3         2.3430    2.7121   -4.3855 C.ar      1 RES1    0.0000
     12 H2         2.5501    3.4972   -4.9026 H         1 RES1    0.0000
     13 C4         1.9616    1.5674   -5.0284 C.ar      1 RES1    0.0000
     14 H3         1.9122    1.5420   -5.9864 H         1 RES1    0.0000
     15 C5         1.6579    0.4350   -4.2679 C.ar      1 RES1    0.0000
     16 H4         1.3835   -0.3672   -4.7157 H         1 RES1    0.0000
     17 C6         1.7511    0.4517   -2.9009 C.ar      1 RES1    0.0000
     18 H5         1.5403   -0.3401   -2.3978 H         1 RES1    0.0000
     19 C7         1.7829   -0.4880    1.8419 C.ar      1 RES1    0.0000
     20 C8         1.8640   -0.3674    3.2335 C.ar      1 RES1    0.0000
     21 C9         1.5685   -1.4508    4.0516 C.ar      1 RES1    0.0000
     22 H6         1.6377   -1.3622    5.0049 H         1 RES1    0.0000
     23 C10        1.2015   -2.6447    3.5027 C.ar      1 RES1    0.0000
     24 H7         0.9754   -3.3858    4.0740 H         1 RES1    0.0000
     25 C11        1.1308   -2.7789    2.1310 C.ar      1 RES1    0.0000
     26 H8         0.8780   -3.6231    1.7537 H         1 RES1    0.0000
     27 C12        1.4114   -1.7125    1.3012 C.ar      1 RES1    0.0000
     28 H9         1.3637   -1.8131    0.3479 H         1 RES1    0.0000
     29 C13        2.2536    0.8805    3.8318 C.1       1 RES1    0.0000
@<TRIPOS>BOND
     1    1    3 2
     2    2    3 2
     3    3   10 1
     4    4    5 1
     5    6    4 1
     6    7    6 2
     7    8   29 3
     8    9    4 1
     9   10    9 ar
    10   11   10 ar
    11   12   11 1
    12   13   11 ar
    13   14   13 1
    14   15   13 ar
    15   16   15 1
    16   17    9 ar
    17   18   17 1
    18   19    7 1
    19   20   19 ar
    20   21   20 ar
    21   22   21 1
    22   23   21 ar
    23   24   23 1
    24   25   23 ar
    25   26   25 1
    26   27   19 ar
    27   28   27 1
    28   29   20 1
    29   15   17 ar
    30   25   27 ar
@<TRIPOS>SUBSTRUCTURE
     1 RES1 1

@<TRIPOS>CRYSIN
   7.2080    8.0106   12.2560  79.0990  74.6950  69.3790   2 1

