# MOL2 file generated by ConQuest
# Please check atom types

@<TRIPOS>MOLECULE
EDAWIP
    10     9     1
SMALL
NO_CHARGES
****
Generated from CSD

@<TRIPOS>ATOM
      1 N1         4.3614    8.2312    2.7461 N.pl3     1 RES1    0.0000
      2 H1         5.0438    8.6455    3.1516 H         1 RES1    0.0000
      3 H2         3.7538    8.7599    2.3941 H         1 RES1    0.0000
      4 C1         4.2952    6.9387    2.7073 C.2       1 RES1    0.0000
      5 H3         4.9777    6.4720    3.1178 H         1 RES1    0.0000
      6 C2         3.3463    6.1403    2.1297 C.2       1 RES1    0.0000
      7 H4         3.4325    5.2457    2.1439 H         1 RES1    0.0000
      8 N2         2.2525    6.6392    1.4749 N.pl3     1 RES1    0.0000
      9 O1         1.4170    5.8318    0.9913 O.2       1 RES1    0.0000
     10 O2         2.0819    7.8660    1.3536 O.2       1 RES1    0.0000
@<TRIPOS>BOND
     1    1    2 1
     2    3    1 1
     3    4    1 1
     4    5    4 1
     5    6    4 2
     6    7    6 1
     7    8    6 1
     8    9    8 2
     9   10    8 2
@<TRIPOS>SUBSTRUCTURE
     1 RES1 1

@<TRIPOS>CRYSIN
   5.5459   10.3058    6.8702  90.0000 100.1310  90.0000  14 1

