# MOL2 file generated by ConQuest
# Please check atom types

@<TRIPOS>MOLECULE
EDAYIR
    38    40     1
SMALL
NO_CHARGES
****
Generated from CSD

@<TRIPOS>ATOM
      1 O1        -3.0631    0.3887    4.8534 O.2       1 RES1    0.0000
      2 O2        -2.9944    2.5160    5.2565 O.2       1 RES1    0.0000
      3 O3         0.2566    6.5886    1.3411 O.2       1 RES1    0.0000
      4 O4        -1.0236    5.7583    2.9966 O.3       1 RES1    0.0000
      5 N1         0.1224    2.5226   -0.0156 N.2       1 RES1    0.0000
      6 N2        -2.7386    1.5423    4.5605 N.pl3     1 RES1    0.0000
      7 N3         1.0344    4.6805   -0.6059 N.3       1 RES1    0.0000
      8 N4        -0.8501    3.1631    1.9215 N.pl3     1 RES1    0.0000
      9 C1         0.3472    3.8471    0.2087 C.2       1 RES1    0.0000
     10 C2        -0.2354    4.3011    1.3919 C.2       1 RES1    0.0000
     11 C3        -1.5293    2.9726    3.0780 C.2       1 RES1    0.0000
     12 C4        -2.0224    1.7296    3.3163 C.2       1 RES1    0.0000
     13 C5        -1.8739    0.6635    2.4256 C.2       1 RES1    0.0000
     14 C6        -1.1612    0.8550    1.2902 C.2       1 RES1    0.0000
     15 C7        -0.6072    2.1152    1.0176 C.2       1 RES1    0.0000
     16 C8        -0.2924    5.6440    1.8849 C.2       1 RES1    0.0000
     17 C9        -1.2035    7.1004    3.5254 C.3       1 RES1    0.0000
     18 C10       -2.0882    6.9622    4.7131 C.3       1 RES1    0.0000
     19 C11        1.7043    4.4157   -1.8090 C.ar      1 RES1    0.0000
     20 C12        2.3377    5.4978   -2.4124 C.ar      1 RES1    0.0000
     21 C13        3.0253    5.3171   -3.5867 C.ar      1 RES1    0.0000
     22 C14        3.1034    4.0676   -4.1815 C.ar      1 RES1    0.0000
     23 C15        2.4638    3.0049   -3.5846 C.ar      1 RES1    0.0000
     24 C16        1.7583    3.1602   -2.4078 C.ar      1 RES1    0.0000
     25 H1         1.0678    5.5568   -0.3266 H         1 RES1    0.0000
     26 H2        -1.6566    3.6815    3.6986 H         1 RES1    0.0000
     27 H3        -2.2643   -0.1823    2.6148 H         1 RES1    0.0000
     28 H4        -1.0363    0.1376    0.6787 H         1 RES1    0.0000
     29 H5         2.2947    6.3590   -2.0127 H         1 RES1    0.0000
     30 H6         3.4555    6.0588   -3.9960 H         1 RES1    0.0000
     31 H7         3.5896    3.9468   -4.9898 H         1 RES1    0.0000
     32 H8         2.5094    2.1462   -3.9904 H         1 RES1    0.0000
     33 H9         1.3133    2.4193   -2.0124 H         1 RES1    0.0000
     34 H10       -0.3652    7.4691    3.7793 H         1 RES1    0.0000
     35 H11       -1.6105    7.6591    2.8738 H         1 RES1    0.0000
     36 H12       -2.2373    7.8184    5.0982 H         1 RES1    0.0000
     37 H13       -1.6735    6.3958    5.3530 H         1 RES1    0.0000
     38 H14       -2.9188    6.5858    4.4478 H         1 RES1    0.0000
@<TRIPOS>BOND
     1    1    6 2
     2    2    6 2
     3    3   16 2
     4    4   16 1
     5    5    9 1
     6    6   12 1
     7    7    9 1
     8    8   10 1
     9    9   10 2
    10   10   16 1
    11   11    8 1
    12   12   11 2
    13   13   12 1
    14   14   13 2
    15   15    5 2
    16   17    4 1
    17   18   17 1
    18   19    7 1
    19   20   19 ar
    20   21   20 ar
    21   22   21 ar
    22   23   22 ar
    23   24   19 ar
    24   25    7 1
    25   26   11 1
    26   27   13 1
    27   28   14 1
    28   29   20 1
    29   30   21 1
    30   31   22 1
    31   32   23 1
    32   33   24 1
    33   34   17 1
    34   35   17 1
    35   36   18 1
    36   37   18 1
    37   38   18 1
    38    8   15 1
    39   14   15 1
    40   23   24 ar
@<TRIPOS>SUBSTRUCTURE
     1 RES1 1

@<TRIPOS>CRYSIN
   7.8680    8.4890   12.2810 104.3800  92.3000 110.0700   2 1

