# MOL2 file generated by ConQuest
# Please check atom types

@<TRIPOS>MOLECULE
EDEPOT
    37    39     1
SMALL
NO_CHARGES
****
Generated from CSD

@<TRIPOS>ATOM
      1 C1         1.0367   -0.7107    6.1662 C.2       1 RES1    0.0000
      2 C2         0.8156   -0.5532    7.6464 C.3       1 RES1    0.0000
      3 H1         1.6012   -0.8702    8.1185 H         1 RES1    0.0000
      4 H2         0.0654   -1.1074    7.9140 H         1 RES1    0.0000
      5 C3         0.5375    0.8906    8.0556 C.3       1 RES1    0.0000
      6 H3         1.3634    1.4103    7.9700 H         1 RES1    0.0000
      7 C4         0.1648    0.1332    5.2851 C.3       1 RES1    0.0000
      8 H4        -0.7052   -0.2862    5.1993 H         1 RES1    0.0000
      9 H5         0.5598    0.1869    4.4007 H         1 RES1    0.0000
     10 C5        -0.0076    1.5478    5.8484 C.3       1 RES1    0.0000
     11 H6         0.8609    2.0008    5.8348 H         1 RES1    0.0000
     12 C6        -1.0035    2.3819    5.0818 C.ar      1 RES1    0.0000
     13 C7        -0.9174    2.5162    3.7015 C.ar      1 RES1    0.0000
     14 H7        -0.2368    2.0859    3.2369 H         1 RES1    0.0000
     15 C8        -1.8396    3.2865    3.0159 C.ar      1 RES1    0.0000
     16 H8        -1.7824    3.3518    2.0902 H         1 RES1    0.0000
     17 C9        -2.8316    3.9523    3.6759 C.ar      1 RES1    0.0000
     18 H9        -3.4449    4.4695    3.2065 H         1 RES1    0.0000
     19 C10       -2.9115    3.8476    5.0445 C.ar      1 RES1    0.0000
     20 H10       -3.5778    4.3045    5.5049 H         1 RES1    0.0000
     21 C11       -2.0096    3.0687    5.7384 C.ar      1 RES1    0.0000
     22 H11       -2.0796    3.0037    6.6638 H         1 RES1    0.0000
     23 C12        0.0239    1.0132    9.4716 C.ar      1 RES1    0.0000
     24 C13       -1.1779    0.4338    9.8411 C.ar      1 RES1    0.0000
     25 H12       -1.6667   -0.0438    9.2105 H         1 RES1    0.0000
     26 C14       -1.6627    0.5520   11.1261 C.ar      1 RES1    0.0000
     27 H13       -2.4729    0.1650   11.3701 H         1 RES1    0.0000
     28 C15       -0.9149    1.2587   12.0364 C.ar      1 RES1    0.0000
     29 C16        0.2672    1.8608   11.7036 C.ar      1 RES1    0.0000
     30 H14        0.7497    2.3424   12.3366 H         1 RES1    0.0000
     31 C17        0.7285    1.7380   10.4112 C.ar      1 RES1    0.0000
     32 H15        1.5253    2.1503   10.1685 H         1 RES1    0.0000
     33 N1        -1.4292    1.4039   13.4080 N.pl3     1 RES1    0.0000
     34 O1         1.8410   -1.4923    5.7146 O.2       1 RES1    0.0000
     35 O2        -0.4568    1.4542    7.2015 O.3       1 RES1    0.0000
     36 O3        -2.4147    0.7591   13.7311 O.2       1 RES1    0.0000
     37 O4        -0.8486    2.1734   14.1574 O.2       1 RES1    0.0000
@<TRIPOS>BOND
     1    1    2 1
     2    2    3 1
     3    4    2 1
     4    5    2 1
     5    6    5 1
     6    7    1 1
     7    8    7 1
     8    9    7 1
     9   10    7 1
    10   11   10 1
    11   12   10 1
    12   13   12 ar
    13   14   13 1
    14   15   13 ar
    15   16   15 1
    16   17   15 ar
    17   18   17 1
    18   19   17 ar
    19   20   19 1
    20   21   12 ar
    21   22   21 1
    22   23    5 1
    23   24   23 ar
    24   25   24 1
    25   26   24 ar
    26   27   26 1
    27   28   26 ar
    28   29   28 ar
    29   30   29 1
    30   31   23 ar
    31   32   31 1
    32   33   28 1
    33   34    1 2
    34   35    5 1
    35   36   33 2
    36   37   33 2
    37   10   35 1
    38   19   21 ar
    39   29   31 ar
@<TRIPOS>SUBSTRUCTURE
     1 RES1 1

@<TRIPOS>CRYSIN
   9.2600   12.8916   12.7775  90.0000 107.6870  90.0000  14 1

