# MOL2 file generated by ConQuest
# Please check atom types

@<TRIPOS>MOLECULE
EDEROV
    26    27     1
SMALL
NO_CHARGES
****
Generated from CSD

@<TRIPOS>ATOM
      1 O1         3.0588    0.8332   11.8004 O.3       1 RES1    0.0000
      2 O2         5.9508    3.6401   12.8144 O.2       1 RES1    0.0000
      3 N1         2.1269    1.1315   12.8304 N.2       1 RES1    0.0000
      4 C1         0.9952    3.5088   14.6362 C.ar      1 RES1    0.0000
      5 H1         0.7976    3.8764   13.8060 H         1 RES1    0.0000
      6 C2         0.3187    3.9536   15.7575 C.ar      1 RES1    0.0000
      7 H2        -0.3089    4.6351   15.6761 H         1 RES1    0.0000
      8 C3         0.5624    3.4065   16.9671 C.ar      1 RES1    0.0000
      9 H3         0.0777    3.6774   17.7132 H         1 RES1    0.0000
     10 C4         1.5128    2.4666   17.0770 C.ar      1 RES1    0.0000
     11 H4         1.7130    2.1080   17.9115 H         1 RES1    0.0000
     12 C5         2.1961    2.0282   15.9600 C.ar      1 RES1    0.0000
     13 H5         2.8431    1.3662   16.0485 H         1 RES1    0.0000
     14 C6         1.9351    2.5522   14.7306 C.ar      1 RES1    0.0000
     15 C7         2.6801    2.0655   13.5396 C.2       1 RES1    0.0000
     16 C8         3.9608    2.4383   13.0178 C.2       1 RES1    0.0000
     17 C9         4.9350    3.4427   13.4580 C.2       1 RES1    0.0000
     18 C10        4.6702    4.2260   14.6904 C.3       1 RES1    0.0000
     19 H6         5.3946    4.8388   14.8416 H         1 RES1    0.0000
     20 H7         4.5953    3.6296   15.4393 H         1 RES1    0.0000
     21 H8         3.8520    4.7170   14.5877 H         1 RES1    0.0000
     22 C11        4.1249    1.6187   11.9376 C.2       1 RES1    0.0000
     23 C12        5.1969    1.4160   10.9425 C.3       1 RES1    0.0000
     24 H9         4.9294    0.7387   10.3167 H         1 RES1    0.0000
     25 H10        6.0008    1.1399   11.3894 H         1 RES1    0.0000
     26 H11        5.3591    2.2388   10.4736 H         1 RES1    0.0000
@<TRIPOS>BOND
     1    1    3 1
     2    2   17 2
     3    3   15 2
     4    4    5 1
     5    6    4 ar
     6    7    6 1
     7    8    6 ar
     8    9    8 1
     9   10    8 ar
    10   11   10 1
    11   12   10 ar
    12   13   12 1
    13   14    4 ar
    14   15   14 1
    15   16   15 1
    16   17   16 1
    17   18   17 1
    18   19   18 1
    19   20   18 1
    20   21   18 1
    21   22    1 1
    22   23   22 1
    23   24   23 1
    24   25   23 1
    25   26   23 1
    26   12   14 ar
    27   16   22 2
@<TRIPOS>SUBSTRUCTURE
     1 RES1 1

@<TRIPOS>CRYSIN
  14.0900    5.2504   14.2800  90.0000  92.6000  90.0000 231 1

