# MOL2 file generated by ConQuest
# Please check atom types

@<TRIPOS>MOLECULE
EDIMOV
    34    37     1
SMALL
NO_CHARGES
****
Generated from CSD

@<TRIPOS>ATOM
      1 O1         5.1716    7.6172   10.1932 O.2       1 RES1    0.0000
      2 O2         5.4620    4.1374    7.1877 O.2       1 RES1    0.0000
      3 O3         7.7338    5.4904   10.0251 O.2       1 RES1    0.0000
      4 O4         8.4713    4.0821    8.5211 O.2       1 RES1    0.0000
      5 N1         5.2219    5.6533    8.9395 N.am      1 RES1    0.0000
      6 N2         7.7277    4.3937    9.4574 N.pl3     1 RES1    0.0000
      7 C1         5.4085    7.0295    9.1499 C.2       1 RES1    0.0000
      8 C2         5.9280    7.5553    7.8476 C.ar      1 RES1    0.0000
      9 C3         6.2870    8.8425    7.4902 C.ar      1 RES1    0.0000
     10 C4         6.7467    9.0334    6.1754 C.ar      1 RES1    0.0000
     11 C5         6.8490    7.9785    5.2778 C.ar      1 RES1    0.0000
     12 C6         6.4899    6.6824    5.6413 C.ar      1 RES1    0.0000
     13 C7         6.0184    6.5031    6.9387 C.ar      1 RES1    0.0000
     14 C8         5.5544    5.2620    7.6085 C.2       1 RES1    0.0000
     15 C9         4.7091    4.7466    9.9193 C.ar      1 RES1    0.0000
     16 C10        5.4739    3.6248   10.3352 C.ar      1 RES1    0.0000
     17 C11        6.8375    3.3528   10.0052 C.ar      1 RES1    0.0000
     18 C12        7.4466    2.1680   10.2866 C.ar      1 RES1    0.0000
     19 C13        6.7454    1.1739   10.9888 C.ar      1 RES1    0.0000
     20 C14        5.4730    1.4204   11.4283 C.ar      1 RES1    0.0000
     21 C15        4.8126    2.6286   11.1208 C.ar      1 RES1    0.0000
     22 C16        3.4926    2.8705   11.6026 C.ar      1 RES1    0.0000
     23 C17        2.8394    4.0172   11.2789 C.ar      1 RES1    0.0000
     24 C18        3.4334    4.9324   10.3912 C.ar      1 RES1    0.0000
     25 H1         6.2166    9.5607    8.1140 H         1 RES1    0.0000
     26 H2         6.9970    9.9299    5.9364 H         1 RES1    0.0000
     27 H3         7.1786    8.1189    4.3863 H         1 RES1    0.0000
     28 H4         6.5628    5.9377    5.0412 H         1 RES1    0.0000
     29 H5         8.3729    2.0149   10.0065 H         1 RES1    0.0000
     30 H6         7.1888    0.3198   11.1743 H         1 RES1    0.0000
     31 H7         4.9896    0.7421   11.9550 H         1 RES1    0.0000
     32 H8         3.0659    2.1724   12.2264 H         1 RES1    0.0000
     33 H9         1.9737    4.2375   11.6362 H         1 RES1    0.0000
     34 H10        2.9304    5.7431   10.0774 H         1 RES1    0.0000
@<TRIPOS>BOND
     1    1    7 2
     2    2   14 2
     3    3    6 2
     4    4    6 2
     5    5    7 1
     6    6   17 1
     7    7    8 1
     8    8    9 ar
     9    9   10 ar
    10   10   11 ar
    11   11   12 ar
    12   12   13 ar
    13   13    8 ar
    14   14    5 1
    15   15    5 1
    16   16   15 ar
    17   17   16 ar
    18   18   17 ar
    19   19   18 ar
    20   20   19 ar
    21   21   16 ar
    22   22   21 ar
    23   23   22 ar
    24   24   15 ar
    25   25    9 1
    26   26   10 1
    27   27   11 1
    28   28   12 1
    29   29   18 1
    30   30   19 1
    31   31   20 1
    32   32   22 1
    33   33   23 1
    34   34   24 1
    35   13   14 1
    36   20   21 ar
    37   23   24 ar
@<TRIPOS>SUBSTRUCTURE
     1 RES1 1

@<TRIPOS>CRYSIN
   7.5660    7.9810   12.9270  83.6200  74.4300  69.3900   2 1

