# MOL2 file generated by ConQuest
# Please check atom types

@<TRIPOS>MOLECULE
EDMBOX
    27    27     1
SMALL
NO_CHARGES
****
Generated from CSD

@<TRIPOS>ATOM
      1 C1         4.6712    2.6315   -5.3574 C.ar      1 RES1    0.0000
      2 C2         5.7959    3.4079   -5.5917 C.ar      1 RES1    0.0000
      3 C3         6.9334    3.2385   -4.8327 C.ar      1 RES1    0.0000
      4 C4         6.9866    2.3187   -3.8120 C.ar      1 RES1    0.0000
      5 C5         5.8552    1.5538   -3.5633 C.ar      1 RES1    0.0000
      6 C6         4.7192    1.7003   -4.3250 C.ar      1 RES1    0.0000
      7 C7         3.4536    2.7874   -6.1945 C.2       1 RES1    0.0000
      8 C8         8.2490    2.1763   -2.9957 C.3       1 RES1    0.0000
      9 C9         3.9510    0.7306   -7.4443 C.3       1 RES1    0.0000
     10 C10        1.7686    1.7980   -7.6149 C.3       1 RES1    0.0000
     11 N1         2.9828    1.6535   -6.8442 N.3       1 RES1    0.0000
     12 N2         2.7808    3.8849   -6.3234 N.2       1 RES1    0.0000
     13 O1         3.2391    4.9117   -5.4407 O.3       1 RES1    0.0000
     14 H1         5.7943    4.0429   -6.3273 H         1 RES1    0.0000
     15 H2         7.6331    3.7519   -4.9473 H         1 RES1    0.0000
     16 H3         5.8870    0.9250   -2.8382 H         1 RES1    0.0000
     17 H4         3.9568    1.1224   -4.1661 H         1 RES1    0.0000
     18 H5         8.2747    2.5879   -2.1351 H         1 RES1    0.0000
     19 H6         9.0397    2.2137   -3.5542 H         1 RES1    0.0000
     20 H7         8.3035    1.4238   -2.7340 H         1 RES1    0.0000
     21 H8         3.6127   -0.1351   -7.4990 H         1 RES1    0.0000
     22 H9         4.6298    0.5924   -6.8090 H         1 RES1    0.0000
     23 H10        4.1681    1.0185   -8.2932 H         1 RES1    0.0000
     24 H11        1.0895    2.1721   -7.0433 H         1 RES1    0.0000
     25 H12        1.8499    2.2241   -8.4234 H         1 RES1    0.0000
     26 H13        1.4923    0.9873   -7.9026 H         1 RES1    0.0000
     27 H14        2.6631    5.6122   -5.7284 H         1 RES1    0.0000
@<TRIPOS>BOND
     1    1    2 ar
     2    2    3 ar
     3    3    4 ar
     4    4    5 ar
     5    5    6 ar
     6    6    1 ar
     7    7    1 1
     8    8    4 1
     9    9   11 1
    10   10   11 1
    11   11    7 1
    12   12    7 2
    13   13   12 1
    14   14    2 1
    15   15    3 1
    16   16    5 1
    17   17    6 1
    18   18    8 1
    19   19    8 1
    20   20    8 1
    21   21    9 1
    22   22    9 1
    23   23    9 1
    24   24   10 1
    25   25   10 1
    26   26   10 1
    27   27   13 1
@<TRIPOS>SUBSTRUCTURE
     1 RES1 1

@<TRIPOS>CRYSIN
   7.5120   10.3930   13.6360  90.0000 107.3000  90.0000 231 1

