# MOL2 file generated by ConQuest
# Please check atom types

@<TRIPOS>MOLECULE
EDOVAU
    54    58     1
SMALL
NO_CHARGES
****
Generated from CSD

@<TRIPOS>ATOM
      1 O1         7.2564    0.2899    7.9683 O.3       1 RES1    0.0000
      2 O2         5.7100    0.9130   11.0594 O.3       1 RES1    0.0000
      3 O3         3.2245    6.6530    8.9375 O.2       1 RES1    0.0000
      4 O4         4.5547    7.5993   10.3397 O.2       1 RES1    0.0000
      5 N1         7.3835    2.1083    9.3737 N.3       1 RES1    0.0000
      6 N2         5.5594   -0.9902    9.7899 N.2       1 RES1    0.0000
      7 N3         4.2285    6.6397    9.6490 N.pl3     1 RES1    0.0000
      8 C1         6.4771    1.1181    8.8357 C.3       1 RES1    0.0000
      9 C2         5.8857    0.2271    9.9221 C.2       1 RES1    0.0000
     10 C3         5.8512   -1.5582    8.5342 C.ar      1 RES1    0.0000
     11 C4         5.3113   -2.8286    8.1946 C.ar      1 RES1    0.0000
     12 C5         4.3644   -3.4853    9.0069 C.ar      1 RES1    0.0000
     13 H1         4.0555   -3.0677    9.8022 H         1 RES1    0.0000
     14 C6         3.8870   -4.7186    8.6580 C.ar      1 RES1    0.0000
     15 H2         3.2502   -5.1512    9.2145 H         1 RES1    0.0000
     16 C7         4.3297   -5.3534    7.4815 C.ar      1 RES1    0.0000
     17 H3         3.9958   -6.2121    7.2504 H         1 RES1    0.0000
     18 C8         5.2373   -4.7357    6.6743 C.ar      1 RES1    0.0000
     19 H4         5.5274   -5.1696    5.8805 H         1 RES1    0.0000
     20 C9         5.7546   -3.4607    6.9985 C.ar      1 RES1    0.0000
     21 C10        6.7061   -2.8050    6.1784 C.ar      1 RES1    0.0000
     22 H5         7.0218   -3.2348    5.3928 H         1 RES1    0.0000
     23 C11        7.1753   -1.5676    6.4985 C.ar      1 RES1    0.0000
     24 H6         7.8031   -1.1314    5.9344 H         1 RES1    0.0000
     25 C12        6.7224   -0.9447    7.6671 C.ar      1 RES1    0.0000
     26 C13        5.3757    1.9645    8.0978 C.3       1 RES1    0.0000
     27 C14        5.4921    3.2640    8.8585 C.ar      1 RES1    0.0000
     28 C15        4.6615    4.3543    8.8808 C.ar      1 RES1    0.0000
     29 H7         3.8450    4.3601    8.3955 H         1 RES1    0.0000
     30 C16        5.0573    5.4569    9.6436 C.ar      1 RES1    0.0000
     31 C17        6.2356    5.4693   10.3667 C.ar      1 RES1    0.0000
     32 H8         6.4675    6.2321   10.8828 H         1 RES1    0.0000
     33 C18        7.0758    4.3729   10.3384 C.ar      1 RES1    0.0000
     34 H9         7.8874    4.3647   10.8315 H         1 RES1    0.0000
     35 C19        6.6957    3.2813    9.5645 C.ar      1 RES1    0.0000
     36 C20        8.5000    1.7232   10.2106 C.3       1 RES1    0.0000
     37 H10        8.8378    0.8493    9.9231 H         1 RES1    0.0000
     38 H11        8.2050    1.6695   11.1444 H         1 RES1    0.0000
     39 H12        9.2135    2.3901   10.1308 H         1 RES1    0.0000
     40 C21        3.9870    1.3384    8.1465 C.3       1 RES1    0.0000
     41 H13        4.0050    0.4691    7.6961 H         1 RES1    0.0000
     42 H14        3.3474    1.9271    7.6947 H         1 RES1    0.0000
     43 H15        3.7164    1.2173    9.0804 H         1 RES1    0.0000
     44 C22        5.7913    2.2011    6.6409 C.3       1 RES1    0.0000
     45 H16        5.7767    1.3507    6.1553 H         1 RES1    0.0000
     46 H17        6.6960    2.5756    6.6167 H         1 RES1    0.0000
     47 H18        5.1657    2.8286    6.2210 H         1 RES1    0.0000
     48 C23        5.1223    0.1921   12.1687 C.3       1 RES1    0.0000
     49 H19        5.6887   -0.5810   12.4144 H         1 RES1    0.0000
     50 H20        4.2232   -0.1410   11.9240 H         1 RES1    0.0000
     51 C24        5.0268    1.1455   13.3084 C.3       1 RES1    0.0000
     52 H21        4.6452    0.6868   14.0867 H         1 RES1    0.0000
     53 H22        4.4504    1.8980   13.0573 H         1 RES1    0.0000
     54 H23        5.9212    1.4794   13.5306 H         1 RES1    0.0000
@<TRIPOS>BOND
     1    1    8 1
     2    2    9 1
     3    3    7 2
     4    4    7 2
     5    5    8 1
     6    6    9 2
     7    7   30 1
     8    8    9 1
     9   10    6 1
    10   11   10 ar
    11   12   11 ar
    12   13   12 1
    13   14   12 ar
    14   15   14 1
    15   16   14 ar
    16   17   16 1
    17   18   16 ar
    18   19   18 1
    19   20   11 ar
    20   21   20 ar
    21   22   21 1
    22   23   21 ar
    23   24   23 1
    24   25    1 1
    25   26    8 1
    26   27   26 1
    27   28   27 ar
    28   29   28 1
    29   30   28 ar
    30   31   30 ar
    31   32   31 1
    32   33   31 ar
    33   34   33 1
    34   35    5 1
    35   36    5 1
    36   37   36 1
    37   38   36 1
    38   39   36 1
    39   40   26 1
    40   41   40 1
    41   42   40 1
    42   43   40 1
    43   44   26 1
    44   45   44 1
    45   46   44 1
    46   47   44 1
    47   48    2 1
    48   49   48 1
    49   50   48 1
    50   51   48 1
    51   52   51 1
    52   53   51 1
    53   54   51 1
    54   10   25 ar
    55   18   20 ar
    56   23   25 ar
    57   27   35 ar
    58   33   35 ar
@<TRIPOS>SUBSTRUCTURE
     1 RES1 1

@<TRIPOS>CRYSIN
  10.3622   15.3310   13.5407  90.0000 103.8560  90.0000  14 1

