# MOL2 file generated by ConQuest
# Please check atom types

@<TRIPOS>MOLECULE
EDUHAN01
    19    21     1
SMALL
NO_CHARGES
****
Generated from CSD

@<TRIPOS>ATOM
      1 O1         8.7122    7.4113    5.8760 O.2       1 RES1    0.0000
      2 O2         9.5722    5.5192    5.3961 O.2       1 RES1    0.0000
      3 O3         5.4927    1.4767    7.8701 O.3       1 RES1    0.0000
      4 N1         7.3091    1.3500    6.5763 N.2       1 RES1    0.0000
      5 N2         8.6933    6.1955    5.8886 N.pl3     1 RES1    0.0000
      6 N3         4.4272    3.5435    8.2239 N.pl3     1 RES1    0.0000
      7 C1         5.3680    2.3303   10.1310 C.3       1 RES1    0.0000
      8 C2         4.4608    2.9255   11.2095 C.3       1 RES1    0.0000
      9 C3         3.2239    2.0694   11.3422 C.3       1 RES1    0.0000
     10 C4         2.4775    1.9503   10.0101 C.3       1 RES1    0.0000
     11 C5         3.3568    1.4412    8.9331 C.3       1 RES1    0.0000
     12 C6         4.6703    2.2087    8.8107 C.3       1 RES1    0.0000
     13 C7         6.4891    2.0263    7.1941 C.2       1 RES1    0.0000
     14 C8         6.5371    3.5005    7.1676 C.ar      1 RES1    0.0000
     15 C9         7.5893    4.1489    6.5675 C.ar      1 RES1    0.0000
     16 C10        7.5699    5.5192    6.4916 C.ar      1 RES1    0.0000
     17 C11        6.4928    6.2537    6.9560 C.ar      1 RES1    0.0000
     18 C12        5.4428    5.6256    7.5258 C.ar      1 RES1    0.0000
     19 C13        5.4484    4.2198    7.6622 C.ar      1 RES1    0.0000
@<TRIPOS>BOND
     1    1    5 2
     2    2    5 2
     3    3   12 1
     4    4   13 2
     5    5   16 1
     6    6   12 1
     7    7    8 1
     8    8    9 1
     9    9   10 1
    10   10   11 1
    11   11   12 1
    12   12    7 1
    13   13    3 1
    14   14   13 1
    15   15   14 ar
    16   16   15 ar
    17   17   16 ar
    18   18   17 ar
    19   19    6 1
    20   14   19 ar
    21   18   19 ar
@<TRIPOS>SUBSTRUCTURE
     1 RES1 1

@<TRIPOS>CRYSIN
   6.6339   25.3290    7.3756  90.0000  91.8500  90.0000  14 1

