# MOL2 file generated by ConQuest
# Please check atom types

@<TRIPOS>MOLECULE
EFADOG
    60    64     1
SMALL
NO_CHARGES
****
Generated from CSD

@<TRIPOS>ATOM
      1 O1        -1.3562    1.2330    5.7043 O.2       1 RES1    0.0000
      2 O2        -0.9146    1.6445   12.4142 O.2       1 RES1    0.0000
      3 O3         0.3366    3.2492   13.1101 O.2       1 RES1    0.0000
      4 N1         0.0249    2.4126   12.2787 N.pl3     1 RES1    0.0000
      5 C1        -0.2015    1.1705    5.3345 C.2       1 RES1    0.0000
      6 C2         0.9317    0.8723    6.2875 C.3       1 RES1    0.0000
      7 H1         1.6291    1.5876    6.2538 H         1 RES1    0.0000
      8 C3         0.5229    0.5637    7.7410 C.3       1 RES1    0.0000
      9 H2        -0.4719    0.4893    7.8124 H         1 RES1    0.0000
     10 C4         0.1438    1.3394    3.8890 C.ar      1 RES1    0.0000
     11 C5         1.3770    1.8323    3.4689 C.ar      1 RES1    0.0000
     12 H3         2.0421    2.0562    4.1081 H         1 RES1    0.0000
     13 C6         1.6327    1.9949    2.1147 C.ar      1 RES1    0.0000
     14 H4         2.4628    2.3593    1.8292 H         1 RES1    0.0000
     15 C7         0.6814    1.6274    1.1779 C.ar      1 RES1    0.0000
     16 H5         0.8630    1.7340    0.2512 H         1 RES1    0.0000
     17 C8        -0.5323    1.1068    1.5877 C.ar      1 RES1    0.0000
     18 H6        -1.1754    0.8352    0.9438 H         1 RES1    0.0000
     19 C9        -0.8081    0.9823    2.9393 C.ar      1 RES1    0.0000
     20 H7        -1.6531    0.6504    3.2199 H         1 RES1    0.0000
     21 C10        1.0592    1.4431    8.8359 C.ar      1 RES1    0.0000
     22 C11        0.3238    1.5594   10.0119 C.ar      1 RES1    0.0000
     23 H8        -0.5174    1.1264   10.0968 H         1 RES1    0.0000
     24 C12        0.8286    2.3108   11.0550 C.ar      1 RES1    0.0000
     25 C13        2.0369    2.9739   10.9859 C.ar      1 RES1    0.0000
     26 H9         2.3571    3.4916   11.7151 H         1 RES1    0.0000
     27 C14        2.7637    2.8574    9.8162 C.ar      1 RES1    0.0000
     28 H10        3.5978    3.3039    9.7360 H         1 RES1    0.0000
     29 C15        2.2892    2.0939    8.7568 C.ar      1 RES1    0.0000
     30 H11        2.8107    2.0148    7.9664 H         1 RES1    0.0000
     31 O1B        3.4592   -1.2330    8.1745 O.2       1 RES1    0.0000
     32 O2B        3.0176   -1.6445    1.4646 O.2       1 RES1    0.0000
     33 O3B        1.7664   -3.2492    0.7687 O.2       1 RES1    0.0000
     34 N1B        2.0781   -2.4126    1.6001 N.pl3     1 RES1    0.0000
     35 C1B        2.3045   -1.1705    8.5443 C.2       1 RES1    0.0000
     36 C2B        1.1713   -0.8723    7.5913 C.3       1 RES1    0.0000
     37 H1B        0.4739   -1.5876    7.6250 H         1 RES1    0.0000
     38 C3B        1.5801   -0.5637    6.1378 C.3       1 RES1    0.0000
     39 H2B        2.5749   -0.4893    6.0664 H         1 RES1    0.0000
     40 C4B        1.9592   -1.3394    9.9898 C.ar      1 RES1    0.0000
     41 C5B        0.7261   -1.8323   10.4099 C.ar      1 RES1    0.0000
     42 H3B        0.0609   -2.0562    9.7707 H         1 RES1    0.0000
     43 C6B        0.4704   -1.9949   11.7641 C.ar      1 RES1    0.0000
     44 H4B       -0.3597   -2.3593   12.0496 H         1 RES1    0.0000
     45 C7B        1.4217   -1.6274   12.7009 C.ar      1 RES1    0.0000
     46 H5B        1.2400   -1.7340   13.6276 H         1 RES1    0.0000
     47 C8B        2.6353   -1.1068   12.2911 C.ar      1 RES1    0.0000
     48 H6B        3.2784   -0.8352   12.9350 H         1 RES1    0.0000
     49 C9B        2.9111   -0.9823   10.9395 C.ar      1 RES1    0.0000
     50 H7B        3.7562   -0.6504   10.6589 H         1 RES1    0.0000
     51 C10B       1.0438   -1.4431    5.0429 C.ar      1 RES1    0.0000
     52 C11B       1.7793   -1.5594    3.8669 C.ar      1 RES1    0.0000
     53 H8B        2.6204   -1.1264    3.7820 H         1 RES1    0.0000
     54 C12B       1.2745   -2.3108    2.8238 C.ar      1 RES1    0.0000
     55 C13B       0.0661   -2.9739    2.8929 C.ar      1 RES1    0.0000
     56 H9B       -0.2541   -3.4916    2.1637 H         1 RES1    0.0000
     57 C14B      -0.6607   -2.8574    4.0626 C.ar      1 RES1    0.0000
     58 H10B      -1.4948   -3.3039    4.1428 H         1 RES1    0.0000
     59 C15B      -0.1862   -2.0939    5.1220 C.ar      1 RES1    0.0000
     60 H11B      -0.7077   -2.0148    5.9124 H         1 RES1    0.0000
@<TRIPOS>BOND
     1    1    5 2
     2    2    4 2
     3    3    4 2
     4    4   24 1
     5    5    6 1
     6    6    7 1
     7    8    6 1
     8    9    8 1
     9   10    5 1
    10   11   10 ar
    11   12   11 1
    12   13   11 ar
    13   14   13 1
    14   15   13 ar
    15   16   15 1
    16   17   15 ar
    17   18   17 1
    18   19   10 ar
    19   20   19 1
    20   21    8 1
    21   22   21 ar
    22   23   22 1
    23   24   22 ar
    24   25   24 ar
    25   26   25 1
    26   27   25 ar
    27   28   27 1
    28   29   21 ar
    29   30   29 1
    30   31   35 2
    31   32   34 2
    32   33   34 2
    33   34   54 1
    34   35   36 1
    35   36    8 1
    36   37   36 1
    37   38    6 1
    38   39   38 1
    39   40   35 1
    40   41   40 ar
    41   42   41 1
    42   43   41 ar
    43   44   43 1
    44   45   43 ar
    45   46   45 1
    46   47   45 ar
    47   48   47 1
    48   49   40 ar
    49   50   49 1
    50   51   38 1
    51   52   51 ar
    52   53   52 1
    53   54   52 ar
    54   55   54 ar
    55   56   55 1
    56   57   55 ar
    57   58   57 1
    58   59   51 ar
    59   60   59 1
    60   17   19 ar
    61   27   29 ar
    62   36   38 1
    63   47   49 ar
    64   57   59 ar
@<TRIPOS>SUBSTRUCTURE
     1 RES1 1

@<TRIPOS>CRYSIN
   5.7850   14.7824   14.3589  90.0000 104.8580  90.0000  14 1

