# MOL2 file generated by ConQuest
# Please check atom types

@<TRIPOS>MOLECULE
EFAKUR
    62    65     1
SMALL
NO_CHARGES
****
Generated from CSD

@<TRIPOS>ATOM
      1 O1        -0.5200   -1.3546   11.1030 O.2       1 RES1    0.0000
      2 O2         0.7730   -0.2214   12.4692 O.3       1 RES1    0.0000
      3 O3         1.1052    1.7923   10.5442 O.3       1 RES1    0.0000
      4 O4        -0.1423    2.3464   12.4306 O.3       1 RES1    0.0000
      5 O5         2.9095    0.6053   12.1422 O.3       1 RES1    0.0000
      6 O6         1.7775    3.3478    7.8015 O.2       1 RES1    0.0000
      7 O7         3.0685    1.6481    8.3276 O.3       1 RES1    0.0000
      8 O8        -0.4680    2.8730    5.4745 O.2       1 RES1    0.0000
      9 O9         1.3040    3.6628    4.5341 O.2       1 RES1    0.0000
     10 N1         0.6896    2.7680    5.1022 N.pl3     1 RES1    0.0000
     11 C1         0.1540   -0.3754   11.2868 C.2       1 RES1    0.0000
     12 C2         0.2464    0.7031   10.2327 C.3       1 RES1    0.0000
     13 H1        -0.6729    1.0722   10.0946 H         1 RES1    0.0000
     14 C3         1.1531    2.1309   11.9247 C.3       1 RES1    0.0000
     15 C4         1.6734    0.9147   12.6953 C.3       1 RES1    0.0000
     16 C5         2.0748    3.3240   12.0141 C.3       1 RES1    0.0000
     17 H2         1.7027    4.0637   11.4893 H         1 RES1    0.0000
     18 H3         2.9563    3.0830   11.6605 H         1 RES1    0.0000
     19 H4         2.1622    3.5992   12.9503 H         1 RES1    0.0000
     20 C6         1.6858    1.0881   14.1994 C.3       1 RES1    0.0000
     21 H5         1.8924    0.2307   14.6258 H         1 RES1    0.0000
     22 H6         0.8055    1.3983   14.4996 H         1 RES1    0.0000
     23 H7         2.3664    1.7483   14.4465 H         1 RES1    0.0000
     24 C7        -0.8783    3.4425   11.8580 C.3       1 RES1    0.0000
     25 H8        -0.4838    4.2904   12.1504 H         1 RES1    0.0000
     26 H9        -1.8132    3.3987   12.1524 H         1 RES1    0.0000
     27 H10       -0.8423    3.3860   10.8805 H         1 RES1    0.0000
     28 C8         3.5761   -0.5441   12.6880 C.3       1 RES1    0.0000
     29 H11        3.9307   -0.3261   13.5750 H         1 RES1    0.0000
     30 H12        4.3136   -0.8057   12.0973 H         1 RES1    0.0000
     31 H13        2.9396   -1.2862   12.7643 H         1 RES1    0.0000
     32 C9         0.7218    0.1177    8.8894 C.3       1 RES1    0.0000
     33 H14        0.0794   -0.5997    8.6206 H         1 RES1    0.0000
     34 C10        0.7222    1.1947    7.7849 C.3       1 RES1    0.0000
     35 H15       -0.1411    1.6966    7.8375 H         1 RES1    0.0000
     36 C11        1.8428    2.1675    7.9969 C.2       1 RES1    0.0000
     37 C12        2.0972   -0.4939    8.9667 C.ar      1 RES1    0.0000
     38 C13        3.1930    0.2975    8.6716 C.ar      1 RES1    0.0000
     39 C14        4.4757   -0.2084    8.7046 C.ar      1 RES1    0.0000
     40 H16        5.2151    0.3500    8.4917 H         1 RES1    0.0000
     41 C15        4.6782   -1.5248    9.0476 C.ar      1 RES1    0.0000
     42 H17        5.5621   -1.8732    9.0820 H         1 RES1    0.0000
     43 C16        3.6090   -2.3432    9.3416 C.ar      1 RES1    0.0000
     44 H18        3.7505   -3.2516    9.5806 H         1 RES1    0.0000
     45 C17        2.3266   -1.8286    9.2851 C.ar      1 RES1    0.0000
     46 H19        1.5880   -2.3973    9.4671 H         1 RES1    0.0000
     47 C18        0.8266    0.5528    6.3706 C.3       1 RES1    0.0000
     48 H20        1.4748   -0.2020    6.4684 H         1 RES1    0.0000
     49 C19        1.4224    1.4635    5.2929 C.3       1 RES1    0.0000
     50 H21        2.3623    1.6775    5.5591 H         1 RES1    0.0000
     51 C20        1.4696    0.7652    3.9338 C.3       1 RES1    0.0000
     52 H22        1.7711    1.4118    3.2473 H         1 RES1    0.0000
     53 H23        2.1316    0.0302    3.9700 H         1 RES1    0.0000
     54 C21        0.1244    0.2020    3.5281 C.3       1 RES1    0.0000
     55 H24        0.2127   -0.2696    2.6623 H         1 RES1    0.0000
     56 H25       -0.5214    0.9433    3.4104 H         1 RES1    0.0000
     57 C22       -0.3952   -0.7612    4.5804 C.3       1 RES1    0.0000
     58 H26        0.2133   -1.5399    4.6386 H         1 RES1    0.0000
     59 H27       -1.2882   -1.0905    4.3094 H         1 RES1    0.0000
     60 C23       -0.4966   -0.0978    5.9522 C.3       1 RES1    0.0000
     61 H28       -0.7533   -0.7771    6.6250 H         1 RES1    0.0000
     62 H29       -1.2067    0.5918    5.9292 H         1 RES1    0.0000
@<TRIPOS>BOND
     1    1   11 2
     2    2   11 1
     3    3   12 1
     4    4   14 1
     5    5   15 1
     6    6   36 2
     7    7   36 1
     8    8   10 2
     9    9   10 2
    10   10   49 1
    11   11   12 1
    12   12   13 1
    13   14    3 1
    14   15    2 1
    15   16   14 1
    16   17   16 1
    17   18   16 1
    18   19   16 1
    19   20   15 1
    20   21   20 1
    21   22   20 1
    22   23   20 1
    23   24    4 1
    24   25   24 1
    25   26   24 1
    26   27   24 1
    27   28    5 1
    28   29   28 1
    29   30   28 1
    30   31   28 1
    31   32   12 1
    32   33   32 1
    33   34   32 1
    34   35   34 1
    35   36   34 1
    36   37   32 1
    37   38    7 1
    38   39   38 ar
    39   40   39 1
    40   41   39 ar
    41   42   41 1
    42   43   41 ar
    43   44   43 1
    44   45   37 ar
    45   46   45 1
    46   47   34 1
    47   48   47 1
    48   49   47 1
    49   50   49 1
    50   51   49 1
    51   52   51 1
    52   53   51 1
    53   54   51 1
    54   55   54 1
    55   56   54 1
    56   57   54 1
    57   58   57 1
    58   59   57 1
    59   60   47 1
    60   61   60 1
    61   62   60 1
    62   14   15 1
    63   37   38 ar
    64   43   45 ar
    65   57   60 1
@<TRIPOS>SUBSTRUCTURE
     1 RES1 1

@<TRIPOS>CRYSIN
  14.6048    7.9540   19.9249  90.0000  99.0510  90.0000 231 1

