# MOL2 file generated by ConQuest
# Please check atom types

@<TRIPOS>MOLECULE
EFAQIN
    37    37     1
SMALL
NO_CHARGES
****
Generated from CSD

@<TRIPOS>ATOM
      1 C1        -2.0979    1.3388    6.4691 C.3       1 RES1    0.0000
      2 H1        -2.7565    0.6403    6.4897 H         1 RES1    0.0000
      3 H2        -1.5410    1.2764    7.2488 H         1 RES1    0.0000
      4 H3        -1.5574    1.2471    5.6814 H         1 RES1    0.0000
      5 C2        -2.7927    2.6883    6.4512 C.3       1 RES1    0.0000
      6 O1        -1.6424    3.6249    6.4197 O.3       1 RES1    0.0000
      7 C3        -1.8296    4.9534    6.3475 C.2       1 RES1    0.0000
      8 N1        -0.6501    5.6259    6.3330 N.am      1 RES1    0.0000
      9 C4         0.6213    5.0207    6.7355 C.3       1 RES1    0.0000
     10 H4         0.6140    4.0746    6.5192 H         1 RES1    0.0000
     11 H5         0.7343    5.1083    7.6950 H         1 RES1    0.0000
     12 C5         1.7753    5.6956    6.0247 C.3       1 RES1    0.0000
     13 H6         2.6115    5.3097    6.3314 H         1 RES1    0.0000
     14 H7         1.7028    5.5348    5.0716 H         1 RES1    0.0000
     15 N2         1.7849    7.1467    6.2773 N.3       1 RES1    0.0000
     16 C6         2.2363    7.5596    7.5340 C.2       1 RES1    0.0000
     17 C7        -3.5913    2.9298    7.7164 C.3       1 RES1    0.0000
     18 H8        -4.3375    2.3268    7.7432 H         1 RES1    0.0000
     19 H9        -3.9107    3.8352    7.7254 H         1 RES1    0.0000
     20 H10       -3.0312    2.7805    8.4818 H         1 RES1    0.0000
     21 O2        -2.9131    5.4984    6.2722 O.2       1 RES1    0.0000
     22 N3         3.3534    6.9677    8.0222 N.3       1 RES1    0.0000
     23 C8         0.5335    7.7154    5.7940 C.3       1 RES1    0.0000
     24 H11        0.4843    7.5961    4.8328 H         1 RES1    0.0000
     25 H12        0.5316    8.6682    5.9746 H         1 RES1    0.0000
     26 C9        -0.7000    7.0913    6.4315 C.3       1 RES1    0.0000
     27 H13       -0.7498    7.3526    7.3641 H         1 RES1    0.0000
     28 H14       -1.4965    7.4186    5.9845 H         1 RES1    0.0000
     29 C10       -3.6222    2.8287    5.2030 C.3       1 RES1    0.0000
     30 H15       -4.3611    2.2160    5.2388 H         1 RES1    0.0000
     31 H16       -3.0807    2.6316    4.4349 H         1 RES1    0.0000
     32 H17       -3.9539    3.7273    5.1386 H         1 RES1    0.0000
     33 O3         2.2729    8.8136    9.3893 O.3       1 RES1    0.0000
     34 H18        1.8527    9.3916    9.7917 H         1 RES1    0.0000
     35 N4         1.5755    8.4707    8.1689 N.2       1 RES1    0.0000
     36 H19        3.9391    6.5923    7.4661 H         1 RES1    0.0000
     37 H20        3.6558    7.3651    8.8162 H         1 RES1    0.0000
@<TRIPOS>BOND
     1    1    2 1
     2    3    1 1
     3    4    1 1
     4    5    1 1
     5    6    5 1
     6    7    6 1
     7    8    7 1
     8    9    8 1
     9   10    9 1
    10   11    9 1
    11   12    9 1
    12   13   12 1
    13   14   12 1
    14   15   12 1
    15   16   15 1
    16   17    5 1
    17   18   17 1
    18   19   17 1
    19   20   17 1
    20   21    7 2
    21   22   16 1
    22   23   15 1
    23   24   23 1
    24   25   23 1
    25   26    8 1
    26   27   26 1
    27   28   26 1
    28   29    5 1
    29   30   29 1
    30   31   29 1
    31   32   29 1
    32   33   34 1
    33   35   16 2
    34   36   22 1
    35   37   22 1
    36   23   26 1
    37   33   35 1
@<TRIPOS>SUBSTRUCTURE
     1 RES1 1

@<TRIPOS>CRYSIN
   8.1923    8.7859    9.7140 109.4510  99.5400  96.4740   2 1

