# MOL2 file generated by ConQuest
# Please check atom types

@<TRIPOS>MOLECULE
EFATOW
    24    25     1
SMALL
NO_CHARGES
****
Generated from CSD

@<TRIPOS>ATOM
      1 C1         1.8293    2.1974    0.9698 C.ar      1 RES1    0.0000
      2 C2         2.5059    3.3378    1.4301 C.ar      1 RES1    0.0000
      3 H1         3.0417    3.8286    0.8496 H         1 RES1    0.0000
      4 C3         2.3736    3.7250    2.7365 C.ar      1 RES1    0.0000
      5 H2         2.8070    4.4843    3.0540 H         1 RES1    0.0000
      6 C4         1.5703    2.9517    3.5860 C.ar      1 RES1    0.0000
      7 C5         0.9029    1.8193    3.0794 C.ar      1 RES1    0.0000
      8 C6         1.0143    1.4145    1.7455 C.ar      1 RES1    0.0000
      9 H3         0.5696    0.6698    1.4107 H         1 RES1    0.0000
     10 C7         1.2003    2.9814    4.9539 C.2       1 RES1    0.0000
     11 H4         1.4898    3.6245    5.5603 H         1 RES1    0.0000
     12 C8        -0.5901    0.0584    4.1221 C.3       1 RES1    0.0000
     13 H5        -1.0068   -0.0525    3.2535 H         1 RES1    0.0000
     14 H6        -1.2971    0.1463    4.7798 H         1 RES1    0.0000
     15 C9         0.2154   -1.1607    4.4341 C.2       1 RES1    0.0000
     16 H7         0.9655   -1.3334    3.9116 H         1 RES1    0.0000
     17 C10       -0.0693   -2.0011    5.3970 C.2       1 RES1    0.0000
     18 H8         0.4910   -2.7810    5.5403 H         1 RES1    0.0000
     19 H9        -0.8720   -1.8341    5.9671 H         1 RES1    0.0000
     20 N1         2.0207    1.8016   -0.4350 N.pl3     1 RES1    0.0000
     21 N2         0.2032    1.2748    4.1148 N.pl3     1 RES1    0.0000
     22 N3         0.3932    1.9825    5.2611 N.2       1 RES1    0.0000
     23 O1         1.2940    0.9282   -0.8945 O.2       1 RES1    0.0000
     24 O2         2.9007    2.3483   -1.0797 O.2       1 RES1    0.0000
@<TRIPOS>BOND
     1    1    2 ar
     2    2    3 1
     3    4    2 ar
     4    5    4 1
     5    6    4 ar
     6    7    6 ar
     7    8    1 ar
     8    9    8 1
     9   10    6 1
    10   11   10 1
    11   12   13 1
    12   14   12 1
    13   15   12 1
    14   16   15 1
    15   17   15 2
    16   18   17 1
    17   19   17 1
    18   20    1 1
    19   21    7 1
    20   22   10 2
    21   23   20 2
    22   24   20 2
    23    7    8 ar
    24   12   21 1
    25   21   22 1
@<TRIPOS>SUBSTRUCTURE
     1 RES1 1

@<TRIPOS>CRYSIN
   4.3630    8.3245   13.5410  95.6470  98.4600  97.7700   2 1

