# MOL2 file generated by ConQuest
# Please check atom types

@<TRIPOS>MOLECULE
EFIHOQ
    62    63     1
SMALL
USER_CHARGES
****
Generated from CSD

@<TRIPOS>ATOM
      1 O1         3.6389    2.4029   12.2497 O.2       1 RES1    0.0000
      2 O2         4.3101    2.4029    7.7743 O.2       1 RES1   -1.0000
      3 O3        10.2293    2.4029    8.6644 O.2       1 RES1    0.0000
      4 O4         9.5768    2.4029   13.1192 O.2       1 RES1    0.0000
      5 N1         3.4467    2.4029   11.0257 N.3       1 RES1    0.0000
      6 N2         3.7671    2.4029    8.9034 N.pl3     1 RES1    1.0000
      7 N3         8.9953    2.4029    8.3450 N.3       1 RES1    0.0000
      8 N4         8.2939    2.4029   13.0780 N.3       1 RES1    0.0000
      9 C1         4.3975    2.4029   10.0758 C.2       1 RES1    0.0000
     10 C2         5.8377    2.4029   10.2984 C.ar      1 RES1    0.0000
     11 C3         6.6754    2.4029    9.2043 C.ar      1 RES1    0.0000
     12 C4         8.0632    2.4029    9.4103 C.ar      1 RES1    0.0000
     13 C5         8.5631    2.4029   10.6981 C.ar      1 RES1    0.0000
     14 C6         7.7113    2.4029   11.7902 C.ar      1 RES1    0.0000
     15 C7         6.3294    2.4029   11.5986 C.ar      1 RES1    0.0000
     16 C8         2.0496    2.4029   10.5374 C.3       1 RES1    0.0000
     17 C9         2.2663    2.4029    8.9941 C.3       1 RES1    0.0000
     18 C10        8.6481    2.4029    6.8800 C.3       1 RES1    0.0000
     19 C11        7.5388    2.4029   14.3761 C.3       1 RES1    0.0000
     20 C12        1.3307    1.2072   11.0834 C.3       1 RES1    0.0000
     21 C13        1.7560    3.6303    8.2832 C.3       1 RES1    0.0000
     22 C14        9.9543    2.4029    6.1053 C.3       1 RES1    0.0000
     23 C15        7.8651    1.1351    6.5297 C.3       1 RES1    0.0000
     24 C16        8.5700    2.4029   15.4970 C.3       1 RES1    0.0000
     25 C17        6.7057    1.1275   14.4915 C.3       1 RES1    0.0000
     26 H1         6.3177    2.4029    8.3244 H         1 RES1    0.0000
     27 H2         9.5022    2.4029   10.8362 H         1 RES1    0.0000
     28 H3         5.7374    2.4029   12.3403 H         1 RES1    0.0000
     29 H4         0.4218    1.2303   10.8073 H         1 RES1    0.0000
     30 H5         1.7408    0.4152   10.7579 H         1 RES1    0.0000
     31 H6         1.3738    1.2188   12.0333 H         1 RES1    0.0000
     32 H7         2.0950    4.4079    8.7118 H         1 RES1    0.0000
     33 H8         2.0461    3.6159    7.3787 H         1 RES1    0.0000
     34 H9         0.8075    3.6409    8.3121 H         1 RES1    0.0000
     35 H10       10.4553    1.6273    6.3278 H         1 RES1    0.0000
     36 H11        9.7690    2.4029    5.1739 H         1 RES1    0.0000
     37 H12       10.4553    3.1786    6.3278 H         1 RES1    0.0000
     38 H13        7.0646    1.1053    7.0387 H         1 RES1    0.0000
     39 H14        7.6507    1.1419    5.6025 H         1 RES1    0.0000
     40 H15        8.3953    0.3710    6.7255 H         1 RES1    0.0000
     41 H16        8.1261    2.4029   16.3356 H         1 RES1    0.0000
     42 H17        9.1235    1.6350   15.4167 H         1 RES1    0.0000
     43 H18        9.1037    3.1863   15.4352 H         1 RES1    0.0000
     44 H19        6.2490    1.1217   15.3260 H         1 RES1    0.0000
     45 H20        6.0730    1.0977   13.7847 H         1 RES1    0.0000
     46 H21        7.2767    0.3701   14.4379 H         1 RES1    0.0000
     47 C12G       1.3307    3.5986   11.0834 C.3       1 RES1    0.0000
     48 H4G        0.4218    3.5756   10.8073 H         1 RES1    0.0000
     49 H5G        1.7408    4.3906   10.7579 H         1 RES1    0.0000
     50 H6G        1.3738    3.5871   12.0333 H         1 RES1    0.0000
     51 C13G       1.7560    1.1755    8.2832 C.3       1 RES1    0.0000
     52 H7G        2.0950    0.3979    8.7118 H         1 RES1    0.0000
     53 H8G        2.0461    1.1899    7.3787 H         1 RES1    0.0000
     54 H9G        0.8075    1.1649    8.3121 H         1 RES1    0.0000
     55 C15G       7.8651    3.6707    6.5297 C.3       1 RES1    0.0000
     56 H13G       7.0646    3.7005    7.0387 H         1 RES1    0.0000
     57 H14G       7.6507    3.6640    5.6025 H         1 RES1    0.0000
     58 H15G       8.3953    4.4348    6.7255 H         1 RES1    0.0000
     59 C17G       6.7057    3.6784   14.4915 C.3       1 RES1    0.0000
     60 H19G       6.2490    3.6842   15.3260 H         1 RES1    0.0000
     61 H20G       6.0730    3.7082   13.7847 H         1 RES1    0.0000
     62 H21G       7.2767    4.4358   14.4379 H         1 RES1    0.0000
@<TRIPOS>BOND
     1    1    5 1
     2    2    6 1
     3    3    7 1
     4    4    8 1
     5    5    9 1
     6    6    9 2
     7    7   12 1
     8    8   14 1
     9    9   10 1
    10   10   11 ar
    11   11   12 ar
    12   12   13 ar
    13   13   14 ar
    14   14   15 ar
    15   15   10 ar
    16   16    5 1
    17   17    6 1
    18   18    7 1
    19   19    8 1
    20   20   16 1
    21   21   17 1
    22   22   18 1
    23   23   18 1
    24   24   19 1
    25   25   19 1
    26   26   11 1
    27   27   13 1
    28   28   15 1
    29   29   20 1
    30   30   20 1
    31   31   20 1
    32   32   21 1
    33   33   21 1
    34   34   21 1
    35   35   22 1
    36   36   22 1
    37   37   22 1
    38   38   23 1
    39   39   23 1
    40   40   23 1
    41   41   24 1
    42   42   24 1
    43   43   24 1
    44   44   25 1
    45   45   25 1
    46   46   25 1
    47   47   16 1
    48   48   47 1
    49   49   47 1
    50   50   47 1
    51   51   17 1
    52   52   51 1
    53   53   51 1
    54   54   51 1
    55   55   18 1
    56   56   55 1
    57   57   55 1
    58   58   55 1
    59   59   19 1
    60   60   59 1
    61   61   59 1
    62   62   59 1
    63   16   17 1
@<TRIPOS>SUBSTRUCTURE
     1 RES1 1

@<TRIPOS>CRYSIN
  11.6520    9.6117   20.6050  90.0000  90.0000  90.0000  62 1

