# MOL2 file generated by ConQuest
# Please check atom types

@<TRIPOS>MOLECULE
EFOFOV
    35    37     1
SMALL
NO_CHARGES
****
Generated from CSD

@<TRIPOS>ATOM
      1 O1        -0.8289   -1.2212    1.2684 O.2       1 RES1    0.0000
      2 O2        -1.9634    0.2737    2.3353 O.2       1 RES1    0.0000
      3 O3        -0.0078    3.2227    5.2217 O.2       1 RES1    0.0000
      4 O4         1.9634    4.0504    4.8521 O.2       1 RES1    0.0000
      5 O5         5.1743    3.0863    9.7418 O.2       1 RES1    0.0000
      6 O6         6.3305    4.7469    8.8642 O.2       1 RES1    0.0000
      7 N1         3.9680    0.7860    1.5755 N.ar      1 RES1    0.0000
      8 N2        -0.9038   -0.1932    1.9202 N.pl3     1 RES1    0.0000
      9 N3         1.0966    3.1938    4.6782 N.pl3     1 RES1    0.0000
     10 N4         3.8311    2.3685    3.6375 N.pl3     1 RES1    0.0000
     11 H1         4.5008    2.1924    3.1558 H         1 RES1    0.0000
     12 N5         5.5591    3.7687    8.7817 N.pl3     1 RES1    0.0000
     13 C1         4.1173   -0.0289    0.5474 C.ar      1 RES1    0.0000
     14 H2         4.9639   -0.1231    0.1736 H         1 RES1    0.0000
     15 C2         3.0556   -0.7586   -0.0024 C.ar      1 RES1    0.0000
     16 H3         3.2052   -1.3287   -0.7210 H         1 RES1    0.0000
     17 C3         1.8021   -0.6302    0.5207 C.ar      1 RES1    0.0000
     18 H4         1.0927   -1.1132    0.1614 H         1 RES1    0.0000
     19 C4         1.5865    0.2443    1.6155 C.ar      1 RES1    0.0000
     20 C5         0.3385    0.5119    2.2661 C.ar      1 RES1    0.0000
     21 C6         0.2365    1.4352    3.2554 C.ar      1 RES1    0.0000
     22 H5        -0.5958    1.6118    3.6328 H         1 RES1    0.0000
     23 C7         1.3653    2.1284    3.7178 C.ar      1 RES1    0.0000
     24 C8         2.6482    1.8599    3.2226 C.ar      1 RES1    0.0000
     25 C9         2.7202    0.9328    2.0998 C.ar      1 RES1    0.0000
     26 C10        4.2141    2.7298    4.9437 C.ar      1 RES1    0.0000
     27 C11        3.6810    2.0858    6.0531 C.ar      1 RES1    0.0000
     28 H6         3.0335    1.4267    5.9451 H         1 RES1    0.0000
     29 C12        4.1183    2.4305    7.3239 C.ar      1 RES1    0.0000
     30 H7         3.7619    2.0205    8.0777 H         1 RES1    0.0000
     31 C13        5.0960    3.3960    7.4405 C.ar      1 RES1    0.0000
     32 C14        5.6486    4.0253    6.3626 C.ar      1 RES1    0.0000
     33 H8         6.3115    4.6669    6.4816 H         1 RES1    0.0000
     34 C15        5.2120    3.6986    5.0930 C.ar      1 RES1    0.0000
     35 H9         5.5778    4.1167    4.3465 H         1 RES1    0.0000
@<TRIPOS>BOND
     1    1    8 2
     2    2    8 2
     3    3    9 2
     4    4    9 2
     5    5   12 2
     6    6   12 2
     7    7   13 ar
     8    8   20 1
     9    9   23 1
    10   10   11 1
    11   12   31 1
    12   13   14 1
    13   15   13 ar
    14   16   15 1
    15   17   15 ar
    16   18   17 1
    17   19   17 ar
    18   20   19 ar
    19   21   20 ar
    20   22   21 1
    21   23   21 ar
    22   24   10 1
    23   25    7 ar
    24   26   10 1
    25   27   26 ar
    26   28   27 1
    27   29   27 ar
    28   30   29 1
    29   31   29 ar
    30   32   31 ar
    31   33   32 1
    32   34   26 ar
    33   35   34 1
    34   19   25 ar
    35   23   24 ar
    36   24   25 ar
    37   32   34 ar
@<TRIPOS>SUBSTRUCTURE
     1 RES1 1

@<TRIPOS>CRYSIN
  26.0160    4.7351   12.1378  90.0000  90.0000  90.0000  33 1

