# MOL2 file generated by ConQuest
# Please check atom types

@<TRIPOS>MOLECULE
EFUCAK
    38    35     2
SMALL
NO_CHARGES
****
Generated from CSD

@<TRIPOS>ATOM
      1 N1         1.2762    0.8917    8.2840 N.ar      1 RES1    0.0000
      2 O1         0.5109   -1.1436    8.9904 O.3       1 RES1    0.0000
      3 N2         2.1473    2.8369    7.4375 N.3       1 RES1    0.0000
      4 N3         2.1028   -1.1782    7.4394 N.ar      1 RES1    0.0000
      5 C1         2.1530    1.5167    7.4533 C.ar      1 RES1    0.0000
      6 N4         3.0286    0.8647    6.6423 N.ar      1 RES1    0.0000
      7 C2         1.3113   -0.4189    8.2250 C.ar      1 RES1    0.0000
      8 C3         2.9008   -0.4337    6.7141 C.ar      1 RES1    0.0000
      9 N5         5.2819   -0.9283    6.0772 N.pl3     1 RES1    0.0000
     10 C4         3.8247   -1.2106    5.7852 C.3       1 RES1    0.0000
     11 C5         1.2243    3.6573    8.2325 C.3       1 RES1    0.0000
     12 H1         1.2344    3.3921    9.1651 H         1 RES1    0.0000
     13 H2         0.3182    3.5942    7.8931 H         1 RES1    0.0000
     14 C6        -0.4379   -0.4515    9.8206 C.3       1 RES1    0.0000
     15 H3        -0.9519   -1.0899   10.3199 H         1 RES1    0.0000
     16 H4        -1.0245    0.0715    9.2692 H         1 RES1    0.0000
     17 H5         0.0310    0.1274   10.4277 H         1 RES1    0.0000
     18 O2         2.8290   -3.2407    5.2841 O.2       1 RES1    0.0000
     19 C7         2.9603    3.6450    6.5216 C.3       1 RES1    0.0000
     20 H6         2.8608    3.3416    5.6058 H         1 RES1    0.0000
     21 H7         3.8984    3.6136    6.7662 H         1 RES1    0.0000
     22 N6         3.6501   -2.7227    5.9749 N.pl3     1 RES1    0.0000
     23 N7         3.5135   -0.9085    4.3189 N.pl3     1 RES1    0.0000
     24 O3         4.4910   -0.5672    3.7081 Du        2 SUP2    0.0000
     25 O4         2.3516   -0.7550    4.1841 Du        2 SUP2    0.0000
     26 O5         4.1665   -1.4850    3.4803 O.2       1 RES1    0.0000
     27 O6         2.5866   -0.2318    4.0558 O.2       1 RES1    0.0000
     28 O7         4.3130   -3.2273    6.8359 O.2       1 RES1    0.0000
     29 C8         1.7737    5.0421    8.0577 C.3       1 RES1    0.0000
     30 H8         1.0652    5.7022    8.1116 H         1 RES1    0.0000
     31 H9         2.4358    5.2373    8.7383 H         1 RES1    0.0000
     32 C9         2.3937    5.0427    6.7011 C.3       1 RES1    0.0000
     33 H10        3.0973    5.7071    6.6462 H         1 RES1    0.0000
     34 H11        1.7291    5.2326    6.0205 H         1 RES1    0.0000
     35 O8         5.6049   -0.7907    7.1688 Du        2 SUP2    0.0000
     36 O9         5.9526   -0.5896    5.0767 Du        2 SUP2    0.0000
     37 O10        5.5161   -0.4014    7.1502 O.2       1 RES1    0.0000
     38 O11        6.1200   -1.5076    5.3529 O.2       1 RES1    0.0000
@<TRIPOS>BOND
     1    1    5 ar
     2    2    7 1
     3    3    5 1
     4    4    7 ar
     5    5    6 ar
     6    6    8 ar
     7    7    1 ar
     8    8    4 ar
     9    9   10 1
    10   10    8 1
    11   11    3 1
    12   12   11 1
    13   13   11 1
    14   14    2 1
    15   15   14 1
    16   16   14 1
    17   17   14 1
    18   18   22 2
    19   19    3 1
    20   20   19 1
    21   21   19 1
    22   22   10 1
    23   23   10 1
    24   26   23 2
    25   27   23 2
    26   28   22 2
    27   29   11 1
    28   30   29 1
    29   31   29 1
    30   32   19 1
    31   33   32 1
    32   34   32 1
    33   37    9 2
    34   38    9 2
    35   29   32 1
@<TRIPOS>SUBSTRUCTURE
     1 RES1 1
     2 SUP2 24

@<TRIPOS>CRYSIN
   8.5360    9.3780    9.7401  79.1300  73.9740  72.7600   2 1

