# MOL2 file generated by ConQuest
# Please check atom types

@<TRIPOS>MOLECULE
EGEQUC
    43    45     1
SMALL
NO_CHARGES
****
Generated from CSD

@<TRIPOS>ATOM
      1 O1         2.7920   10.0026    3.5461 O.3       1 RES1    0.0000
      2 O2         4.2318   12.0144    2.4632 O.3       1 RES1    0.0000
      3 O3         6.7762   11.6672    1.7923 O.3       1 RES1    0.0000
      4 O4         2.0572    3.3909   -1.2020 O.2       1 RES1    0.0000
      5 O5         1.7213    5.5022   -1.5653 O.2       1 RES1    0.0000
      6 N1         2.2940    4.5789   -0.9913 N.pl3     1 RES1    0.0000
      7 N2         6.6429    7.0738    3.3379 N.pl3     1 RES1    0.0000
      8 N3         7.0159    4.8910    3.3782 N.2       1 RES1    0.0000
      9 C1         3.3093    4.9339   -0.0060 C.ar      1 RES1    0.0000
     10 C2         3.8105    6.2067    0.0257 C.ar      1 RES1    0.0000
     11 C3         4.7700    6.5326    0.9544 C.ar      1 RES1    0.0000
     12 C4         5.2064    5.5856    1.8874 C.ar      1 RES1    0.0000
     13 C5         4.6769    4.3075    1.8223 C.ar      1 RES1    0.0000
     14 C6         3.7372    3.9643    0.8816 C.ar      1 RES1    0.0000
     15 C7         6.2511    5.8487    2.8650 C.2       1 RES1    0.0000
     16 C8         6.0224    8.3603    3.1237 C.ar      1 RES1    0.0000
     17 C9         4.6897    8.5030    3.4793 C.ar      1 RES1    0.0000
     18 C10        4.0878    9.7388    3.2240 C.ar      1 RES1    0.0000
     19 C11        4.8111   10.7690    2.6619 C.ar      1 RES1    0.0000
     20 C12        6.1503   10.6014    2.3424 C.ar      1 RES1    0.0000
     21 C13        6.7659    9.3732    2.5763 C.ar      1 RES1    0.0000
     22 C14        7.7073    6.8727    4.1793 C.2       1 RES1    0.0000
     23 C15        7.9139    5.5284    4.1810 C.2       1 RES1    0.0000
     24 C16        1.9392    8.9190    3.8631 C.3       1 RES1    0.0000
     25 C17        3.2823   12.0692    1.4042 C.3       1 RES1    0.0000
     26 C18        8.1550   11.5568    1.4770 C.3       1 RES1    0.0000
     27 H1         3.4981    6.8599   -0.5894 H         1 RES1    0.0000
     28 H2         5.1400    7.4078    0.9630 H         1 RES1    0.0000
     29 H3         4.9709    3.6520    2.4435 H         1 RES1    0.0000
     30 H4         3.3902    3.0805    0.8422 H         1 RES1    0.0000
     31 H5         4.2060    7.7898    3.8794 H         1 RES1    0.0000
     32 H6         7.6813    9.2409    2.3604 H         1 RES1    0.0000
     33 H7         8.1960    7.5316    4.6582 H         1 RES1    0.0000
     34 H8         8.5946    5.0916    4.6770 H         1 RES1    0.0000
     35 H9         1.0694    9.2492    4.0576 H         1 RES1    0.0000
     36 H10        1.8952    8.3257    3.1220 H         1 RES1    0.0000
     37 H11        2.2812    8.4588    4.6188 H         1 RES1    0.0000
     38 H12        2.9384   12.9511    1.3340 H         1 RES1    0.0000
     39 H13        3.7043   11.8262    0.5894 H         1 RES1    0.0000
     40 H14        2.5717   11.4647    1.5867 H         1 RES1    0.0000
     41 H15        8.6463   11.3634    2.2670 H         1 RES1    0.0000
     42 H16        8.2812   10.8594    0.8456 H         1 RES1    0.0000
     43 H17        8.4617   12.3780    1.1078 H         1 RES1    0.0000
@<TRIPOS>BOND
     1    1   18 1
     2    2   19 1
     3    3   20 1
     4    4    6 2
     5    5    6 2
     6    6    9 1
     7    7   15 1
     8    8   15 2
     9    9   10 ar
    10   10   11 ar
    11   11   12 ar
    12   12   13 ar
    13   13   14 ar
    14   14    9 ar
    15   15   12 1
    16   16    7 1
    17   17   16 ar
    18   18   17 ar
    19   19   18 ar
    20   20   19 ar
    21   21   16 ar
    22   22    7 1
    23   23    8 1
    24   24    1 1
    25   25    2 1
    26   26    3 1
    27   27   10 1
    28   28   11 1
    29   29   13 1
    30   30   14 1
    31   31   17 1
    32   32   21 1
    33   33   22 1
    34   34   23 1
    35   35   24 1
    36   36   24 1
    37   37   24 1
    38   38   25 1
    39   39   25 1
    40   40   25 1
    41   41   26 1
    42   42   26 1
    43   43   26 1
    44   20   21 ar
    45   22   23 2
@<TRIPOS>SUBSTRUCTURE
     1 RES1 1

@<TRIPOS>CRYSIN
   9.3640   11.0470    8.6880  92.1300  99.5500  78.0000   2 1

