# MOL2 file generated by ConQuest
# Please check atom types

@<TRIPOS>MOLECULE
EGEVIW
    36    37     1
SMALL
NO_CHARGES
****
Generated from CSD

@<TRIPOS>ATOM
      1 O1         2.9508    9.7723   11.8481 O.3       1 RES1    0.0000
      2 N1         2.1810   11.8567    9.1247 N.ar      1 RES1    0.0000
      3 N2         2.1514   10.8033   11.2043 N.3       1 RES1    0.0000
      4 C1         2.9253   11.3421   10.1072 C.ar      1 RES1    0.0000
      5 C2         4.3249   11.2782   10.0552 C.ar      1 RES1    0.0000
      6 C3         4.9690   11.8367    8.9645 C.ar      1 RES1    0.0000
      7 C4         4.2250   12.4366    7.9461 C.ar      1 RES1    0.0000
      8 C5         2.8339   12.3950    8.0811 C.ar      1 RES1    0.0000
      9 C6         4.8659   13.1225    6.7911 C.ar      1 RES1    0.0000
     10 C7         6.0765   13.8166    6.9583 C.ar      1 RES1    0.0000
     11 C8         6.6816   14.4692    5.8881 C.ar      1 RES1    0.0000
     12 C9         6.0904   14.4408    4.6364 C.ar      1 RES1    0.0000
     13 C10        4.8891   13.7694    4.4561 C.ar      1 RES1    0.0000
     14 C11        4.2834   13.1190    5.5241 C.ar      1 RES1    0.0000
     15 C12        1.7495   11.7851   12.2804 C.3       1 RES1    0.0000
     16 C13        1.0242   12.9717   11.6419 C.3       1 RES1    0.0000
     17 C14        0.7836   11.0483   13.2138 C.3       1 RES1    0.0000
     18 C15        2.9779   12.2868   13.0599 C.3       1 RES1    0.0000
     19 H1         4.7976   10.8387   10.7703 H         1 RES1    0.0000
     20 H2         5.9153   11.8310    8.9395 H         1 RES1    0.0000
     21 H3         2.2885   12.7791    7.3932 H         1 RES1    0.0000
     22 H4         6.4837   13.8346    7.8277 H         1 RES1    0.0000
     23 H5         7.5459   14.9909    6.0472 H         1 RES1    0.0000
     24 H6         6.5200   14.9135    3.8947 H         1 RES1    0.0000
     25 H7         4.4810   13.7372    3.5795 H         1 RES1    0.0000
     26 H8         3.4606   12.6264    5.3731 H         1 RES1    0.0000
     27 H9         1.6006   13.5483   11.0614 H         1 RES1    0.0000
     28 H10        0.2674   12.6839   11.0920 H         1 RES1    0.0000
     29 H11        0.6876   13.5532   12.3680 H         1 RES1    0.0000
     30 H12       -0.0275   10.7567   12.7149 H         1 RES1    0.0000
     31 H13        0.4977   11.6538   13.9328 H         1 RES1    0.0000
     32 H14        1.1987   10.3030   13.6439 H         1 RES1    0.0000
     33 H15        2.6857   12.8982   13.7928 H         1 RES1    0.0000
     34 H16        3.4420   11.5659   13.5115 H         1 RES1    0.0000
     35 H17        3.5862   12.8033   12.4555 H         1 RES1    0.0000
     36 H18        2.5023    9.0237   11.5407 H         1 RES1    0.0000
@<TRIPOS>BOND
     1    1    3 1
     2    2    4 ar
     3    3    4 1
     4    4    5 ar
     5    5    6 ar
     6    6    7 ar
     7    7    8 ar
     8    8    2 ar
     9    9    7 1
    10   10    9 ar
    11   11   10 ar
    12   12   11 ar
    13   13   12 ar
    14   14    9 ar
    15   15    3 1
    16   16   15 1
    17   17   15 1
    18   18   15 1
    19   19    5 1
    20   20    6 1
    21   21    8 1
    22   22   10 1
    23   23   11 1
    24   24   12 1
    25   25   13 1
    26   26   14 1
    27   27   16 1
    28   28   16 1
    29   29   16 1
    30   30   17 1
    31   31   17 1
    32   32   17 1
    33   33   18 1
    34   34   18 1
    35   35   18 1
    36   36    1 1
    37   13   14 ar
@<TRIPOS>SUBSTRUCTURE
     1 RES1 1

@<TRIPOS>CRYSIN
   6.4350    9.7500   11.8980  66.9900  87.1100  77.4200   2 1

