# MOL2 file generated by ConQuest
# Please check atom types

@<TRIPOS>MOLECULE
EGISOE
    34    35     1
SMALL
NO_CHARGES
****
Generated from CSD

@<TRIPOS>ATOM
      1 C1         2.4213    4.2969   15.3173 C.ar      1 RES1    0.0000
      2 C2         3.9417    4.3693   13.4132 C.ar      1 RES1    0.0000
      3 H1         4.7371    4.1126   13.0041 H         1 RES1    0.0000
      4 C3         3.0671    5.1722   12.7324 C.ar      1 RES1    0.0000
      5 C4         3.6617    3.9267   14.7133 C.ar      1 RES1    0.0000
      6 C5         4.5649    3.1451   15.4628 C.ar      1 RES1    0.0000
      7 H2         5.3705    2.8827   15.0795 H         1 RES1    0.0000
      8 C6         3.0719    3.1369   17.3312 C.ar      1 RES1    0.0000
      9 H3         2.8902    2.8802   18.2075 H         1 RES1    0.0000
     10 C7         3.3555    5.7621   11.4191 C.2       1 RES1    0.0000
     11 C8         1.5157    5.0850   14.5636 C.ar      1 RES1    0.0000
     12 H4         0.6923    5.3055   14.9355 H         1 RES1    0.0000
     13 C9         1.8148    5.5251   13.3193 C.ar      1 RES1    0.0000
     14 H5         1.2095    6.0533   12.8511 H         1 RES1    0.0000
     15 C10        2.1514    3.8740   16.6357 C.ar      1 RES1    0.0000
     16 H6         1.3423    4.0978   17.0349 H         1 RES1    0.0000
     17 C11        4.2772    2.7683   16.7389 C.ar      1 RES1    0.0000
     18 H7         4.8908    2.2599   17.2178 H         1 RES1    0.0000
     19 C12        6.1051    5.4840    9.3824 C.2       1 RES1    0.0000
     20 C13        6.7032    4.3117    9.9573 C.1       1 RES1    0.0000
     21 C14        6.7837    6.1833    8.2175 C.2       1 RES1    0.0000
     22 C15        8.6235    5.9973    6.7249 C.3       1 RES1    0.0000
     23 H8         8.5436    6.9623    6.6700 H         1 RES1    0.0000
     24 H9         9.5589    5.7810    6.8619 H         1 RES1    0.0000
     25 C16        8.1832    5.4198    5.5183 C.3       1 RES1    0.0000
     26 H10        8.0736    4.4737    5.6353 H         1 RES1    0.0000
     27 H11        8.8326    5.5835    4.8286 H         1 RES1    0.0000
     28 H12        7.3437    5.8106    5.2634 H         1 RES1    0.0000
     29 O1         2.6882    6.5477   10.8145 O.2       1 RES1    0.0000
     30 O2         4.5858    5.3038   10.9407 O.3       1 RES1    0.0000
     31 O3         7.8340    5.5062    7.8681 O.3       1 RES1    0.0000
     32 O4         6.3690    7.1688    7.7242 O.2       1 RES1    0.0000
     33 N1         5.0374    6.0138    9.8122 N.2       1 RES1    0.0000
     34 N2         7.1519    3.3944   10.4492 N.1       1 RES1    0.0000
@<TRIPOS>BOND
     1    1    5 ar
     2    2    3 1
     3    4    2 ar
     4    5    2 ar
     5    6    5 ar
     6    7    6 1
     7    8    9 1
     8   10    4 1
     9   11    1 ar
    10   12   11 1
    11   13    4 ar
    12   14   13 1
    13   15    1 ar
    14   16   15 1
    15   17    6 ar
    16   18   17 1
    17   19   20 1
    18   20   34 3
    19   21   19 1
    20   22   23 1
    21   24   22 1
    22   25   22 1
    23   26   25 1
    24   27   25 1
    25   28   25 1
    26   29   10 2
    27   30   10 1
    28   31   21 1
    29   32   21 2
    30   33   19 2
    31    8   15 ar
    32    8   17 ar
    33   11   13 ar
    34   22   31 1
    35   30   33 1
@<TRIPOS>SUBSTRUCTURE
     1 RES1 1

@<TRIPOS>CRYSIN
   5.9579    8.2268   29.9910  90.0000  90.0000  90.0000  19 1

