# MOL2 file generated by ConQuest
# Please check atom types

@<TRIPOS>MOLECULE
EGOVAZ
    39    42     1
SMALL
NO_CHARGES
****
Generated from CSD

@<TRIPOS>ATOM
      1 O1         0.5695    7.8188    8.8898 O.3       1 RES1    0.0000
      2 O2        -0.6191   10.5251    8.8034 O.2       1 RES1    0.0000
      3 O3         2.7295   10.4389    5.7070 O.2       1 RES1    0.0000
      4 N1         0.1640    7.4528    7.5235 N.3       1 RES1    0.0000
      5 N2         0.9582   10.7653    7.1419 N.am      1 RES1    0.0000
      6 C1        -0.5379    6.2254    7.5998 C.ar      1 RES1    0.0000
      7 C2        -0.5600    5.3285    6.5201 C.ar      1 RES1    0.0000
      8 H1         0.0053    5.4722    5.7697 H         1 RES1    0.0000
      9 C3        -1.4001    4.2397    6.5489 C.ar      1 RES1    0.0000
     10 H2        -1.4217    3.6482    5.8069 H         1 RES1    0.0000
     11 C4        -2.2180    3.9911    7.6439 C.ar      1 RES1    0.0000
     12 H3        -2.8081    3.2468    7.6471 H         1 RES1    0.0000
     13 C5        -2.1595    4.8477    8.7340 C.ar      1 RES1    0.0000
     14 H4        -2.6900    4.6665    9.5002 H         1 RES1    0.0000
     15 C6        -1.3416    5.9590    8.7199 C.ar      1 RES1    0.0000
     16 H5        -1.3220    6.5430    9.4686 H         1 RES1    0.0000
     17 C7         1.4270    7.5319    6.7378 C.3       1 RES1    0.0000
     18 H6         1.9670    6.7033    6.8898 H         1 RES1    0.0000
     19 C8         1.1528    7.6929    5.2536 C.ar      1 RES1    0.0000
     20 C9         2.0413    7.1151    4.3387 C.ar      1 RES1    0.0000
     21 H7         2.7696    6.5924    4.6534 H         1 RES1    0.0000
     22 C10        1.8647    7.3038    2.9734 C.ar      1 RES1    0.0000
     23 H8         2.4748    6.9129    2.3592 H         1 RES1    0.0000
     24 C11        0.8058    8.0556    2.5083 C.ar      1 RES1    0.0000
     25 H9         0.6892    8.1844    1.5741 H         1 RES1    0.0000
     26 C12       -0.0949    8.6277    3.4097 C.ar      1 RES1    0.0000
     27 H10       -0.8269    9.1414    3.0886 H         1 RES1    0.0000
     28 C13        0.0807    8.4435    4.7771 C.ar      1 RES1    0.0000
     29 H11       -0.5337    8.8313    5.3883 H         1 RES1    0.0000
     30 C14        2.1515    8.7559    7.3964 C.3       1 RES1    0.0000
     31 H12        3.1018    8.5468    7.6285 H         1 RES1    0.0000
     32 C15        1.3015    8.9952    8.6442 C.3       1 RES1    0.0000
     33 H13        1.8747    9.2312    9.4295 H         1 RES1    0.0000
     34 C16        0.3997   10.1567    8.2594 C.2       1 RES1    0.0000
     35 C17        2.0318   10.0519    6.6269 C.2       1 RES1    0.0000
     36 C18        0.4709   12.0227    6.5862 C.3       1 RES1    0.0000
     37 H14        0.6075   12.7416    7.2377 H         1 RES1    0.0000
     38 H15       -0.4846   11.9419    6.3837 H         1 RES1    0.0000
     39 H16        0.9629   12.2279    5.7641 H         1 RES1    0.0000
@<TRIPOS>BOND
     1    1    4 1
     2    2   34 2
     3    3   35 2
     4    4    6 1
     5    5   34 1
     6    6    7 ar
     7    7    8 1
     8    9    7 ar
     9   10    9 1
    10   11    9 ar
    11   12   11 1
    12   13   11 ar
    13   14   13 1
    14   15    6 ar
    15   16   15 1
    16   17    4 1
    17   18   17 1
    18   19   17 1
    19   20   19 ar
    20   21   20 1
    21   22   20 ar
    22   23   22 1
    23   24   22 ar
    24   25   24 1
    25   26   24 ar
    26   27   26 1
    27   28   19 ar
    28   29   28 1
    29   30   17 1
    30   31   30 1
    31   32    1 1
    32   33   32 1
    33   34   32 1
    34   35    5 1
    35   36    5 1
    36   37   36 1
    37   38   36 1
    38   39   36 1
    39   13   15 ar
    40   26   28 ar
    41   30   32 1
    42   30   35 1
@<TRIPOS>SUBSTRUCTURE
     1 RES1 1

@<TRIPOS>CRYSIN
   5.2734   14.9760   18.6060  90.0000  90.0000  90.0000  19 1

