# MOL2 file generated by ConQuest
# Please check atom types

@<TRIPOS>MOLECULE
EGUXEL
    43    44     1
SMALL
NO_CHARGES
****
Generated from CSD

@<TRIPOS>ATOM
      1 H1        -0.1920   -1.4391   13.8157 H         1 RES1    0.0000
      2 H2         4.0077   -1.5625   15.6200 H         1 RES1    0.0000
      3 H3         2.2335   -2.6891   16.6640 H         1 RES1    0.0000
      4 C1         4.9094   -1.0978   12.5476 C.3       1 RES1    0.0000
      5 H4         4.3301   -1.5493   11.8993 H         1 RES1    0.0000
      6 H5         5.3156   -1.7639   13.1417 H         1 RES1    0.0000
      7 H6         5.6147   -0.6110   12.0733 H         1 RES1    0.0000
      8 C2         4.0818   -0.1168   13.3747 C.3       1 RES1    0.0000
      9 C3         4.0584    2.3363   12.9898 C.3       1 RES1    0.0000
     10 C4         4.9743    0.6398   14.3700 C.2       1 RES1    0.0000
     11 C5         2.8685    3.2244   13.3930 C.3       1 RES1    0.0000
     12 H7         3.2515    4.0821   13.7358 H         1 RES1    0.0000
     13 C6         2.0581    2.6274   14.5207 C.3       1 RES1    0.0000
     14 H8         1.6304    1.8001   14.2140 H         1 RES1    0.0000
     15 H9         1.3698    3.2656   14.8030 H         1 RES1    0.0000
     16 H10        2.6486    2.4284   15.2772 H         1 RES1    0.0000
     17 C7         4.9214    2.9555   11.9006 C.3       1 RES1    0.0000
     18 H11        5.7242    2.4103   11.7704 H         1 RES1    0.0000
     19 H12        5.1799    3.8626   12.1661 H         1 RES1    0.0000
     20 H13        4.4132    2.9925   11.0629 H         1 RES1    0.0000
     21 C8         1.9761    3.5838   12.2086 C.3       1 RES1    0.0000
     22 H14        2.5112    4.0303   11.5204 H         1 RES1    0.0000
     23 H15        1.2622    4.1841   12.5089 H         1 RES1    0.0000
     24 H16        1.5819    2.7672   11.8375 H         1 RES1    0.0000
     25 C9         2.9236   -0.8314   14.0699 C.ar      1 RES1    0.0000
     26 C10        1.6466   -0.8273   13.5367 C.ar      1 RES1    0.0000
     27 H17        1.4750   -0.3758   12.7190 H         1 RES1    0.0000
     28 C11        0.6211   -1.4794   14.1934 C.ar      1 RES1    0.0000
     29 C12        0.8184   -2.1529   15.3713 C.ar      1 RES1    0.0000
     30 C13        5.5415    2.9391   14.9653 C.3       1 RES1    0.0000
     31 H18        6.0338    3.5600   14.3893 H         1 RES1    0.0000
     32 H19        6.1680    2.4851   15.5659 H         1 RES1    0.0000
     33 H20        4.8834    3.4366   15.4937 H         1 RES1    0.0000
     34 C14        3.1348   -1.5353   15.2380 C.ar      1 RES1    0.0000
     35 C15       -0.3019   -2.8437   16.1085 C.3       1 RES1    0.0000
     36 H21       -0.7356   -2.2072   16.7142 H         1 RES1    0.0000
     37 H22        0.0596   -3.5928   16.6253 H         1 RES1    0.0000
     38 H23       -0.9586   -3.1800   15.4628 H         1 RES1    0.0000
     39 C16        2.1015   -2.1800   15.8714 C.ar      1 RES1    0.0000
     40 N1         4.8563    1.9514   14.1410 N.am      1 RES1    0.0000
     41 N2         3.6123    0.9893   12.5447 N.3       1 RES1    0.0000
     42 O1         3.1588    0.8043   11.3714 O.2       1 RES1    0.0000
     43 O2         5.6684    0.1168   15.2160 O.2       1 RES1    0.0000
@<TRIPOS>BOND
     1    1   28 1
     2    2   34 1
     3    3   39 1
     4    4    5 1
     5    6    4 1
     6    7    4 1
     7    8    4 1
     8    9   11 1
     9   10    8 1
    10   11   12 1
    11   13   11 1
    12   14   13 1
    13   15   13 1
    14   16   13 1
    15   17    9 1
    16   18   17 1
    17   19   17 1
    18   20   17 1
    19   21   11 1
    20   22   21 1
    21   23   21 1
    22   24   21 1
    23   25    8 1
    24   26   25 ar
    25   27   26 1
    26   28   26 ar
    27   29   28 ar
    28   30   31 1
    29   32   30 1
    30   33   30 1
    31   34   25 ar
    32   35   29 1
    33   36   35 1
    34   37   35 1
    35   38   35 1
    36   39   29 ar
    37   40    9 1
    38   41    8 1
    39   42   41 1
    40   43   10 2
    41    9   41 1
    42   10   40 1
    43   30   40 1
    44   34   39 ar
@<TRIPOS>SUBSTRUCTURE
     1 RES1 1

@<TRIPOS>CRYSIN
  14.6010    8.2235   12.9000  90.0000  92.4900  90.0000  14 1

