# MOL2 file generated by ConQuest
# Please check atom types

@<TRIPOS>MOLECULE
EHAJON
    24    24     1
SMALL
NO_CHARGES
****
Generated from CSD

@<TRIPOS>ATOM
      1 N1         5.4016    0.5035    5.2838 N.pl3     1 RES1    0.0000
      2 O1         5.4999    0.5972    6.4996 O.2       1 RES1    0.0000
      3 O2         5.1276   -0.5297    4.7104 O.2       1 RES1    0.0000
      4 C1         5.6472    1.7377    4.4538 C.3       1 RES1    0.0000
      5 H1         5.6457    1.4640    3.4923 H         1 RES1    0.0000
      6 C2         4.5102    2.7577    4.6542 C.3       1 RES1    0.0000
      7 C3         4.8217    3.9560    3.7250 C.3       1 RES1    0.0000
      8 H2         4.7713    3.6557    2.7833 H         1 RES1    0.0000
      9 H3         4.1324    4.6550    3.8576 H         1 RES1    0.0000
     10 C4         6.1903    4.5566    3.9801 C.3       1 RES1    0.0000
     11 H4         6.2141    4.9450    4.8911 H         1 RES1    0.0000
     12 H5         6.3543    5.2867    3.3318 H         1 RES1    0.0000
     13 C5         7.2834    3.5107    3.8488 C.3       1 RES1    0.0000
     14 H6         8.1562    3.9168    4.0779 H         1 RES1    0.0000
     15 H7         7.3287    3.1978    2.9102 H         1 RES1    0.0000
     16 C6         7.0211    2.3182    4.7695 C.3       1 RES1    0.0000
     17 H8         7.7176    1.6282    4.6324 H         1 RES1    0.0000
     18 H9         7.0542    2.6093    5.7151 H         1 RES1    0.0000
     19 C7         4.4841    3.2521    6.0460 C.1       1 RES1    0.0000
     20 N2         4.4321    3.6843    7.1005 N.1       1 RES1    0.0000
     21 C8         3.1383    2.1712    4.3068 C.3       1 RES1    0.0000
     22 H10        2.9471    1.4141    4.8983 H         1 RES1    0.0000
     23 H11        3.1396    1.8662    3.3761 H         1 RES1    0.0000
     24 H12        2.4503    2.8589    4.4241 H         1 RES1    0.0000
@<TRIPOS>BOND
     1    1    2 2
     2    3    1 2
     3    4    1 1
     4    5    4 1
     5    6    4 1
     6    7    6 1
     7    8    7 1
     8    9    7 1
     9   10    7 1
    10   11   10 1
    11   12   10 1
    12   13   10 1
    13   14   13 1
    14   15   13 1
    15   16    4 1
    16   17   16 1
    17   18   16 1
    18   19    6 1
    19   20   19 3
    20   21    6 1
    21   22   21 1
    22   23   21 1
    23   24   21 1
    24   13   16 1
@<TRIPOS>SUBSTRUCTURE
     1 RES1 1

@<TRIPOS>CRYSIN
   7.8362    9.6000   12.0540  90.0000  96.5080  90.0000  14 1

