# MOL2 file generated by ConQuest
# Please check atom types

@<TRIPOS>MOLECULE
EHALUV
    35    36     1
SMALL
NO_CHARGES
****
Generated from CSD

@<TRIPOS>ATOM
      1 O1         8.0290    9.4910    2.3831 O.2       1 RES1    0.0000
      2 N1         6.5406    6.4086    1.7419 N.ar      1 RES1    0.0000
      3 N2         7.1166    8.5811    2.4432 N.3       1 RES1    0.0000
      4 C1         7.5027    7.2718    2.0905 C.ar      1 RES1    0.0000
      5 C2         8.8651    6.9465    2.1134 C.ar      1 RES1    0.0000
      6 C3         9.2341    5.6803    1.7283 C.ar      1 RES1    0.0000
      7 C4         8.2672    4.7526    1.3208 C.ar      1 RES1    0.0000
      8 C5         6.9443    5.1866    1.3653 C.ar      1 RES1    0.0000
      9 C6         8.6207    3.4044    0.8320 C.ar      1 RES1    0.0000
     10 C7         9.7380    3.2284    0.0101 C.ar      1 RES1    0.0000
     11 C8        10.0684    1.9769   -0.4835 C.ar      1 RES1    0.0000
     12 C9         9.2880    0.8768   -0.1719 C.ar      1 RES1    0.0000
     13 C10        8.1886    1.0283    0.6559 C.ar      1 RES1    0.0000
     14 C11        7.8585    2.2795    1.1568 C.ar      1 RES1    0.0000
     15 C12        5.7417    8.9762    2.9336 C.3       1 RES1    0.0000
     16 C13        5.3077    8.0078    4.0247 C.3       1 RES1    0.0000
     17 C14        4.7706    8.9688    1.7507 C.3       1 RES1    0.0000
     18 C15        5.8450   10.3866    3.5014 C.3       1 RES1    0.0000
     19 H1         9.4750    7.6244    2.3890 H         1 RES1    0.0000
     20 H2        10.1749    5.4088    1.7626 H         1 RES1    0.0000
     21 H3         6.2264    4.5537    1.0868 H         1 RES1    0.0000
     22 H4        10.2592    4.0098   -0.2375 H         1 RES1    0.0000
     23 H5        10.8258    1.8964   -1.0237 H         1 RES1    0.0000
     24 H6         9.5053   -0.0204   -0.5276 H         1 RES1    0.0000
     25 H7         7.6677    0.2419    0.9102 H         1 RES1    0.0000
     26 H8         7.1233    2.4075    1.7437 H         1 RES1    0.0000
     27 H9         5.9821    8.0048    4.7423 H         1 RES1    0.0000
     28 H10        4.4672    8.3500    4.4364 H         1 RES1    0.0000
     29 H11        5.1862    7.0713    3.6902 H         1 RES1    0.0000
     30 H12        4.6667    8.0616    1.3485 H         1 RES1    0.0000
     31 H13        5.0875    9.6128    1.0248 H         1 RES1    0.0000
     32 H14        3.8703    9.3255    2.0621 H         1 RES1    0.0000
     33 H15        4.9558   10.6121    3.8520 H         1 RES1    0.0000
     34 H16        6.4953   10.3929    4.2619 H         1 RES1    0.0000
     35 H17        6.1611   11.0561    2.8178 H         1 RES1    0.0000
@<TRIPOS>BOND
     1    1    3 1
     2    2    4 ar
     3    3    4 1
     4    4    5 ar
     5    5    6 ar
     6    6    7 ar
     7    7    8 ar
     8    8    2 ar
     9    9    7 1
    10   10    9 ar
    11   11   10 ar
    12   12   11 ar
    13   13   12 ar
    14   14    9 ar
    15   15    3 1
    16   16   15 1
    17   17   15 1
    18   18   15 1
    19   19    5 1
    20   20    6 1
    21   21    8 1
    22   22   10 1
    23   23   11 1
    24   24   12 1
    25   25   13 1
    26   26   14 1
    27   27   16 1
    28   28   16 1
    29   29   16 1
    30   30   17 1
    31   31   17 1
    32   32   17 1
    33   33   18 1
    34   34   18 1
    35   35   18 1
    36   13   14 ar
@<TRIPOS>SUBSTRUCTURE
     1 RES1 1

@<TRIPOS>CRYSIN
  10.8007   11.3559   11.2283  90.0000 110.6004  90.0000  14 1

