# MOL2 file generated by ConQuest
# Please check atom types

@<TRIPOS>MOLECULE
EHAQOV
    53    57     1
SMALL
NO_CHARGES
****
Generated from CSD

@<TRIPOS>ATOM
      1 C1         4.4606    3.9834    4.6037 C.3       1 RES1    0.0000
      2 O1         5.1913    4.0823    3.3458 O.3       1 RES1    0.0000
      3 N1         6.5070    3.5475    3.6147 N.3       1 RES1    0.0000
      4 C2         7.2508    4.6599    4.1953 C.3       1 RES1    0.0000
      5 C3         6.5925    5.0961    5.4764 C.2       1 RES1    0.0000
      6 C4         7.2580    5.7518    6.4285 C.2       1 RES1    0.0000
      7 C5         6.5204    6.3252    7.5956 C.3       1 RES1    0.0000
      8 C6         5.5161    5.3157    8.1698 C.3       1 RES1    0.0000
      9 C7         6.2637    4.2895    8.9858 C.2       1 RES1    0.0000
     10 N2         6.0134    3.0368    8.4716 N.am      1 RES1    0.0000
     11 C8         5.1097    3.0577    7.4262 C.2       1 RES1    0.0000
     12 C9         4.7552    4.5016    7.1010 C.3       1 RES1    0.0000
     13 C10        5.0963    4.9224    5.6418 C.3       1 RES1    0.0000
     14 N3         3.0713    4.2507    4.3673 N.3       1 RES1    0.0000
     15 C11        2.4348    3.1574    3.6183 C.3       1 RES1    0.0000
     16 C12        0.9448    3.3858    3.5206 C.3       1 RES1    0.0000
     17 O2         0.6496    4.6387    2.8987 O.3       1 RES1    0.0000
     18 C13        1.2487    5.6940    3.6498 C.3       1 RES1    0.0000
     19 C14        2.7534    5.5354    3.7237 C.3       1 RES1    0.0000
     20 C15        7.0223    2.9434    2.4407 C.ar      1 RES1    0.0000
     21 C16        8.3977    2.7819    2.2846 C.ar      1 RES1    0.0000
     22 C17        8.9083    2.1133    1.1838 C.ar      1 RES1    0.0000
     23 C18        8.0805    1.5973    0.2216 C.ar      1 RES1    0.0000
     24 C19        6.7173    1.7323    0.3807 C.ar      1 RES1    0.0000
     25 C20        6.1839    2.3999    1.4759 C.ar      1 RES1    0.0000
     26 O3         6.9884    4.4957    9.9409 O.2       1 RES1    0.0000
     27 C21        6.5639    1.8123    9.0329 C.3       1 RES1    0.0000
     28 O4         4.6648    2.0459    6.9211 O.2       1 RES1    0.0000
     29 H1         4.5436    3.0460    4.8998 H         1 RES1    0.0000
     30 H2         8.1675    4.3627    4.3973 H         1 RES1    0.0000
     31 H3         7.2817    5.3964    3.5504 H         1 RES1    0.0000
     32 H4         8.2204    5.8938    6.3430 H         1 RES1    0.0000
     33 H5         7.1406    6.6043    8.2953 H         1 RES1    0.0000
     34 H6         6.0096    7.1211    7.3101 H         1 RES1    0.0000
     35 H7         4.8880    5.7849    8.7698 H         1 RES1    0.0000
     36 H8         3.7735    4.5874    7.2162 H         1 RES1    0.0000
     37 H9         4.6945    5.8113    5.5028 H         1 RES1    0.0000
     38 H10        2.5821    2.3080    4.1056 H         1 RES1    0.0000
     39 H11        2.8359    3.0701    2.7184 H         1 RES1    0.0000
     40 H12        0.5598    3.3554    4.4467 H         1 RES1    0.0000
     41 H13        0.5031    2.6919    2.9524 H         1 RES1    0.0000
     42 H14        1.0527    6.5470    3.1731 H         1 RES1    0.0000
     43 H15        0.8466    5.7070    4.5637 H         1 RES1    0.0000
     44 H16        3.1355    6.2788    4.2523 H         1 RES1    0.0000
     45 H17        3.1219    5.5740    2.8156 H         1 RES1    0.0000
     46 H18        9.0047    3.1411    2.9441 H         1 RES1    0.0000
     47 H19        9.8545    2.0215    1.0973 H         1 RES1    0.0000
     48 H20        8.4387    1.1483   -0.5585 H         1 RES1    0.0000
     49 H21        6.1262    1.3580   -0.2751 H         1 RES1    0.0000
     50 H22        5.2457    2.5040    1.5750 H         1 RES1    0.0000
     51 H23        6.5879    1.1380    8.3200 H         1 RES1    0.0000
     52 H24        5.9787    1.4806    9.7682 H         1 RES1    0.0000
     53 H25        7.4644    2.0032    9.3761 H         1 RES1    0.0000
@<TRIPOS>BOND
     1    1    2 1
     2    2    3 1
     3    3    4 1
     4    4    5 1
     5    5    6 2
     6    6    7 1
     7    7    8 1
     8    8    9 1
     9    9   10 1
    10   10   11 1
    11   11   12 1
    12   12    8 1
    13   13    1 1
    14   14    1 1
    15   15   14 1
    16   16   15 1
    17   17   16 1
    18   18   17 1
    19   19   14 1
    20   20    3 1
    21   21   20 ar
    22   22   21 ar
    23   23   22 ar
    24   24   23 ar
    25   25   20 ar
    26   26    9 2
    27   27   10 1
    28   28   11 2
    29   29    1 1
    30   30    4 1
    31   31    4 1
    32   32    6 1
    33   33    7 1
    34   34    7 1
    35   35    8 1
    36   36   12 1
    37   37   13 1
    38   38   15 1
    39   39   15 1
    40   40   16 1
    41   41   16 1
    42   42   18 1
    43   43   18 1
    44   44   19 1
    45   45   19 1
    46   46   21 1
    47   47   22 1
    48   48   23 1
    49   49   24 1
    50   50   25 1
    51   51   27 1
    52   52   27 1
    53   53   27 1
    54    5   13 1
    55   12   13 1
    56   18   19 1
    57   24   25 ar
@<TRIPOS>SUBSTRUCTURE
     1 RES1 1

@<TRIPOS>CRYSIN
  20.0999   11.4598   16.6843  90.0000  99.0782  90.0000  15 1

