# MOL2 file generated by ConQuest
# Please check atom types

@<TRIPOS>MOLECULE
EHAXOC
    43    45     1
SMALL
NO_CHARGES
****
Generated from CSD

@<TRIPOS>ATOM
      1 O1         7.8513   -0.3650   -0.0181 O.3       1 RES1    0.0000
      2 O2         4.8996    3.5740   -0.2626 O.3       1 RES1    0.0000
      3 H1         4.3001    4.1317   -0.3070 H         1 RES1    0.0000
      4 O3         6.1238    4.0436    1.6768 O.3       1 RES1    0.0000
      5 O4         7.5581    5.6647    0.1446 O.2       1 RES1    0.0000
      6 O5         8.7213    3.8915   -0.6432 O.3       1 RES1    0.0000
      7 N1         7.3304    3.5823    1.0746 N.am      1 RES1    0.0000
      8 C1         8.4918    0.0138    1.1225 C.ar      1 RES1    0.0000
      9 C2         9.4004   -0.7779    1.8276 C.ar      1 RES1    0.0000
     10 H2         9.6245   -1.6224    1.5107 H         1 RES1    0.0000
     11 C3         9.9656   -0.3071    2.9950 C.ar      1 RES1    0.0000
     12 H3        10.5713   -0.8385    3.4592 H         1 RES1    0.0000
     13 C4         9.6424    0.9440    3.4828 C.ar      1 RES1    0.0000
     14 H4        10.0104    1.2484    4.2808 H         1 RES1    0.0000
     15 C5         8.7561    1.7468    2.7618 C.ar      1 RES1    0.0000
     16 H5         8.5463    2.5944    3.0815 H         1 RES1    0.0000
     17 C6         8.1847    1.3068    1.5843 C.ar      1 RES1    0.0000
     18 C7         7.2102    2.1343    0.7853 C.3       1 RES1    0.0000
     19 H6         7.3638    1.9818   -0.1700 H         1 RES1    0.0000
     20 C8         5.7275    1.8507    1.1147 C.3       1 RES1    0.0000
     21 H7         5.3286    1.2589    0.4574 H         1 RES1    0.0000
     22 H8         5.6338    1.4554    1.9952 H         1 RES1    0.0000
     23 C9         5.1049    3.2185    1.0633 C.3       1 RES1    0.0000
     24 H9         4.2679    3.2480    1.5739 H         1 RES1    0.0000
     25 C10        7.8179    4.4815    0.1661 C.2       1 RES1    0.0000
     26 C11        9.2424    4.7589   -1.6849 C.3       1 RES1    0.0000
     27 H10        9.9886    4.3167   -2.1201 H         1 RES1    0.0000
     28 H11        9.5765    5.5745   -1.2790 H         1 RES1    0.0000
     29 C12        8.2117    5.1154   -2.7230 C.ar      1 RES1    0.0000
     30 C13        6.9881    4.4776   -2.8235 C.ar      1 RES1    0.0000
     31 H12        6.7887    3.7724   -2.2510 H         1 RES1    0.0000
     32 C14        6.0603    4.8757   -3.7650 C.ar      1 RES1    0.0000
     33 H13        5.2355    4.4491   -3.8113 H         1 RES1    0.0000
     34 C15        6.3484    5.9013   -4.6339 C.ar      1 RES1    0.0000
     35 H14        5.7192    6.1703   -5.2633 H         1 RES1    0.0000
     36 C16        7.5743    6.5304   -4.5680 C.ar      1 RES1    0.0000
     37 H15        7.7786    7.2127   -5.1655 H         1 RES1    0.0000
     38 C17        8.5006    6.1464   -3.6134 C.ar      1 RES1    0.0000
     39 H16        9.3220    6.5801   -3.5660 H         1 RES1    0.0000
     40 C18        8.1419   -1.6645   -0.5349 C.3       1 RES1    0.0000
     41 H17        7.6549   -1.8011   -1.3512 H         1 RES1    0.0000
     42 H18        7.8840   -2.3296    0.1068 H         1 RES1    0.0000
     43 H19        9.0837   -1.7359   -0.7087 H         1 RES1    0.0000
@<TRIPOS>BOND
     1    1    8 1
     2    2    3 1
     3    4    7 1
     4    5   25 2
     5    6   25 1
     6    7   18 1
     7    8    9 ar
     8    9   10 1
     9   11    9 ar
    10   12   11 1
    11   13   11 ar
    12   14   13 1
    13   15   13 ar
    14   16   15 1
    15   17    8 ar
    16   18   17 1
    17   19   18 1
    18   20   18 1
    19   21   20 1
    20   22   20 1
    21   23    2 1
    22   24   23 1
    23   25    7 1
    24   26    6 1
    25   27   26 1
    26   28   26 1
    27   29   26 1
    28   30   29 ar
    29   31   30 1
    30   32   30 ar
    31   33   32 1
    32   34   32 ar
    33   35   34 1
    34   36   34 ar
    35   37   36 1
    36   38   29 ar
    37   39   38 1
    38   40    1 1
    39   41   40 1
    40   42   40 1
    41   43   40 1
    42    4   23 1
    43   15   17 ar
    44   20   23 1
    45   36   38 ar
@<TRIPOS>SUBSTRUCTURE
     1 RES1 1

@<TRIPOS>CRYSIN
  10.0113   10.5080   15.8303  90.0000 108.1040  90.0000  14 1

