# MOL2 file generated by ConQuest
# Please check atom types

@<TRIPOS>MOLECULE
EHECAV
    38    39     1
SMALL
NO_CHARGES
****
Generated from CSD

@<TRIPOS>ATOM
      1 C1         4.8284    3.1480    4.3396 C.3       1 RES1    0.0000
      2 O1         3.0247    4.7570    7.8279 O.3       1 RES1    0.0000
      3 N1         7.1195    4.3321    4.7481 N.1       1 RES1    0.0000
      4 O2         4.9213    2.2796    3.1696 O.3       1 RES1    0.0000
      5 C2         3.7097    4.1764    4.2065 C.3       1 RES1    0.0000
      6 N2         5.2531   -0.8913   -2.3307 N.pl3     1 RES1    0.0000
      7 O3         5.1114   -0.4464   -3.4388 O.2       1 RES1    0.0000
      8 O4         5.3131   -2.0661   -2.1110 O.2       1 RES1    0.0000
      9 C3         3.4926    4.9241    5.5189 C.3       1 RES1    0.0000
     10 O5         5.4896    3.9857    1.8200 O.2       1 RES1    0.0000
     11 C4         3.1863    3.9736    6.6486 C.3       1 RES1    0.0000
     12 C5         4.2888    2.9466    6.7941 C.3       1 RES1    0.0000
     13 C6         4.5397    2.1968    5.4972 C.3       1 RES1    0.0000
     14 C7         2.2421    4.1314    8.8153 C.3       1 RES1    0.0000
     15 C8         6.1412    3.8108    4.5439 C.1       1 RES1    0.0000
     16 C9         5.2445    2.8238    1.9810 C.2       1 RES1    0.0000
     17 C10        5.2501    1.8061    0.8914 C.ar      1 RES1    0.0000
     18 C11        5.1360    0.4449    1.1267 C.ar      1 RES1    0.0000
     19 C12        5.1479   -0.4449    0.0774 C.ar      1 RES1    0.0000
     20 C13        5.2675    0.0557   -1.1979 C.ar      1 RES1    0.0000
     21 C14        5.3919    1.3919   -1.4733 C.ar      1 RES1    0.0000
     22 C15        5.3903    2.2703   -0.4148 C.ar      1 RES1    0.0000
     23 H1         3.9347    4.8106    3.5100 H         1 RES1    0.0000
     24 H2         2.8882    3.7286    3.9527 H         1 RES1    0.0000
     25 H3         4.2899    5.4333    5.7324 H         1 RES1    0.0000
     26 H4         2.7572    5.5483    5.4136 H         1 RES1    0.0000
     27 H5         2.3444    3.5108    6.4536 H         1 RES1    0.0000
     28 H6         4.0445    2.3132    7.4875 H         1 RES1    0.0000
     29 H7         5.1052    3.3908    7.0696 H         1 RES1    0.0000
     30 H8         3.7618    1.6590    5.2836 H         1 RES1    0.0000
     31 H9         5.2935    1.5983    5.6148 H         1 RES1    0.0000
     32 H10        2.1719    4.7070    9.5799 H         1 RES1    0.0000
     33 H11        2.6548    3.3044    9.0753 H         1 RES1    0.0000
     34 H12        1.3661    3.9557    8.4656 H         1 RES1    0.0000
     35 H13        5.0509    0.1314    1.9995 H         1 RES1    0.0000
     36 H14        5.0769   -1.3605    0.2260 H         1 RES1    0.0000
     37 H15        5.4750    1.6961   -2.3462 H         1 RES1    0.0000
     38 H16        5.4836    3.1823   -0.5726 H         1 RES1    0.0000
@<TRIPOS>BOND
     1    1    4 1
     2    2   11 1
     3    3   15 3
     4    4   16 1
     5    5    1 1
     6    6    7 2
     7    8    6 2
     8    9    5 1
     9   10   16 2
    10   11    9 1
    11   12   11 1
    12   13    1 1
    13   14    2 1
    14   15    1 1
    15   16   17 1
    16   17   18 ar
    17   18   19 ar
    18   19   20 ar
    19   20    6 1
    20   21   20 ar
    21   22   17 ar
    22   23    5 1
    23   24    5 1
    24   25    9 1
    25   26    9 1
    26   27   11 1
    27   28   12 1
    28   29   12 1
    29   30   13 1
    30   31   13 1
    31   32   14 1
    32   33   14 1
    33   34   14 1
    34   35   18 1
    35   36   19 1
    36   37   21 1
    37   38   22 1
    38   12   13 1
    39   21   22 ar
@<TRIPOS>SUBSTRUCTURE
     1 RES1 1

@<TRIPOS>CRYSIN
   6.9275    7.1416   30.9570  90.0000  90.9520  90.0000 231 1

