# MOL2 file generated by ConQuest
# Please check atom types

@<TRIPOS>MOLECULE
EHEMIP
    60    64     1
SMALL
NO_CHARGES
****
Generated from CSD

@<TRIPOS>ATOM
      1 N1        18.5943    5.3285    2.7715 N.3       1 RES1    0.0000
      2 C1        17.5387    4.3563    2.4055 C.3       1 RES1    0.0000
      3 C2        18.3444    3.0704    2.2302 C.3       1 RES1    0.0000
      4 C3        17.7247    1.6795    2.1906 C.3       1 RES1    0.0000
      5 C4        18.8761    0.6822    1.9339 C.3       1 RES1    0.0000
      6 C5        20.1678    1.0225    2.6477 C.2       1 RES1    0.0000
      7 C6        20.3773    2.1530    3.3207 C.2       1 RES1    0.0000
      8 C7        19.2692    3.1433    3.4338 C.3       1 RES1    0.0000
      9 C8        19.6907    4.6043    3.4525 C.3       1 RES1    0.0000
     10 C9        21.0096    4.6603    2.7077 C.3       1 RES1    0.0000
     11 C10       22.1532    3.9683    3.4809 C.3       1 RES1    0.0000
     12 C11       21.6520    2.5760    3.9777 C.3       1 RES1    0.0000
     13 C12       23.3900    3.9193    2.6177 C.ar      1 RES1    0.0000
     14 C13       24.3608    4.9138    2.7098 C.ar      1 RES1    0.0000
     15 C14       25.4397    4.9404    1.8487 C.ar      1 RES1    0.0000
     16 C15       25.5621    3.9795    0.8590 C.ar      1 RES1    0.0000
     17 C16       24.6193    2.9738    0.7582 C.ar      1 RES1    0.0000
     18 C17       23.5485    2.9444    1.6322 C.ar      1 RES1    0.0000
     19 C18       16.6443    1.5268    1.1585 C.2       1 RES1    0.0000
     20 O1        16.8014    1.2032    0.0418 O.2       1 RES1    0.0000
     21 O2        15.4586    1.7439    1.6526 O.3       1 RES1    0.0000
     22 C19       14.3254    1.5688    0.7523 C.3       1 RES1    0.0000
     23 C20       18.0951    6.4967    3.4895 C.3       1 RES1    0.0000
     24 C21       17.3509    7.4758    2.6096 C.ar      1 RES1    0.0000
     25 C22       17.9378    7.9703    1.4688 C.ar      1 RES1    0.0000
     26 C23       17.3071    8.9396    0.7089 C.ar      1 RES1    0.0000
     27 C24       16.0798    9.4144    1.0814 C.ar      1 RES1    0.0000
     28 C25       15.4729    8.9116    2.2142 C.ar      1 RES1    0.0000
     29 C26       16.0936    7.9395    2.9778 C.ar      1 RES1    0.0000
     30 N2        21.3762    6.0835    2.4039 N.pl3     1 RES1    0.0000
     31 O3        21.3944    6.4266    1.2228 O.2       1 RES1    0.0000
     32 O4        21.6043    6.8379    3.3336 O.2       1 RES1    0.0000
     33 H1        17.0605    4.6421    1.5958 H         1 RES1    0.0000
     34 H2        16.8843    4.2555    3.1310 H         1 RES1    0.0000
     35 H3        18.8964    3.1965    1.4211 H         1 RES1    0.0000
     36 H4        17.3530    1.4736    3.0507 H         1 RES1    0.0000
     37 H5        19.0755    0.6696    0.9763 H         1 RES1    0.0000
     38 H6        18.6008   -0.2101    2.2190 H         1 RES1    0.0000
     39 H7        20.8756    0.3880    2.5796 H         1 RES1    0.0000
     40 H8        18.7322    2.9584    4.2322 H         1 RES1    0.0000
     41 H9        19.8427    4.9432    4.3705 H         1 RES1    0.0000
     42 H10       20.9353    4.2121    1.8519 H         1 RES1    0.0000
     43 H11       22.3294    4.5412    4.2622 H         1 RES1    0.0000
     44 H12       22.3473    1.9022    3.8244 H         1 RES1    0.0000
     45 H13       21.4726    2.6278    4.9363 H         1 RES1    0.0000
     46 H14       24.2668    5.6184    3.3497 H         1 RES1    0.0000
     47 H15       26.0878    5.6212    1.9243 H         1 RES1    0.0000
     48 H16       26.2937    4.0033    0.2861 H         1 RES1    0.0000
     49 H17       24.7026    2.3140    0.1125 H         1 RES1    0.0000
     50 H18       22.9145    2.2622    1.5878 H         1 RES1    0.0000
     51 H19       13.5588    1.9596    1.1575 H         1 RES1    0.0000
     52 H20       14.4842    2.0059   -0.0890 H         1 RES1    0.0000
     53 H21       14.1559    0.6317    0.6071 H         1 RES1    0.0000
     54 H22       18.8695    6.9421    3.8737 H         1 RES1    0.0000
     55 H23       17.5023    6.1983    4.1936 H         1 RES1    0.0000
     56 H24       18.8009    7.6481    1.2030 H         1 RES1    0.0000
     57 H25       17.7411    9.2702   -0.0600 H         1 RES1    0.0000
     58 H26       15.6485   10.0826    0.5884 H         1 RES1    0.0000
     59 H27       14.6275    9.2309    2.4526 H         1 RES1    0.0000
     60 H28       15.6664    7.5977    3.7360 H         1 RES1    0.0000
@<TRIPOS>BOND
     1    1    2 1
     2    2    3 1
     3    3    4 1
     4    4    5 1
     5    5    6 1
     6    6    7 2
     7    7    8 1
     8    8    3 1
     9    9    1 1
    10   10    9 1
    11   11   10 1
    12   12    7 1
    13   13   11 1
    14   14   13 ar
    15   15   14 ar
    16   16   15 ar
    17   17   16 ar
    18   18   13 ar
    19   19    4 1
    20   20   19 2
    21   21   19 1
    22   22   21 1
    23   23    1 1
    24   24   23 1
    25   25   24 ar
    26   26   25 ar
    27   27   26 ar
    28   28   27 ar
    29   29   24 ar
    30   30   10 1
    31   31   30 2
    32   32   30 2
    33   33    2 1
    34   34    2 1
    35   35    3 1
    36   36    4 1
    37   37    5 1
    38   38    5 1
    39   39    6 1
    40   40    8 1
    41   41    9 1
    42   42   10 1
    43   43   11 1
    44   44   12 1
    45   45   12 1
    46   46   14 1
    47   47   15 1
    48   48   16 1
    49   49   17 1
    50   50   18 1
    51   51   22 1
    52   52   22 1
    53   53   22 1
    54   54   23 1
    55   55   23 1
    56   56   25 1
    57   57   26 1
    58   58   27 1
    59   59   28 1
    60   60   29 1
    61    8    9 1
    62   11   12 1
    63   17   18 ar
    64   28   29 ar
@<TRIPOS>SUBSTRUCTURE
     1 RES1 1

@<TRIPOS>CRYSIN
  29.8521   14.0075    5.3586  90.0000  90.0000  90.0000  33 1

