# MOL2 file generated by ConQuest
# Please check atom types

@<TRIPOS>MOLECULE
EHETUG
    32    34     1
SMALL
NO_CHARGES
****
Generated from CSD

@<TRIPOS>ATOM
      1 C1         3.7866    3.4985    1.9902 C.ar      1 RES1    0.0000
      2 C2         2.5645    3.9953    1.5299 C.ar      1 RES1    0.0000
      3 H1         2.3863    4.9291    1.5338 H         1 RES1    0.0000
      4 C3         1.6217    3.0978    1.0684 C.ar      1 RES1    0.0000
      5 H2         0.7791    3.4179    0.7676 H         1 RES1    0.0000
      6 C4         1.8833    1.7411    1.0372 C.ar      1 RES1    0.0000
      7 C5         3.1171    1.2613    1.5312 C.ar      1 RES1    0.0000
      8 H3         3.2953    0.3283    1.5273 H         1 RES1    0.0000
      9 C6         4.0722    2.1418    2.0226 C.ar      1 RES1    0.0000
     10 H4         4.8969    1.8247    2.3701 H         1 RES1    0.0000
     11 C7         0.8773    0.8000    0.4914 C.ar      1 RES1    0.0000
     12 N1         4.8076    4.4522    2.4414 N.pl3     1 RES1    0.0000
     13 N2        -0.2059    1.3426   -0.0921 N.ar      1 RES1    0.0000
     14 N3         1.1075   -0.5087    0.5925 N.ar      1 RES1    0.0000
     15 O1         4.6222    5.6448    2.2278 O.2       1 RES1    0.0000
     16 O2         5.7942    4.0042    3.0197 O.2       1 RES1    0.0000
     17 N3B       -1.1075    0.5087   -0.5925 N.ar      1 RES1    0.0000
     18 C7B       -0.8773   -0.8000   -0.4914 C.ar      1 RES1    0.0000
     19 C4B       -1.8833   -1.7411   -1.0372 C.ar      1 RES1    0.0000
     20 C3B       -1.6217   -3.0978   -1.0684 C.ar      1 RES1    0.0000
     21 C2B       -2.5645   -3.9953   -1.5299 C.ar      1 RES1    0.0000
     22 C1B       -3.7866   -3.4985   -1.9902 C.ar      1 RES1    0.0000
     23 C6B       -4.0722   -2.1418   -2.0226 C.ar      1 RES1    0.0000
     24 C5B       -3.1171   -1.2613   -1.5312 C.ar      1 RES1    0.0000
     25 H3B       -3.2953   -0.3283   -1.5273 H         1 RES1    0.0000
     26 H4B       -4.8969   -1.8247   -2.3701 H         1 RES1    0.0000
     27 N1B       -4.8076   -4.4522   -2.4414 N.pl3     1 RES1    0.0000
     28 O1B       -4.6222   -5.6448   -2.2278 O.2       1 RES1    0.0000
     29 O2B       -5.7942   -4.0042   -3.0197 O.2       1 RES1    0.0000
     30 H1B       -2.3863   -4.9291   -1.5338 H         1 RES1    0.0000
     31 H2B       -0.7791   -3.4179   -0.7676 H         1 RES1    0.0000
     32 N2B        0.2059   -1.3426    0.0921 N.ar      1 RES1    0.0000
@<TRIPOS>BOND
     1    1    2 ar
     2    2    3 1
     3    4    2 ar
     4    5    4 1
     5    6    4 ar
     6    7    6 ar
     7    8    7 1
     8    9    1 ar
     9   10    9 1
    10   11    6 1
    11   12    1 1
    12   13   11 ar
    13   14   11 ar
    14   15   12 2
    15   16   12 2
    16   17   13 ar
    17   18   17 ar
    18   19   18 1
    19   20   19 ar
    20   21   20 ar
    21   22   21 ar
    22   23   22 ar
    23   24   19 ar
    24   25   24 1
    25   26   23 1
    26   27   22 1
    27   28   27 2
    28   29   27 2
    29   30   21 1
    30   31   20 1
    31   32   14 ar
    32    7    9 ar
    33   18   32 ar
    34   23   24 ar
@<TRIPOS>SUBSTRUCTURE
     1 RES1 1

@<TRIPOS>CRYSIN
   6.8256    7.3933   13.1744  90.0000 100.2140  90.0000  14 1

