# MOL2 file generated by ConQuest
# Please check atom types

@<TRIPOS>MOLECULE
EHIKEM
    52    55     1
SMALL
NO_CHARGES
****
Generated from CSD

@<TRIPOS>ATOM
      1 C1         5.4086    2.7524    9.1714 C.3       1 RES1    0.0000
      2 H1         6.2044    3.2449    8.9146 H         1 RES1    0.0000
      3 H2         4.9988    3.1908    9.9321 H         1 RES1    0.0000
      4 C2         4.4374    2.6617    8.0157 C.3       1 RES1    0.0000
      5 H3         3.8368    3.4357    8.0010 H         1 RES1    0.0000
      6 C3         5.0795    2.4260    6.6063 C.3       1 RES1    0.0000
      7 C4         4.8988    0.9062    6.3700 C.3       1 RES1    0.0000
      8 H4         5.6108    0.4190    6.8337 H         1 RES1    0.0000
      9 C5         3.5706    0.6162    7.0421 C.3       1 RES1    0.0000
     10 H5         2.8538    1.0108    6.5022 H         1 RES1    0.0000
     11 C6         3.6642    1.3708    8.3500 C.3       1 RES1    0.0000
     12 H6         2.7726    1.5762    8.7014 H         1 RES1    0.0000
     13 C7         3.8271    0.5990   10.6809 C.3       1 RES1    0.0000
     14 H7         2.8769    0.4430   10.5690 H         1 RES1    0.0000
     15 H8         3.9395    1.4610   11.1109 H         1 RES1    0.0000
     16 C8         4.4111   -0.4802   11.5596 C.ar      1 RES1    0.0000
     17 C9         5.5452   -0.2605   12.3266 C.ar      1 RES1    0.0000
     18 H9         5.9565    0.5726   12.3156 H         1 RES1    0.0000
     19 C10        6.0716   -1.2785   13.1129 C.ar      1 RES1    0.0000
     20 H10        6.8314   -1.1224   13.6270 H         1 RES1    0.0000
     21 C11        5.4726   -2.5150   13.1339 C.ar      1 RES1    0.0000
     22 H11        5.8307   -3.1945   13.6559 H         1 RES1    0.0000
     23 C12        4.3406   -2.7479   12.3805 C.ar      1 RES1    0.0000
     24 H12        3.9325   -3.5834   12.3935 H         1 RES1    0.0000
     25 C13        3.8196   -1.7323   11.6058 C.ar      1 RES1    0.0000
     26 H13        3.0538   -1.8919   11.1022 H         1 RES1    0.0000
     27 C14        4.3466    3.2266    5.5194 C.3       1 RES1    0.0000
     28 H14        4.7859    3.0852    4.6663 H         1 RES1    0.0000
     29 H15        3.4351    2.9039    5.4445 H         1 RES1    0.0000
     30 C15        6.1249    0.3229    4.4089 C.3       1 RES1    0.0000
     31 H16        6.6717   -0.2665    4.9516 H         1 RES1    0.0000
     32 H17        6.5728    1.1813    4.3464 H         1 RES1    0.0000
     33 C16        5.9565   -0.2557    3.0502 C.ar      1 RES1    0.0000
     34 C17        4.8563    0.0768    2.2732 C.ar      1 RES1    0.0000
     35 H18        4.2100    0.6447    2.6257 H         1 RES1    0.0000
     36 C18        4.6896   -0.4178    0.9785 C.ar      1 RES1    0.0000
     37 H19        3.9400   -0.1813    0.4813 H         1 RES1    0.0000
     38 C19        5.5828   -1.2041    0.4727 C.ar      1 RES1    0.0000
     39 H20        5.4839   -1.4802   -0.4093 H         1 RES1    0.0000
     40 C20        6.6900   -1.6603    1.1961 C.ar      1 RES1    0.0000
     41 H21        7.2708   -2.2893    0.8330 H         1 RES1    0.0000
     42 C21        6.9083   -1.1152    2.5401 C.ar      1 RES1    0.0000
     43 H22        7.6633   -1.3421    3.0321 H         1 RES1    0.0000
     44 O1         5.7312    1.3841    9.4801 O.3       1 RES1    0.0000
     45 O2         6.4636    2.7379    6.5613 O.3       1 RES1    0.0000
     46 H23        6.5680    3.5402    6.6925 H         1 RES1    0.0000
     47 O3         4.3293    4.6331    5.8180 O.3       1 RES1    0.0000
     48 H24        3.9336    4.7575    6.5253 H         1 RES1    0.0000
     49 O4         4.8504    0.4894    5.0159 O.3       1 RES1    0.0000
     50 O5         3.3195   -0.7750    7.1850 O.3       1 RES1    0.0000
     51 H25        2.9318   -1.0528    6.5167 H         1 RES1    0.0000
     52 N1         4.4799    0.6262    9.3565 N.3       1 RES1    0.0000
@<TRIPOS>BOND
     1    1    2 1
     2    3    1 1
     3    4    1 1
     4    5    4 1
     5    6    4 1
     6    7    6 1
     7    8    7 1
     8    9    7 1
     9   10    9 1
    10   11    4 1
    11   12   11 1
    12   13   14 1
    13   15   13 1
    14   16   13 1
    15   17   16 ar
    16   18   17 1
    17   19   17 ar
    18   20   19 1
    19   21   19 ar
    20   22   21 1
    21   23   21 ar
    22   24   23 1
    23   25   16 ar
    24   26   25 1
    25   27    6 1
    26   28   27 1
    27   29   27 1
    28   30   31 1
    29   32   30 1
    30   33   30 1
    31   34   33 ar
    32   35   34 1
    33   36   34 ar
    34   37   36 1
    35   38   36 ar
    36   39   38 1
    37   40   38 ar
    38   41   40 1
    39   42   33 ar
    40   43   42 1
    41   44    1 1
    42   45    6 1
    43   46   45 1
    44   47   27 1
    45   48   47 1
    46   49    7 1
    47   50    9 1
    48   51   50 1
    49   52   11 1
    50    9   11 1
    51   13   52 1
    52   23   25 ar
    53   30   49 1
    54   40   42 ar
    55   44   52 1
@<TRIPOS>SUBSTRUCTURE
     1 RES1 1

@<TRIPOS>CRYSIN
   5.3774   12.0047   28.8220  90.0000  90.0000  90.0000  19 1

