# MOL2 file generated by ConQuest
# Please check atom types

@<TRIPOS>MOLECULE
EHOJOA
    54    59     1
SMALL
USER_CHARGES
****
Generated from CSD

@<TRIPOS>ATOM
      1 N1         0.5913    1.9133    3.4873 N.pl3     1 RES1    1.0000
      2 O1         1.1159    1.6171    2.3071 O.2       1 RES1   -1.0000
      3 C1         0.2882    0.8708    4.3311 C.ar      1 RES1    0.0000
      4 H1         0.4635   -0.0237    4.0638 H         1 RES1    0.0000
      5 C2        -0.2767    1.1294    5.5742 C.ar      1 RES1    0.0000
      6 H2        -0.4738    0.4146    6.1707 H         1 RES1    0.0000
      7 C3        -0.5514    2.4365    5.9359 C.ar      1 RES1    0.0000
      8 H3        -0.9569    2.6241    6.7744 H         1 RES1    0.0000
      9 C4        -0.2358    3.4613    5.0774 C.ar      1 RES1    0.0000
     10 H4        -0.4282    4.3577    5.3290 H         1 RES1    0.0000
     11 C5         0.3637    3.2086    3.8405 C.ar      1 RES1    0.0000
     12 C6         0.8144    4.2807    2.9192 C.ar      1 RES1    0.0000
     13 C7         2.1968    4.2945    2.5639 C.ar      1 RES1    0.0000
     14 H5         2.7844    3.6311    2.9035 H         1 RES1    0.0000
     15 C8         2.6733    5.2739    1.7316 C.ar      1 RES1    0.0000
     16 H6         3.6005    5.2897    1.5241 H         1 RES1    0.0000
     17 C9         1.8347    6.2532    1.1740 C.ar      1 RES1    0.0000
     18 C10        2.2774    7.2188    0.2369 C.ar      1 RES1    0.0000
     19 H7         3.2022    7.2583    0.0199 H         1 RES1    0.0000
     20 C11        1.4351    8.0816   -0.3574 C.ar      1 RES1    0.0000
     21 H8         1.7653    8.6878   -1.0105 H         1 RES1    0.0000
     22 C12        0.0623    8.0974   -0.0210 C.ar      1 RES1    0.0000
     23 H9        -0.5303    8.7154   -0.4319 H         1 RES1    0.0000
     24 C13       -0.4022    7.1951    0.9193 C.ar      1 RES1    0.0000
     25 H10       -1.3213    7.2128    1.1593 H         1 RES1    0.0000
     26 C14        0.4419    6.2473    1.5324 C.ar      1 RES1    0.0000
     27 C15       -0.0314    5.2482    2.4391 C.ar      1 RES1    0.0000
     28 C15F      -1.5086    5.2482    2.8018 C.ar      1 RES1    0.0000
     29 C6F       -2.3544    4.2807    2.3217 C.ar      1 RES1    0.0000
     30 C5F       -1.9037    3.2086    1.4004 C.ar      1 RES1    0.0000
     31 N1F       -2.1313    1.9133    1.7536 N.pl3     1 RES1    1.0000
     32 O1F       -2.6559    1.6171    2.9339 O.2       1 RES1   -1.0000
     33 C1F       -1.8282    0.8708    0.9098 C.ar      1 RES1    0.0000
     34 H1F       -2.0035   -0.0237    1.1771 H         1 RES1    0.0000
     35 C2F       -1.2633    1.1294   -0.3333 C.ar      1 RES1    0.0000
     36 H2F       -1.0662    0.4146   -0.9297 H         1 RES1    0.0000
     37 C3F       -0.9886    2.4365   -0.6949 C.ar      1 RES1    0.0000
     38 H3F       -0.5831    2.6241   -1.5335 H         1 RES1    0.0000
     39 C4F       -1.3042    3.4613    0.1635 C.ar      1 RES1    0.0000
     40 H4F       -1.1118    4.3577   -0.0880 H         1 RES1    0.0000
     41 C7F       -3.7368    4.2945    2.6771 C.ar      1 RES1    0.0000
     42 H5F       -4.3244    3.6311    2.3375 H         1 RES1    0.0000
     43 C8F       -4.2133    5.2739    3.5093 C.ar      1 RES1    0.0000
     44 H6F       -5.1405    5.2897    3.7169 H         1 RES1    0.0000
     45 C9F       -3.3747    6.2532    4.0670 C.ar      1 RES1    0.0000
     46 C10F      -3.8174    7.2188    5.0040 C.ar      1 RES1    0.0000
     47 H7F       -4.7422    7.2583    5.2210 H         1 RES1    0.0000
     48 C11F      -2.9751    8.0816    5.5984 C.ar      1 RES1    0.0000
     49 H8F       -3.3053    8.6878    6.2514 H         1 RES1    0.0000
     50 C12F      -1.6023    8.0974    5.2619 C.ar      1 RES1    0.0000
     51 H9F       -1.0097    8.7154    5.6728 H         1 RES1    0.0000
     52 C13F      -1.1378    7.1951    4.3217 C.ar      1 RES1    0.0000
     53 H10F      -0.2187    7.2128    4.0816 H         1 RES1    0.0000
     54 C14F      -1.9819    6.2473    3.7085 C.ar      1 RES1    0.0000
@<TRIPOS>BOND
     1    1    2 1
     2    3    1 ar
     3    4    3 1
     4    5    3 ar
     5    6    5 1
     6    7    5 ar
     7    8    7 1
     8    9    7 ar
     9   10    9 1
    10   11    1 ar
    11   12   11 1
    12   13   12 ar
    13   14   13 1
    14   15   13 ar
    15   16   15 1
    16   17   15 ar
    17   18   17 ar
    18   19   18 1
    19   20   18 ar
    20   21   20 1
    21   22   20 ar
    22   23   22 1
    23   24   22 ar
    24   25   24 1
    25   26   17 ar
    26   27   12 ar
    27   28   27 1
    28   29   28 ar
    29   30   29 1
    30   31   30 ar
    31   32   31 1
    32   33   31 ar
    33   34   33 1
    34   35   33 ar
    35   36   35 1
    36   37   35 ar
    37   38   37 1
    38   39   30 ar
    39   40   39 1
    40   41   29 ar
    41   42   41 1
    42   43   41 ar
    43   44   43 1
    44   45   43 ar
    45   46   45 ar
    46   47   46 1
    47   48   46 ar
    48   49   48 1
    49   50   48 ar
    50   51   50 1
    51   52   50 ar
    52   53   52 1
    53   54   28 ar
    54    9   11 ar
    55   24   26 ar
    56   26   27 ar
    57   37   39 ar
    58   45   54 ar
    59   52   54 ar
@<TRIPOS>SUBSTRUCTURE
     1 RES1 1

@<TRIPOS>CRYSIN
  10.3990   19.7450   10.9250  90.0000 106.3750  90.0000  15 1

