# MOL2 file generated by ConQuest
# Please check atom types

@<TRIPOS>MOLECULE
EHOMOF
    53    56     1
SMALL
NO_CHARGES
****
Generated from CSD

@<TRIPOS>ATOM
      1 N1         3.3679    7.3728    2.7677 N.am      1 RES1    0.0000
      2 N2         2.8357    9.3713    6.2342 N.3       1 RES1    0.0000
      3 O1         3.7932    8.4640    3.4976 O.3       1 RES1    0.0000
      4 O2         1.1599    7.4253    3.4107 O.2       1 RES1    0.0000
      5 O3         5.3637    6.9252    1.7367 O.2       1 RES1    0.0000
      6 O4         5.9760    6.4514    5.1778 O.2       1 RES1    0.0000
      7 C1         2.0390    6.9638    2.7450 C.2       1 RES1    0.0000
      8 C2         4.1878    6.7170    1.8650 C.2       1 RES1    0.0000
      9 C3         3.2924    5.7510    1.2087 C.ar      1 RES1    0.0000
     10 C4         2.0339    5.8761    1.7460 C.ar      1 RES1    0.0000
     11 C5         1.0188    5.0724    1.3383 C.ar      1 RES1    0.0000
     12 H1         0.1707    5.1434    1.7126 H         1 RES1    0.0000
     13 C6         1.2853    4.1470    0.3525 C.ar      1 RES1    0.0000
     14 H2         0.6027    3.5946    0.0485 H         1 RES1    0.0000
     15 C7         2.5418    4.0297   -0.1871 C.ar      1 RES1    0.0000
     16 H3         2.6970    3.3940   -0.8488 H         1 RES1    0.0000
     17 C8         3.5743    4.8346    0.2339 C.ar      1 RES1    0.0000
     18 H4         4.4265    4.7590   -0.1287 H         1 RES1    0.0000
     19 C9         4.1717    9.2385    5.7066 C.3       1 RES1    0.0000
     20 H5         4.7942    9.1472    6.4444 H         1 RES1    0.0000
     21 H6         4.4019   10.0490    5.2247 H         1 RES1    0.0000
     22 C10        4.3334    8.0482    4.7748 C.3       1 RES1    0.0000
     23 H7         3.7773    7.3167    5.1161 H         1 RES1    0.0000
     24 C11        5.7741    7.5534    4.7048 C.2       1 RES1    0.0000
     25 C12        6.8887    8.3774    4.2005 C.ar      1 RES1    0.0000
     26 C13        8.1775    7.9592    4.4742 C.ar      1 RES1    0.0000
     27 H8         8.3114    7.1927    4.9841 H         1 RES1    0.0000
     28 C14        9.2627    8.6569    4.0072 C.ar      1 RES1    0.0000
     29 H9        10.1194    8.3582    4.2122 H         1 RES1    0.0000
     30 C15        9.1063    9.7931    3.2394 C.ar      1 RES1    0.0000
     31 C16        7.8219   10.2034    2.9661 C.ar      1 RES1    0.0000
     32 H10        7.6927   10.9654    2.4478 H         1 RES1    0.0000
     33 C17        6.7213    9.5192    3.4371 C.ar      1 RES1    0.0000
     34 H11        5.8644    9.8258    3.2414 H         1 RES1    0.0000
     35 C18       10.2962   10.5607    2.7340 C.3       1 RES1    0.0000
     36 H12       10.4722   11.2991    3.3216 H         1 RES1    0.0000
     37 H13       10.1122   10.8899    1.8513 H         1 RES1    0.0000
     38 H14       11.0616    9.9825    2.7068 H         1 RES1    0.0000
     39 C19        2.3652    8.4416    7.1442 C.ar      1 RES1    0.0000
     40 C20        3.2203    7.5985    7.8426 C.ar      1 RES1    0.0000
     41 H15        4.1323    7.6289    7.6625 H         1 RES1    0.0000
     42 C21        2.7583    6.7283    8.7860 C.ar      1 RES1    0.0000
     43 H16        3.3592    6.1849    9.2431 H         1 RES1    0.0000
     44 C22        1.4313    6.6437    9.0677 C.ar      1 RES1    0.0000
     45 H17        1.1197    6.0553    9.7159 H         1 RES1    0.0000
     46 C23        0.5675    7.4440    8.3743 C.ar      1 RES1    0.0000
     47 H18       -0.3453    7.3832    8.5447 H         1 RES1    0.0000
     48 C24        1.0174    8.3402    7.4279 C.ar      1 RES1    0.0000
     49 H19        0.4099    8.8812    6.9774 H         1 RES1    0.0000
     50 C25        1.9046   10.1673    5.4657 C.3       1 RES1    0.0000
     51 H20        1.3412    9.5880    4.9474 H         1 RES1    0.0000
     52 H21        2.3910   10.7501    4.8772 H         1 RES1    0.0000
     53 H22        1.3647   10.6915    6.0618 H         1 RES1    0.0000
@<TRIPOS>BOND
     1    1    3 1
     2    2   19 1
     3    3   22 1
     4    4    7 2
     5    5    8 2
     6    6   24 2
     7    7    1 1
     8    8    1 1
     9    9    8 1
    10   10    7 1
    11   11   10 ar
    12   12   11 1
    13   13   11 ar
    14   14   13 1
    15   15   13 ar
    16   16   15 1
    17   17    9 ar
    18   18   17 1
    19   19   20 1
    20   21   19 1
    21   22   19 1
    22   23   22 1
    23   24   22 1
    24   25   24 1
    25   26   25 ar
    26   27   26 1
    27   28   26 ar
    28   29   28 1
    29   30   28 ar
    30   31   30 ar
    31   32   31 1
    32   33   25 ar
    33   34   33 1
    34   35   30 1
    35   36   35 1
    36   37   35 1
    37   38   35 1
    38   39    2 1
    39   40   39 ar
    40   41   40 1
    41   42   40 ar
    42   43   42 1
    43   44   42 ar
    44   45   44 1
    45   46   44 ar
    46   47   46 1
    47   48   39 ar
    48   49   48 1
    49   50    2 1
    50   51   50 1
    51   52   50 1
    52   53   50 1
    53    9   10 ar
    54   15   17 ar
    55   31   33 ar
    56   46   48 ar
@<TRIPOS>SUBSTRUCTURE
     1 RES1 1

@<TRIPOS>CRYSIN
  11.3980   11.2720   16.8870  90.0000  98.3400  90.0000  14 1

