# MOL2 file generated by ConQuest
# Please check atom types

@<TRIPOS>MOLECULE
EHUVOU
    44    45     1
SMALL
USER_CHARGES
****
Generated from CSD

@<TRIPOS>ATOM
      1 O1         6.3432    8.8191    5.6990 O.2       1 RES1   -1.0000
      2 O2         2.8427    6.3481    0.4021 O.2       1 RES1    0.0000
      3 O3         3.1268    3.6974    2.7104 O.3       1 RES1    0.0000
      4 N1         5.1388    8.4189    6.0286 N.pl3     1 RES1    1.0000
      5 N2         6.9174    7.4027    2.9608 N.1       1 RES1    0.0000
      6 C1         4.8511    8.1498    7.3311 C.ar      1 RES1    0.0000
      7 H1         5.5245    8.2657    7.9912 H         1 RES1    0.0000
      8 C2         3.6055    7.7148    7.7088 C.ar      1 RES1    0.0000
      9 H2         3.4294    7.5138    8.6201 H         1 RES1    0.0000
     10 C3         2.6033    7.5686    6.7604 C.ar      1 RES1    0.0000
     11 H3         1.7270    7.3021    7.0124 H         1 RES1    0.0000
     12 C4         2.9216    7.8239    5.4284 C.ar      1 RES1    0.0000
     13 H4         2.2506    7.7240    4.7623 H         1 RES1    0.0000
     14 C5         4.1915    8.2193    5.0540 C.ar      1 RES1    0.0000
     15 C6         4.6295    8.5085    3.6251 C.3       1 RES1    0.0000
     16 C7         3.6951    7.8515    2.5730 C.3       1 RES1    0.0000
     17 H5         2.7796    8.2104    2.6935 H         1 RES1    0.0000
     18 H6         4.0019    8.1122    1.6684 H         1 RES1    0.0000
     19 C8         3.6382    6.3228    2.6505 C.3       1 RES1    0.0000
     20 H7         4.5521    5.9718    2.7947 H         1 RES1    0.0000
     21 H8         3.0856    6.0577    3.4278 H         1 RES1    0.0000
     22 C9         3.0626    5.7034    1.4028 C.2       1 RES1    0.0000
     23 C10        2.7467    4.1962    1.4315 C.3       1 RES1    0.0000
     24 C11        1.2397    4.0369    1.2544 C.3       1 RES1    0.0000
     25 H9         1.0078    3.0841    1.2705 H         1 RES1    0.0000
     26 H10        0.9692    4.4251    0.3962 H         1 RES1    0.0000
     27 H11        0.7746    4.4988    1.9828 H         1 RES1    0.0000
     28 C12        3.5174    3.5146    0.3060 C.3       1 RES1    0.0000
     29 H12        4.4788    3.6411    0.4451 H         1 RES1    0.0000
     30 H13        3.2569    3.9080   -0.5530 H         1 RES1    0.0000
     31 H14        3.3106    2.5563    0.3027 H         1 RES1    0.0000
     32 C13        4.6401   10.0309    3.3823 C.ar      1 RES1    0.0000
     33 C14        3.4835   10.7515    3.6790 C.ar      1 RES1    0.0000
     34 H15        2.7354   10.3094    4.0643 H         1 RES1    0.0000
     35 C15        3.4228   12.1108    3.4126 C.ar      1 RES1    0.0000
     36 H16        2.6355   12.5987    3.6217 H         1 RES1    0.0000
     37 C16        4.4987   12.7534    2.8470 C.ar      1 RES1    0.0000
     38 H17        4.4480   13.6820    2.6547 H         1 RES1    0.0000
     39 C17        5.6483   12.0555    2.5586 C.ar      1 RES1    0.0000
     40 H18        6.3917   12.5051    2.1742 H         1 RES1    0.0000
     41 C18        5.7265   10.6915    2.8276 C.ar      1 RES1    0.0000
     42 H19        6.5237   10.2128    2.6311 H         1 RES1    0.0000
     43 C19        5.9667    7.9246    3.3528 C.1       1 RES1    0.0000
     44 H20        3.5918    3.0381    2.5966 H         1 RES1    0.0000
@<TRIPOS>BOND
     1    1    4 1
     2    2   22 2
     3    3   23 1
     4    4    6 ar
     5    5   43 3
     6    6    7 1
     7    8    6 ar
     8    9    8 1
     9   10    8 ar
    10   11   10 1
    11   12   10 ar
    12   13   12 1
    13   14    4 ar
    14   15   14 1
    15   16   15 1
    16   17   16 1
    17   18   16 1
    18   19   16 1
    19   20   19 1
    20   21   19 1
    21   22   19 1
    22   23   22 1
    23   24   23 1
    24   25   24 1
    25   26   24 1
    26   27   24 1
    27   28   23 1
    28   29   28 1
    29   30   28 1
    30   31   28 1
    31   32   15 1
    32   33   32 ar
    33   34   33 1
    34   35   33 ar
    35   36   35 1
    36   37   35 ar
    37   38   37 1
    38   39   37 ar
    39   40   39 1
    40   41   32 ar
    41   42   41 1
    42   43   15 1
    43   44    3 1
    44   12   14 ar
    45   39   41 ar
@<TRIPOS>SUBSTRUCTURE
     1 RES1 1

@<TRIPOS>CRYSIN
   6.4730   15.3437    8.7824  90.0000 106.2760  90.0000   4 1

