# MOL2 file generated by ConQuest
# Please check atom types

@<TRIPOS>MOLECULE
EINACN10
    27    27     1
SMALL
NO_CHARGES
****
Generated from CSD

@<TRIPOS>ATOM
      1 C1         4.3709   -0.2564   -4.0013 C.ar      1 RES1    0.0000
      2 C2         7.0819   -2.7556   -4.6384 C.2       1 RES1    0.0000
      3 C3         3.9915    0.2303   -2.7597 C.ar      1 RES1    0.0000
      4 C4         2.9180    1.0914   -2.6320 C.ar      1 RES1    0.0000
      5 C5         2.1982    1.4656   -3.7943 C.ar      1 RES1    0.0000
      6 C6         2.5551    0.9611   -5.0173 C.ar      1 RES1    0.0000
      7 C7         3.6506    0.1090   -5.1325 C.ar      1 RES1    0.0000
      8 C8         0.2738    2.5914   -4.6768 C.3       1 RES1    0.0000
      9 C9        -0.8236    3.4802   -4.1278 C.3       1 RES1    0.0000
     10 C10        6.0680   -1.7375   -5.0567 C.2       1 RES1    0.0000
     11 H1         7.4172   -3.0277   -3.6804 H         1 RES1    0.0000
     12 H2         4.4773   -0.1400   -1.9312 H         1 RES1    0.0000
     13 H3         2.5758    1.3259   -1.6661 H         1 RES1    0.0000
     14 H4         1.9692    1.3139   -5.6509 H         1 RES1    0.0000
     15 H5         3.8808   -0.4510   -5.8294 H         1 RES1    0.0000
     16 H6         0.0488    1.5538   -5.2502 H         1 RES1    0.0000
     17 H7         0.8447    2.9187   -5.5608 H         1 RES1    0.0000
     18 H8        -0.6510    4.1466   -3.9805 H         1 RES1    0.0000
     19 H9        -1.5386    3.5096   -4.3165 H         1 RES1    0.0000
     20 H10       -0.8372    2.7367   -3.4196 H         1 RES1    0.0000
     21 H11        5.6691   -1.3549   -3.0993 H         1 RES1    0.0000
     22 H12        8.3996   -4.9625   -5.8837 H         1 RES1    0.0000
     23 N1         5.4606   -1.1717   -4.0059 N.am      1 RES1    0.0000
     24 N2         7.4600   -3.5689   -5.5520 N.2       1 RES1    0.0000
     25 O1         1.1479    2.3255   -3.5730 O.3       1 RES1    0.0000
     26 O2         5.8212   -1.5159   -6.2351 O.2       1 RES1    0.0000
     27 O3         8.3645   -4.5040   -5.0525 O.3       1 RES1    0.0000
@<TRIPOS>BOND
     1    1    3 ar
     2    2   10 1
     3    3    4 ar
     4    4    5 ar
     5    5    6 ar
     6    6    7 ar
     7    7    1 ar
     8    8    9 1
     9    9   18 1
    10   10   23 1
    11   11    2 1
    12   12    3 1
    13   13    4 1
    14   14    6 1
    15   15    7 1
    16   16    8 1
    17   17    8 1
    18   19    9 1
    19   20    9 1
    20   21   23 1
    21   22   27 1
    22   23    1 1
    23   24    2 2
    24   25    5 1
    25   26   10 2
    26   27   24 1
    27    8   25 1
@<TRIPOS>SUBSTRUCTURE
     1 RES1 1

@<TRIPOS>CRYSIN
  11.7880    9.9990    8.8950  90.0000 100.3500  90.0000  14 1

