# MOL2 file generated by ConQuest
# Please check atom types

@<TRIPOS>MOLECULE
EJEHOQ
    60    57     2
SMALL
NO_CHARGES
****
Generated from CSD

@<TRIPOS>ATOM
      1 O1         6.1124    3.3623    5.9729 O.3       1 RES1    0.0000
      2 O2         3.8585    6.1971    3.0996 O.3       1 RES1    0.0000
      3 O3         6.1012    1.4783    8.1912 O.3       1 RES1    0.0000
      4 O4         4.4910    5.3088   11.8191 O.3       1 RES1    0.0000
      5 O5         3.5267    2.7768   11.9903 O.3       1 RES1    0.0000
      6 O6         8.6089    6.1450    9.0996 O.3       1 RES1    0.0000
      7 H1         8.9877    6.8129    9.3855 H         1 RES1    0.0000
      8 N1         7.7611    6.5025    8.0370 N.2       1 RES1    0.0000
      9 C1         7.2216    5.5420    7.5116 C.2       1 RES1    0.0000
     10 C2         7.3447    4.1082    7.9930 C.3       1 RES1    0.0000
     11 C3         7.2855    3.1331    6.8110 C.3       1 RES1    0.0000
     12 C4         5.8455    4.6491    5.6335 C.ar      1 RES1    0.0000
     13 C5         6.3465    5.7584    6.3562 C.ar      1 RES1    0.0000
     14 C6         5.9658    7.0422    5.9474 C.ar      1 RES1    0.0000
     15 H2         6.2957    7.7765    6.4125 H         1 RES1    0.0000
     16 C7         5.1246    7.2528    4.8853 C.ar      1 RES1    0.0000
     17 H3         4.8802    8.1126    4.6275 H         1 RES1    0.0000
     18 C8         4.6452    6.1320    4.2054 C.ar      1 RES1    0.0000
     19 C9         5.0024    4.8540    4.5624 C.ar      1 RES1    0.0000
     20 C10        4.4177    3.9135    3.5432 C.3       1 RES1    0.0000
     21 H4         3.9637    3.1692    3.9684 H         1 RES1    0.0000
     22 H5         5.1011    3.5716    2.9448 H         1 RES1    0.0000
     23 C11        3.4298    4.8222    2.7967 C.3       1 RES1    0.0000
     24 C12        7.1868    1.7281    7.3042 C.3       1 RES1    0.0000
     25 H6         7.1031    1.1381    6.5399 H         1 RES1    0.0000
     26 H7         8.0130    1.5031    7.7590 H         1 RES1    0.0000
     27 C13        5.7628    2.4739    9.0753 C.ar      1 RES1    0.0000
     28 C14        6.2732    3.7476    9.0163 C.ar      1 RES1    0.0000
     29 C15        5.8051    4.6766    9.9439 C.ar      1 RES1    0.0000
     30 H8         6.1284    5.5493    9.9098 H         1 RES1    0.0000
     31 C16        4.8849    4.3505   10.9067 C.ar      1 RES1    0.0000
     32 C17        4.4055    3.0292   10.9749 C.ar      1 RES1    0.0000
     33 C18        4.8266    2.1032   10.0491 C.ar      1 RES1    0.0000
     34 H9         4.4882    1.2377   10.0698 H         1 RES1    0.0000
     35 C19        3.1798    5.8103   11.6429 C.3       1 RES1    0.0000
     36 H10        3.1159    6.2344   10.7838 H         1 RES1    0.0000
     37 H11        2.9852    6.4508   12.3317 H         1 RES1    0.0000
     38 H12        2.5501    5.0877   11.6918 H         1 RES1    0.0000
     39 C20        3.2155    1.3992   12.2666 C.3       1 RES1    0.0000
     40 H13        2.8621    0.9852   11.4756 H         1 RES1    0.0000
     41 H14        2.5642    1.3545   12.9702 H         1 RES1    0.0000
     42 H15        4.0126    0.9391   12.5391 H         1 RES1    0.0000
     43 C21        3.4035    4.6535    1.3376 C.2       1 RES1    0.0000
     44 C22        4.2410    5.3127    0.4918 C.2       1 RES1    0.0000
     45 H16        4.8398    5.9546    0.8799 H         1 RES1    0.0000
     46 H17        4.2147    5.1958   -0.4607 H         1 RES1    0.0000
     47 C23        4.5023    4.7314    0.5629 Du        2 SUP2    0.0000
     48 H18        5.3464    5.0242    0.9184 Du        2 SUP2    0.0000
     49 H19        4.4083    4.5929   -0.3851 Du        2 SUP2    0.0000
     50 C24        2.1741    4.2294    0.8340 C.3       1 RES1    0.0000
     51 H20        2.1938    4.1270   -0.1200 H         1 RES1    0.0000
     52 H21        1.8686    3.4144    1.2384 Du        2 SUP2    0.0000
     53 H22        1.5772    4.9449    1.0665 H         1 RES1    0.0000
     54 C25        2.6939    3.5240    0.8754 Du        2 SUP2    0.0000
     55 H23        2.7380    3.4966   -0.0844 Du        2 SUP2    0.0000
     56 H24        3.0285    2.6989    1.2339 Du        2 SUP2    0.0000
     57 H25        1.7821    3.6452    1.1495 H         1 RES1    0.0000
     58 H26        8.4773    4.0116    8.4122 H         1 RES1    0.0000
     59 H27        8.1963    3.1749    6.2599 H         1 RES1    0.0000
     60 H28        2.5388    4.7588    3.0722 H         1 RES1    0.0000
@<TRIPOS>BOND
     1    1   11 1
     2    2   18 1
     3    3   24 1
     4    4   31 1
     5    5   32 1
     6    6    7 1
     7    8    6 1
     8    9    8 2
     9   10    9 1
    10   11   10 1
    11   12    1 1
    12   13    9 1
    13   14   13 ar
    14   15   14 1
    15   16   14 ar
    16   17   16 1
    17   18   16 ar
    18   19   12 ar
    19   20   19 1
    20   21   20 1
    21   22   20 1
    22   23    2 1
    23   24   11 1
    24   25   24 1
    25   26   24 1
    26   27    3 1
    27   28   10 1
    28   29   28 ar
    29   30   29 1
    30   31   29 ar
    31   32   31 ar
    32   33   27 ar
    33   34   33 1
    34   35    4 1
    35   36   35 1
    36   37   35 1
    37   38   35 1
    38   39    5 1
    39   40   39 1
    40   41   39 1
    41   42   39 1
    42   43   23 1
    43   44   43 2
    44   45   44 1
    45   46   44 1
    46   50   43 1
    47   51   50 1
    48   53   50 1
    49   57   50 1
    50   58   10 1
    51   59   11 1
    52   60   23 1
    53   12   13 ar
    54   18   19 ar
    55   20   23 1
    56   27   28 ar
    57   32   33 ar
@<TRIPOS>SUBSTRUCTURE
     1 RES1 1
     2 SUP2 47

@<TRIPOS>CRYSIN
   9.3994   14.4249   14.8129  90.0000  90.0000  90.0000  19 1

