# MOL2 file generated by ConQuest
# Please check atom types

@<TRIPOS>MOLECULE
EJIRIA
    25    26     1
SMALL
USER_CHARGES
****
Generated from CSD

@<TRIPOS>ATOM
      1 N1         8.6809    1.3116    1.7175 N.pl3     1 RES1    1.0000
      2 O1         9.4192    1.8511    0.7676 O.2       1 RES1   -1.0000
      3 N2         6.5175   -2.8510    5.0963 N.2       1 RES1   -1.0000
      4 N3         6.4728   -1.7218    5.0045 N.1       1 RES1    1.0000
      5 C1         6.4014   -0.4108    4.8748 C.2       1 RES1    0.0000
      6 C2         7.1646    0.1786    3.7791 C.ar      1 RES1    0.0000
      7 C3         7.3524    1.5632    3.6808 C.ar      1 RES1    0.0000
      8 C4         7.7782   -0.6096    2.7906 C.ar      1 RES1    0.0000
      9 C5         8.0963    2.1004    2.6609 C.ar      1 RES1    0.0000
     10 C6         5.5034   -0.1345    7.1906 C.ar      1 RES1    0.0000
     11 C7         3.8240    1.5241    7.6840 C.ar      1 RES1    0.0000
     12 C8         5.5330    0.2820    5.8553 C.ar      1 RES1    0.0000
     13 C9         4.6437    0.4802    8.0935 C.ar      1 RES1    0.0000
     14 C10        8.5162   -0.0400    1.7835 C.ar      1 RES1    0.0000
     15 C11        4.7033    1.3318    5.4471 C.ar      1 RES1    0.0000
     16 C12        3.8642    1.9546    6.3674 C.ar      1 RES1    0.0000
     17 H1         7.7053   -1.5752    2.8219 H         1 RES1    0.0000
     18 H2         8.2612    3.0508    2.5716 H         1 RES1    0.0000
     19 H3         6.0887   -0.8311    7.4824 H         1 RES1    0.0000
     20 H4         4.6334    0.2237    9.0131 H         1 RES1    0.0000
     21 H5         6.9985    2.1977    4.3310 H         1 RES1    0.0000
     22 H6         3.3061    2.6926    6.1048 H         1 RES1    0.0000
     23 H7         4.6945    1.5868    4.4930 H         1 RES1    0.0000
     24 H8         3.2224    1.9438    8.2927 H         1 RES1    0.0000
     25 H9         8.9496   -0.5343    1.1435 H         1 RES1    0.0000
@<TRIPOS>BOND
     1    1    2 1
     2    3    4 2
     3    4    5 2
     4    5    6 1
     5    6    7 ar
     6    7    9 ar
     7    8    6 ar
     8    9    1 ar
     9   10   12 ar
    10   11   13 ar
    11   12    5 1
    12   13   10 ar
    13   14    1 ar
    14   15   12 ar
    15   16   11 ar
    16   17    8 1
    17   18    9 1
    18   19   10 1
    19   20   13 1
    20   21    7 1
    21   22   16 1
    22   23   15 1
    23   24   11 1
    24   25   14 1
    25    8   14 ar
    26   15   16 ar
@<TRIPOS>SUBSTRUCTURE
     1 RES1 1

@<TRIPOS>CRYSIN
   9.5820   11.5910    9.1490  90.0000 100.2120  90.0000  14 1

