# MOL2 file generated by ConQuest
# Please check atom types

@<TRIPOS>MOLECULE
EJOYAD
    22    23     1
SMALL
NO_CHARGES
****
Generated from CSD

@<TRIPOS>ATOM
      1 C1         4.7246    0.9109   15.9588 C.ar      1 RES1    0.0000
      2 C2         5.7398    0.5978   15.0974 C.ar      1 RES1    0.0000
      3 C3         5.5812    0.7410   13.7347 C.ar      1 RES1    0.0000
      4 C4         4.3876    1.1950   13.2393 C.ar      1 RES1    0.0000
      5 C5         3.3340    1.4967   14.1006 C.ar      1 RES1    0.0000
      6 C6         3.5056    1.3430   15.4492 C.ar      1 RES1    0.0000
      7 C7         4.9196    0.8016   17.4186 C.3       1 RES1    0.0000
      8 O1         4.3671    1.8126   18.2496 O.3       1 RES1    0.0000
      9 N1         3.7714    0.4442   18.2475 N.am      1 RES1    0.0000
     10 C8         4.0804   -0.2150   19.4870 C.2       1 RES1    0.0000
     11 O2         4.2459    0.3095   20.5222 O.2       1 RES1    0.0000
     12 O3         4.0164   -1.5059   19.2201 O.3       1 RES1    0.0000
     13 C9         4.1481   -2.3829   20.3705 C.3       1 RES1    0.0000
     14 H1         6.5517    0.3737   15.5281 H         1 RES1    0.0000
     15 H2         6.4369    0.4512   13.2231 H         1 RES1    0.0000
     16 H3         4.1555    1.2197   12.2729 H         1 RES1    0.0000
     17 H4         2.5205    1.8119   13.7286 H         1 RES1    0.0000
     18 H5         2.8365    1.6145   16.0336 H         1 RES1    0.0000
     19 H6         5.4227    0.4019   17.8128 H         1 RES1    0.0000
     20 H7         3.9416   -3.2853   20.0976 H         1 RES1    0.0000
     21 H8         5.1689   -2.2419   20.7446 H         1 RES1    0.0000
     22 H9         3.7158   -2.1361   21.0276 H         1 RES1    0.0000
@<TRIPOS>BOND
     1    1    2 ar
     2    2    3 ar
     3    3    4 ar
     4    4    5 ar
     5    5    6 ar
     6    6    1 ar
     7    7    1 1
     8    8    7 1
     9    9    7 1
    10   10    9 1
    11   11   10 2
    12   12   10 1
    13   13   12 1
    14   14    2 1
    15   15    3 1
    16   16    4 1
    17   17    5 1
    18   18    6 1
    19   19    7 1
    20   20   13 1
    21   21   13 1
    22   22   13 1
    23    8    9 1
@<TRIPOS>SUBSTRUCTURE
     1 RES1 1

@<TRIPOS>CRYSIN
   6.2850    7.0500   20.2260  90.0000  91.5200  90.0000  14 1

