# MOL2 file generated by ConQuest
# Please check atom types

@<TRIPOS>MOLECULE
EJUHOG
    23    24     1
SMALL
NO_CHARGES
****
Generated from CSD

@<TRIPOS>ATOM
      1 O1         1.0273    3.6231    3.6123 O.3       1 RES1    0.0000
      2 N1         3.6910    1.5845    4.9517 N.3       1 RES1    0.0000
      3 O2         0.4383    2.4735    6.1191 O.2       1 RES1    0.0000
      4 C1         3.1732    2.4430    3.8651 C.3       1 RES1    0.0000
      5 N2         1.8951    2.8908    4.3976 N.am      1 RES1    0.0000
      6 C2         1.5103    2.3271    5.5448 C.2       1 RES1    0.0000
      7 C3         2.6434    1.4411    5.9799 C.3       1 RES1    0.0000
      8 C4         3.0528    1.7046    2.5512 C.ar      1 RES1    0.0000
      9 C5         4.1130    1.7904    1.6591 C.ar      1 RES1    0.0000
     10 C6         4.0889    1.0662    0.4731 C.ar      1 RES1    0.0000
     11 C7         3.0138    0.2465    0.1869 C.ar      1 RES1    0.0000
     12 C8         1.9478    0.1655    1.0688 C.ar      1 RES1    0.0000
     13 C9         1.9616    0.8962    2.2502 C.ar      1 RES1    0.0000
     14 H1         1.2557    0.8538    2.8970 H         1 RES1    0.0000
     15 H2         2.2936    0.4853    5.9722 H         1 RES1    0.0000
     16 H3         4.9427    2.3726    1.8741 H         1 RES1    0.0000
     17 H4         3.7844    3.2057    3.7084 H         1 RES1    0.0000
     18 H5         1.1984   -0.4404    0.9402 H         1 RES1    0.0000
     19 H6         1.3303    4.4665    3.5127 H         1 RES1    0.0000
     20 H7         3.0390    1.7165    6.8345 H         1 RES1    0.0000
     21 H8         4.4094    2.0131    5.3470 H         1 RES1    0.0000
     22 H9         3.0505   -0.3325   -0.6936 H         1 RES1    0.0000
     23 H10        4.8338    1.1234   -0.1098 H         1 RES1    0.0000
@<TRIPOS>BOND
     1    1    5 1
     2    2    4 1
     3    3    6 2
     4    4    5 1
     5    5    6 1
     6    6    7 1
     7    7    2 1
     8    8    4 1
     9    9    8 ar
    10   10    9 ar
    11   11   10 ar
    12   12   11 ar
    13   13    8 ar
    14   14   13 1
    15   15    7 1
    16   16    9 1
    17   17    4 1
    18   18   12 1
    19   19    1 1
    20   20    7 1
    21   21    2 1
    22   22   11 1
    23   23   10 1
    24   12   13 ar
@<TRIPOS>SUBSTRUCTURE
     1 RES1 1

@<TRIPOS>CRYSIN
   5.7340    8.9870   15.9090  90.0000  90.0000  90.0000  19 1

