# MOL2 file generated by ConQuest
# Please check atom types

@<TRIPOS>MOLECULE
EKAHEF
    42    45     1
SMALL
NO_CHARGES
****
Generated from CSD

@<TRIPOS>ATOM
      1 C1         3.5035    2.7205   21.3702 C.2       1 RES1    0.0000
      2 C2         4.0545    2.8204   19.9735 C.3       1 RES1    0.0000
      3 H1         4.8003    2.1904   19.8836 H         1 RES1    0.0000
      4 C3         4.5468    4.2268   19.5874 C.3       1 RES1    0.0000
      5 H2         4.4408    4.8201   20.3460 H         1 RES1    0.0000
      6 H3         5.4918    4.1848   19.3736 H         1 RES1    0.0000
      7 C4         3.7851    4.8056   18.3883 C.3       1 RES1    0.0000
      8 H4         4.0654    5.7026   18.1099 H         1 RES1    0.0000
      9 C5         3.6689    3.7631   17.2475 C.3       1 RES1    0.0000
     10 C6         2.4487    3.2322   18.0621 C.3       1 RES1    0.0000
     11 H5         1.6946    2.9234   17.5177 H         1 RES1    0.0000
     12 C7         2.8618    2.2911   19.1656 C.3       1 RES1    0.0000
     13 C8         2.2871    4.6409   18.6436 C.3       1 RES1    0.0000
     14 H6         1.7253    5.2289   18.1163 H         1 RES1    0.0000
     15 H7         2.0375    4.6600   19.5795 H         1 RES1    0.0000
     16 C9         3.1817    4.4136   15.9220 C.3       1 RES1    0.0000
     17 H8         2.3893    4.9292   16.0924 H         1 RES1    0.0000
     18 H9         2.9857    3.7265   15.2816 H         1 RES1    0.0000
     19 H10        3.8687    4.9872   15.5762 H         1 RES1    0.0000
     20 C10        4.8603    2.9173   16.9108 C.3       1 RES1    0.0000
     21 H11        5.1962    2.5046   17.7109 H         1 RES1    0.0000
     22 H12        5.5442    3.4679   16.5232 H         1 RES1    0.0000
     23 H13        4.6030    2.2369   16.2825 H         1 RES1    0.0000
     24 C11        2.9940    0.8512   18.7228 C.3       1 RES1    0.0000
     25 H14        2.1569    0.5476   18.3633 H         1 RES1    0.0000
     26 H15        3.2366    0.3058   19.4750 H         1 RES1    0.0000
     27 H16        3.6740    0.7848   18.0466 H         1 RES1    0.0000
     28 C12        4.2844    2.8974   22.6095 C.ar      1 RES1    0.0000
     29 C13        5.5908    3.3001   22.5801 C.ar      1 RES1    0.0000
     30 H17        5.9969    3.4603   21.7585 H         1 RES1    0.0000
     31 C14        6.3225    3.4763   23.7352 C.ar      1 RES1    0.0000
     32 H18        7.2030    3.7753   23.7032 H         1 RES1    0.0000
     33 C15        5.7121    3.1964   24.9358 C.ar      1 RES1    0.0000
     34 C16        4.4268    2.7792   25.0163 C.ar      1 RES1    0.0000
     35 H19        4.0399    2.6053   25.8442 H         1 RES1    0.0000
     36 C17        3.6951    2.6137   23.8546 C.ar      1 RES1    0.0000
     37 H20        2.8152    2.3147   23.8964 H         1 RES1    0.0000
     38 N1         2.2610    2.4551   21.4355 N.2       1 RES1    0.0000
     39 N2         6.5141    3.3283   26.1704 N.pl3     1 RES1    0.0000
     40 O1         1.7412    2.2819   20.1474 O.3       1 RES1    0.0000
     41 O2         7.6730    3.6761   26.0719 O.2       1 RES1    0.0000
     42 O3         5.9822    3.0408   27.2279 O.2       1 RES1    0.0000
@<TRIPOS>BOND
     1    1    2 1
     2    2    3 1
     3    4    2 1
     4    5    4 1
     5    6    4 1
     6    7    4 1
     7    8    7 1
     8    9    7 1
     9   10    9 1
    10   11   10 1
    11   12    2 1
    12   13    7 1
    13   14   13 1
    14   15   13 1
    15   16    9 1
    16   17   16 1
    17   18   16 1
    18   19   16 1
    19   20    9 1
    20   21   20 1
    21   22   20 1
    22   23   20 1
    23   24   12 1
    24   25   24 1
    25   26   24 1
    26   27   24 1
    27   28    1 1
    28   29   28 ar
    29   30   29 1
    30   31   29 ar
    31   32   31 1
    32   33   31 ar
    33   34   33 ar
    34   35   34 1
    35   36   28 ar
    36   37   36 1
    37   38    1 2
    38   39   33 1
    39   40   12 1
    40   41   39 2
    41   42   39 2
    42   10   12 1
    43   10   13 1
    44   34   36 ar
    45   38   40 1
@<TRIPOS>SUBSTRUCTURE
     1 RES1 1

@<TRIPOS>CRYSIN
   6.3851    7.6268   31.6718  90.0000  90.0000  90.0000  19 1

