# MOL2 file generated by ConQuest
# Please check atom types

@<TRIPOS>MOLECULE
EKAHIJ
    48    52     1
SMALL
NO_CHARGES
****
Generated from CSD

@<TRIPOS>ATOM
      1 C1        -0.2174    8.5072    1.5404 C.2       1 RES1    0.0000
      2 C2        -3.1593    8.4922    0.8127 C.3       1 RES1    0.0000
      3 H1        -2.9280    9.3676    1.1884 H         1 RES1    0.0000
      4 C3        -4.6085    8.1733    1.1191 C.3       1 RES1    0.0000
      5 H2        -5.1483    8.9596    0.9416 H         1 RES1    0.0000
      6 H3        -4.6918    7.9647    2.0630 H         1 RES1    0.0000
      7 C4        -5.1547    7.0084    0.3078 C.3       1 RES1    0.0000
      8 H4        -4.7558    6.1813    0.6223 H         1 RES1    0.0000
      9 H5        -6.1139    6.9474    0.4362 H         1 RES1    0.0000
     10 C5        -4.8540    7.1833   -1.1684 C.3       1 RES1    0.0000
     11 H6        -5.2695    7.9984   -1.4904 H         1 RES1    0.0000
     12 H7        -5.2249    6.4378   -1.6668 H         1 RES1    0.0000
     13 C6        -3.3497    7.2514   -1.3960 C.3       1 RES1    0.0000
     14 H8        -3.1695    7.3355   -2.3454 H         1 RES1    0.0000
     15 H9        -2.9376    6.4305   -1.0834 H         1 RES1    0.0000
     16 C7        -2.7416    8.4397   -0.6562 C.3       1 RES1    0.0000
     17 H10       -2.9843    9.2758   -1.1051 H         1 RES1    0.0000
     18 C8        -1.2251    8.3530   -0.4920 C.3       1 RES1    0.0000
     19 C9         0.3410    8.1323    2.8454 C.ar      1 RES1    0.0000
     20 C10        1.0996    9.0603    3.5538 C.ar      1 RES1    0.0000
     21 H11        1.2387    9.9106    3.2027 H         1 RES1    0.0000
     22 C11        1.6470    8.7223    4.7763 C.ar      1 RES1    0.0000
     23 H12        2.1733    9.3314    5.2429 H         1 RES1    0.0000
     24 C12        1.4025    7.4767    5.2889 C.ar      1 RES1    0.0000
     25 C13        0.6540    6.5414    4.6190 C.ar      1 RES1    0.0000
     26 H13        0.5006    5.7033    4.9918 H         1 RES1    0.0000
     27 C14        0.1290    6.8685    3.3772 C.ar      1 RES1    0.0000
     28 H14       -0.3647    6.2411    2.9007 H         1 RES1    0.0000
     29 C15       -0.4283    7.7746   -1.6392 C.ar      1 RES1    0.0000
     30 C16        0.0674    8.6221   -2.6275 C.ar      1 RES1    0.0000
     31 H15       -0.0959    9.5367   -2.5771 H         1 RES1    0.0000
     32 C17        0.7994    8.1137   -3.6801 C.ar      1 RES1    0.0000
     33 H16        1.1570    8.6784   -4.3272 H         1 RES1    0.0000
     34 C18        0.9893    6.7538   -3.7531 C.ar      1 RES1    0.0000
     35 C19        0.4775    5.8855   -2.8177 C.ar      1 RES1    0.0000
     36 H17        0.5967    4.9674   -2.9061 H         1 RES1    0.0000
     37 C20       -0.2164    6.4054   -1.7477 C.ar      1 RES1    0.0000
     38 H18       -0.5460    5.8349   -1.0910 H         1 RES1    0.0000
     39 N1        -0.0081    9.6518    1.0011 N.2       1 RES1    0.0000
     40 N2        -1.0048    7.5980    0.7654 N.3       1 RES1    0.0000
     41 N3         1.9448    7.1313    6.6194 N.pl3     1 RES1    0.0000
     42 N4         1.7787    6.1934   -4.8667 N.pl3     1 RES1    0.0000
     43 O1        -0.7097    9.6962   -0.2118 O.3       1 RES1    0.0000
     44 O2         2.8808    7.7957    7.0338 O.2       1 RES1    0.0000
     45 O3         1.4240    6.2178    7.2208 O.2       1 RES1    0.0000
     46 O4        -2.3187    7.4670    1.4115 O.3       1 RES1    0.0000
     47 O5         2.3682    6.9618   -5.5998 O.2       1 RES1    0.0000
     48 O6         1.7662    4.9838   -5.0214 O.2       1 RES1    0.0000
@<TRIPOS>BOND
     1    1   19 1
     2    2    3 1
     3    4    2 1
     4    5    4 1
     5    6    4 1
     6    7    4 1
     7    8    7 1
     8    9    7 1
     9   10    7 1
    10   11   10 1
    11   12   10 1
    12   13   10 1
    13   14   13 1
    14   15   13 1
    15   16    2 1
    16   17   16 1
    17   18   16 1
    18   19   20 ar
    19   20   21 1
    20   22   20 ar
    21   23   22 1
    22   24   22 ar
    23   25   24 ar
    24   26   25 1
    25   27   19 ar
    26   28   27 1
    27   29   18 1
    28   30   29 ar
    29   31   30 1
    30   32   30 ar
    31   33   32 1
    32   34   32 ar
    33   35   34 ar
    34   36   35 1
    35   37   29 ar
    36   38   37 1
    37   39    1 2
    38   40    1 1
    39   41   24 1
    40   42   34 1
    41   43   18 1
    42   44   41 2
    43   45   41 2
    44   46    2 1
    45   47   42 2
    46   48   42 2
    47   13   16 1
    48   18   40 1
    49   25   27 ar
    50   35   37 ar
    51   39   43 1
    52   40   46 1
@<TRIPOS>SUBSTRUCTURE
     1 RES1 1

@<TRIPOS>CRYSIN
   8.3174   10.9210   11.7899 103.1690 104.8570 104.6410   2 1

