# MOL2 file generated by ConQuest
# Please check atom types

@<TRIPOS>MOLECULE
EKAJAD
    33    36     1
SMALL
NO_CHARGES
****
Generated from CSD

@<TRIPOS>ATOM
      1 C1        -1.5383    3.2225    8.4764 C.2       1 RES1    0.0000
      2 C2        -1.0486    2.4139    9.6423 C.3       1 RES1    0.0000
      3 H1        -0.5524    1.6233    9.3432 H         1 RES1    0.0000
      4 C3        -0.2497    3.2134   10.6882 C.3       1 RES1    0.0000
      5 H2         0.5703    2.7512   10.9240 H         1 RES1    0.0000
      6 H3        -0.0277    4.0957   10.3533 H         1 RES1    0.0000
      7 C4        -1.1704    3.3063   11.8720 C.ar      1 RES1    0.0000
      8 C5        -0.9594    3.9615   13.0805 C.ar      1 RES1    0.0000
      9 H4        -0.1589    4.4066   13.2420 H         1 RES1    0.0000
     10 C6        -1.9478    3.9431   14.0290 C.ar      1 RES1    0.0000
     11 H5        -1.8146    4.3825   14.8377 H         1 RES1    0.0000
     12 C7        -3.1339    3.2867   13.8038 C.ar      1 RES1    0.0000
     13 H6        -3.7940    3.2878   14.4585 H         1 RES1    0.0000
     14 C8        -3.3518    2.6250   12.6123 C.ar      1 RES1    0.0000
     15 H7        -4.1512    2.1748   12.4610 H         1 RES1    0.0000
     16 C9        -2.3583    2.6420   11.6447 C.ar      1 RES1    0.0000
     17 C10       -2.3808    2.0230   10.2913 C.3       1 RES1    0.0000
     18 H8        -2.4797    1.0493   10.3457 H         1 RES1    0.0000
     19 C11       -0.6834    3.8155    7.4398 C.ar      1 RES1    0.0000
     20 C12        0.6862    3.5915    7.4575 C.ar      1 RES1    0.0000
     21 H9         1.0614    3.0991    8.1517 H         1 RES1    0.0000
     22 C13        1.4992    4.0921    6.4580 C.ar      1 RES1    0.0000
     23 H10        2.4161    3.9380    6.4745 H         1 RES1    0.0000
     24 C14        0.9326    4.8170    5.4433 C.ar      1 RES1    0.0000
     25 C15       -0.4245    5.0773    5.3964 C.ar      1 RES1    0.0000
     26 H11       -0.7890    5.5785    4.7035 H         1 RES1    0.0000
     27 C16       -1.2208    4.5788    6.3962 C.ar      1 RES1    0.0000
     28 H12       -2.1345    4.7517    6.3807 H         1 RES1    0.0000
     29 N1        -2.8104    3.3400    8.4053 N.2       1 RES1    0.0000
     30 N2         1.8043    5.3274    4.3771 N.pl3     1 RES1    0.0000
     31 O1        -3.4197    2.6206    9.4418 O.3       1 RES1    0.0000
     32 O2         2.9983    5.0659    4.4268 O.2       1 RES1    0.0000
     33 O3         1.2995    5.9892    3.4870 O.2       1 RES1    0.0000
@<TRIPOS>BOND
     1    1    2 1
     2    2    3 1
     3    4    2 1
     4    5    4 1
     5    6    4 1
     6    7    4 1
     7    8    7 ar
     8    9    8 1
     9   10    8 ar
    10   11   10 1
    11   12   10 ar
    12   13   12 1
    13   14   12 ar
    14   15   14 1
    15   16    7 ar
    16   17    2 1
    17   18   17 1
    18   19    1 1
    19   20   19 ar
    20   21   20 1
    21   22   20 ar
    22   23   22 1
    23   24   22 ar
    24   25   24 ar
    25   26   25 1
    26   27   19 ar
    27   28   27 1
    28   29    1 2
    29   30   24 1
    30   31   17 1
    31   32   30 2
    32   33   30 2
    33   14   16 ar
    34   16   17 1
    35   25   27 ar
    36   29   31 1
@<TRIPOS>SUBSTRUCTURE
     1 RES1 1

@<TRIPOS>CRYSIN
   6.9126    7.8420   12.7841 100.4000  92.5460 105.0120   2 1

