# MOL2 file generated by ConQuest
# Please check atom types

@<TRIPOS>MOLECULE
EKAQOY
    27    29     1
SMALL
NO_CHARGES
****
Generated from CSD

@<TRIPOS>ATOM
      1 N1        -0.9957    7.7084    2.2293 N.ar      1 RES1    0.0000
      2 C1        -1.2628    7.0177    1.1241 C.ar      1 RES1    0.0000
      3 C2        -1.2710    5.6238    1.0439 C.ar      1 RES1    0.0000
      4 H1        -1.4809    5.2059    0.2497 H         1 RES1    0.0000
      5 C3        -0.9957    4.9692    2.2293 C.ar      1 RES1    0.0000
      6 N2        -0.9957    3.4809    2.2293 N.pl3     1 RES1    0.0000
      7 O1        -1.2772    2.9154    1.1798 O.2       1 RES1    0.0000
      8 N3        -1.5538    7.7976   -0.0035 N.pl3     1 RES1    0.0000
      9 N4        -1.7876    7.2078   -1.2079 N.2       1 RES1    0.0000
     10 C4        -1.9634    8.2261   -2.0340 C.2       1 RES1    0.0000
     11 H2        -2.1451    8.0551   -3.0230 H         1 RES1    0.0000
     12 C5        -1.8469    9.4623   -1.3866 C.2       1 RES1    0.0000
     13 H3        -1.9053   10.3248   -1.8370 H         1 RES1    0.0000
     14 C6        -1.5859    9.1648   -0.0811 C.2       1 RES1    0.0000
     15 H4        -1.4475    9.6681    0.6420 H         1 RES1    0.0000
     16 C1A       -0.7286    7.0177    3.3345 C.ar      1 RES1    0.0000
     17 C2A       -0.7204    5.6238    3.4147 C.ar      1 RES1    0.0000
     18 H1A       -0.5104    5.2059    4.2090 H         1 RES1    0.0000
     19 O1A       -0.7141    2.9154    3.2789 O.2       1 RES1    0.0000
     20 N3A       -0.4375    7.7976    4.4621 N.pl3     1 RES1    0.0000
     21 N4A       -0.2038    7.2078    5.6666 N.2       1 RES1    0.0000
     22 C4A       -0.0280    8.2261    6.4927 C.2       1 RES1    0.0000
     23 H2A        0.1537    8.0551    7.4816 H         1 RES1    0.0000
     24 C5A       -0.1444    9.4623    5.8453 C.2       1 RES1    0.0000
     25 H3A       -0.0860   10.3248    6.2956 H         1 RES1    0.0000
     26 C6A       -0.4055    9.1648    4.5398 C.2       1 RES1    0.0000
     27 H4A       -0.5439    9.6681    3.8166 H         1 RES1    0.0000
@<TRIPOS>BOND
     1    1    2 ar
     2    2    3 ar
     3    3    4 1
     4    5    3 ar
     5    6    5 1
     6    7    6 2
     7    8    2 1
     8    9    8 1
     9   10    9 2
    10   11   10 1
    11   12   10 1
    12   13   12 1
    13   14    8 1
    14   15   14 1
    15   16    1 ar
    16   17    5 ar
    17   18   17 1
    18   19    6 2
    19   20   16 1
    20   21   20 1
    21   22   21 2
    22   23   22 1
    23   24   22 1
    24   25   24 1
    25   26   20 1
    26   27   26 1
    27   12   14 2
    28   16   17 ar
    29   24   26 2
@<TRIPOS>SUBSTRUCTURE
     1 RES1 1

@<TRIPOS>CRYSIN
  13.0420    9.6584    9.7663  90.0000 114.0670  90.0000  15 1

