# MOL2 file generated by ConQuest
# Please check atom types

@<TRIPOS>MOLECULE
EKELAH
    17    17     1
SMALL
NO_CHARGES
****
Generated from CSD

@<TRIPOS>ATOM
      1 N1         0.7280   10.6641    4.4724 N.pl3     1 RES1    0.0000
      2 N2         1.8670   10.8233    3.7436 N.2       1 RES1    0.0000
      3 N3         2.2611   13.0305    4.6365 N.3       1 RES1    0.0000
      4 H1         1.5476   13.1201    5.1082 H         1 RES1    0.0000
      5 N4         3.7352   12.1722    3.3224 N.pl3     1 RES1    0.0000
      6 N5         4.4075   11.3211    2.4800 N.pl3     1 RES1    0.0000
      7 C1         2.5243   11.9527    3.9446 C.2       1 RES1    0.0000
      8 C2         3.2784   14.0664    4.5404 C.3       1 RES1    0.0000
      9 H2         3.7001   14.2202    5.4005 H         1 RES1    0.0000
     10 H3         2.8967   14.8999    4.2233 H         1 RES1    0.0000
     11 C3         4.2599   13.5148    3.5515 C.3       1 RES1    0.0000
     12 H4         4.2689   14.0358    2.7339 H         1 RES1    0.0000
     13 H5         5.1562   13.4864    3.9214 H         1 RES1    0.0000
     14 O1         0.3752   11.4498    5.3700 O.2       1 RES1    0.0000
     15 O2         0.1045    9.6431    4.2273 O.2       1 RES1    0.0000
     16 O3         3.9644   10.2153    2.2774 O.2       1 RES1    0.0000
     17 O4         5.4383   11.7775    2.0244 O.2       1 RES1    0.0000
@<TRIPOS>BOND
     1    1    2 1
     2    2    7 2
     3    3    4 1
     4    5    6 1
     5    6   16 2
     6    7    3 1
     7    8    3 1
     8    9    8 1
     9   10    8 1
    10   11    5 1
    11   12   11 1
    12   13   11 1
    13   14    1 2
    14   15    1 2
    15   17    6 2
    16    5    7 1
    17    8   11 1
@<TRIPOS>SUBSTRUCTURE
     1 RES1 1

@<TRIPOS>CRYSIN
  12.8970   12.8970    8.0078  90.0000  90.0000  90.0000 106 1

