# MOL2 file generated by ConQuest
# Please check atom types

@<TRIPOS>MOLECULE
EKEMIQ
    33    35     1
SMALL
NO_CHARGES
****
Generated from CSD

@<TRIPOS>ATOM
      1 O1        -1.1279    2.8111    3.5717 O.3       1 RES1    0.0000
      2 O2        -1.7942    6.5762    3.8095 O.3       1 RES1    0.0000
      3 H1        -1.8185    7.3825    3.9548 H         1 RES1    0.0000
      4 O3         1.5909    7.8060    0.7822 O.3       1 RES1    0.0000
      5 O4         1.4965    3.4107    2.7720 O.3       1 RES1    0.0000
      6 N1        -1.7484    1.9852    4.5294 N.2       1 RES1    0.0000
      7 C1        -1.7998    2.7311    5.6270 C.2       1 RES1    0.0000
      8 C2        -2.3002    2.3570    6.9157 C.2       1 RES1    0.0000
      9 H2        -2.6931    1.5267    7.0615 H         1 RES1    0.0000
     10 C3        -2.1767    3.2608    7.9045 C.2       1 RES1    0.0000
     11 H3        -2.4779    3.0352    8.7549 H         1 RES1    0.0000
     12 C4        -1.6055    4.5423    7.7032 C.2       1 RES1    0.0000
     13 H4        -1.5416    5.1252    8.4247 H         1 RES1    0.0000
     14 C5        -1.1508    4.9447    6.4925 C.2       1 RES1    0.0000
     15 H5        -0.7961    5.7954    6.3667 H         1 RES1    0.0000
     16 C6        -1.2369    4.0147    5.4239 C.2       1 RES1    0.0000
     17 C7        -0.8239    4.0082    4.1117 C.2       1 RES1    0.0000
     18 C8        -0.1638    4.9775    3.2452 C.ar      1 RES1    0.0000
     19 C9        -0.6719    6.2757    3.1168 C.ar      1 RES1    0.0000
     20 C10       -0.0632    7.1984    2.2873 C.ar      1 RES1    0.0000
     21 H6        -0.4172    8.0535    2.1980 H         1 RES1    0.0000
     22 C11        1.0765    6.8382    1.5925 C.ar      1 RES1    0.0000
     23 C12        1.6304    5.5822    1.7283 C.ar      1 RES1    0.0000
     24 H7         2.4064    5.3559    1.2681 H         1 RES1    0.0000
     25 C13        1.0148    4.6667    2.5567 C.ar      1 RES1    0.0000
     26 C14        2.7958    7.4895    0.0623 C.3       1 RES1    0.0000
     27 H8         3.4962    7.2835    0.6869 H         1 RES1    0.0000
     28 H9         3.0554    8.2419   -0.4755 H         1 RES1    0.0000
     29 H10        2.6397    6.7305   -0.5046 H         1 RES1    0.0000
     30 C15        2.8083    3.1204    2.3071 C.3       1 RES1    0.0000
     31 H11        2.8111    3.1029    1.3473 H         1 RES1    0.0000
     32 H12        3.0846    2.2646    2.6418 H         1 RES1    0.0000
     33 H13        3.4150    3.7964    2.6180 H         1 RES1    0.0000
@<TRIPOS>BOND
     1    1    6 1
     2    2    3 1
     3    4   22 1
     4    5   25 1
     5    6    7 2
     6    7    8 1
     7    8    9 1
     8   10    8 2
     9   11   10 1
    10   12   10 1
    11   13   12 1
    12   14   12 2
    13   15   14 1
    14   16    7 1
    15   17    1 1
    16   18   17 1
    17   19    2 1
    18   20   19 ar
    19   21   20 1
    20   22   20 ar
    21   23   22 ar
    22   24   23 1
    23   25   18 ar
    24   26    4 1
    25   27   26 1
    26   28   26 1
    27   29   26 1
    28   30    5 1
    29   31   30 1
    30   32   30 1
    31   33   30 1
    32   14   16 1
    33   16   17 2
    34   18   19 ar
    35   23   25 ar
@<TRIPOS>SUBSTRUCTURE
     1 RES1 1

@<TRIPOS>CRYSIN
   6.9410    7.2770   26.4180  90.0000  90.0000  90.0000  19 1

