# MOL2 file generated by ConQuest
# Please check atom types

@<TRIPOS>MOLECULE
EKUMOM01
    38    37     2
SMALL
NO_CHARGES
****
Generated from CSD

@<TRIPOS>ATOM
      1 O1         8.8601    7.1016    6.8969 O.2       1 RES1    0.0000
      2 O2        10.2389    5.6086    6.2260 O.2       1 RES1    0.0000
      3 O3         9.1618    3.0093    2.1839 O.2       1 RES1    0.0000
      4 O4         7.1932    2.6170    2.0925 O.2       1 RES1    0.0000
      5 O5         5.2251    5.0044   -1.1126 O.2       1 RES1    0.0000
      6 O6         4.8953    3.0388   -0.3291 O.2       1 RES1    0.0000
      7 N1         9.1870    6.2169    6.1368 N.pl3     1 RES1    0.0000
      8 N2         8.1081    3.3821    2.3568 N.pl3     1 RES1    0.0000
      9 N3         5.7952    4.8627    1.8374 N.2       1 RES1    0.0000
     10 N4         4.5973    5.1508    1.9407 N.2       1 RES1    0.0000
     11 N5         4.6992    4.2396   -0.3337 N.pl3     1 RES1    0.0000
     12 C1         7.7417    4.5094    3.2081 C.ar      1 RES1    0.0000
     13 C2         8.6156    4.8326    4.2232 C.ar      1 RES1    0.0000
     14 H1         9.4068    4.3608    4.3488 H         1 RES1    0.0000
     15 C3         8.2688    5.8727    5.0413 C.ar      1 RES1    0.0000
     16 C4         7.1160    6.5973    4.8664 C.ar      1 RES1    0.0000
     17 H2         6.9042    7.2933    5.4453 H         1 RES1    0.0000
     18 C5         6.2760    6.2772    3.8212 C.ar      1 RES1    0.0000
     19 H3         5.5080    6.7798    3.6754 H         1 RES1    0.0000
     20 C6         6.5673    5.2099    2.9890 C.ar      1 RES1    0.0000
     21 C7         3.7808    4.8335    0.7538 C.3       1 RES1    0.0000
     22 C8         2.7434    3.8017    1.1729 C.3       1 RES1    0.0000
     23 H4         2.2918    4.1080    1.9749 H         1 RES1    0.0000
     24 H5         3.1916    2.9676    1.3819 H         1 RES1    0.0000
     25 C9         1.7146    3.5554    0.0774 C.3       1 RES1    0.0000
     26 H6         2.1439    3.1292   -0.6814 H         1 RES1    0.0000
     27 H7         1.0297    2.9533    0.4101 H         1 RES1    0.0000
     28 C10        1.0685    4.8574   -0.3709 C.3       1 RES1    0.0000
     29 H8         0.4439    4.6775   -1.0905 H         1 RES1    0.0000
     30 H9         0.5723    5.2432    0.3678 H         1 RES1    0.0000
     31 C11        2.1155    5.8453   -0.8462 C.3       1 RES1    0.0000
     32 H10        1.6840    6.6768   -1.0995 H         1 RES1    0.0000
     33 H11        2.5652    5.4895   -1.6282 H         1 RES1    0.0000
     34 C12        3.1421    6.1177    0.2563 C.3       1 RES1    0.0000
     35 H12        3.8330    6.7068   -0.0864 H         1 RES1    0.0000
     36 H13        2.7065    6.5660    0.9970 H         1 RES1    0.0000
     37 O7         8.9547    3.7222    1.4784 Du        2 SUP2    0.0000
     38 O8         7.5470    2.3681    2.3749 Du        2 SUP2    0.0000
@<TRIPOS>BOND
     1    1    7 2
     2    2    7 2
     3    3    8 2
     4    4    8 2
     5    5   11 2
     6    6   11 2
     7    7   15 1
     8    8   12 1
     9    9   10 2
    10   10   21 1
    11   11   21 1
    12   12   13 ar
    13   13   14 1
    14   15   13 ar
    15   16   15 ar
    16   17   16 1
    17   18   16 ar
    18   19   18 1
    19   20    9 1
    20   21   22 1
    21   22   23 1
    22   24   22 1
    23   25   22 1
    24   26   25 1
    25   27   25 1
    26   28   25 1
    27   29   28 1
    28   30   28 1
    29   31   28 1
    30   32   31 1
    31   33   31 1
    32   34   21 1
    33   35   34 1
    34   36   34 1
    35   12   20 ar
    36   18   20 ar
    37   31   34 1
@<TRIPOS>SUBSTRUCTURE
     1 RES1 1
     2 SUP2 37

@<TRIPOS>CRYSIN
  11.2820   13.0330   10.1620  90.0000  98.5000  90.0000  14 1

