# MOL2 file generated by ConQuest
# Please check atom types

@<TRIPOS>MOLECULE
ELAROA
    26    26     1
SMALL
NO_CHARGES
****
Generated from CSD

@<TRIPOS>ATOM
      1 O1         0.4922    1.5625    0.2139 O.2       1 RES1    0.0000
      2 O2         1.5266    3.8126    1.2197 O.3       1 RES1    0.0000
      3 N1         0.7669    2.9180    1.9843 N.am      1 RES1    0.0000
      4 H1         0.6413    3.0524    2.8240 H         1 RES1    0.0000
      5 C1        -0.6726    1.0440    2.2473 C.3       1 RES1    0.0000
      6 H2        -1.5839    1.2311    2.0114 H         1 RES1    0.0000
      7 H3        -0.5281    1.2700    3.1694 H         1 RES1    0.0000
      8 H4        -0.4920    0.1107    2.1145 H         1 RES1    0.0000
      9 C2         0.2460    1.8594    1.3816 C.2       1 RES1    0.0000
     10 C3         2.9054    3.7016    1.6062 C.3       1 RES1    0.0000
     11 H5         3.2363    2.8109    1.4112 H         1 RES1    0.0000
     12 H6         3.0000    3.8629    2.5581 H         1 RES1    0.0000
     13 C4         3.6878    4.7314    0.8235 C.3       1 RES1    0.0000
     14 H7         3.6149    4.5462   -0.1259 H         1 RES1    0.0000
     15 H8         3.3228    5.6147    0.9888 H         1 RES1    0.0000
     16 C5         5.1372    4.6938    1.2388 C.ar      1 RES1    0.0000
     17 C6         6.0330    3.8110    0.6480 C.ar      1 RES1    0.0000
     18 H9         5.7463    3.2597   -0.0441 H         1 RES1    0.0000
     19 C7         7.3484    3.7419    1.0777 C.ar      1 RES1    0.0000
     20 H10        7.9385    3.1490    0.6710 H         1 RES1    0.0000
     21 C8         7.7874    4.5521    2.1121 C.ar      1 RES1    0.0000
     22 H11        8.6683    4.5003    2.4055 H         1 RES1    0.0000
     23 C9         6.9097    5.4358    2.7031 C.ar      1 RES1    0.0000
     24 H12        7.2004    5.9846    3.3959 H         1 RES1    0.0000
     25 C10        5.5937    5.5101    2.2684 C.ar      1 RES1    0.0000
     26 H13        5.0106    6.1131    2.6706 H         1 RES1    0.0000
@<TRIPOS>BOND
     1    1    9 2
     2    2    3 1
     3    3    4 1
     4    5    6 1
     5    7    5 1
     6    8    5 1
     7    9    3 1
     8   10    2 1
     9   11   10 1
    10   12   10 1
    11   13   10 1
    12   14   13 1
    13   15   13 1
    14   16   13 1
    15   17   16 ar
    16   18   17 1
    17   19   17 ar
    18   20   19 1
    19   21   19 ar
    20   22   21 1
    21   23   21 ar
    22   24   23 1
    23   25   16 ar
    24   26   25 1
    25    5    9 1
    26   23   25 ar
@<TRIPOS>SUBSTRUCTURE
     1 RES1 1

@<TRIPOS>CRYSIN
  10.5867   11.7808    7.9426  90.0000  97.9450  90.0000  14 1

