# MOL2 file generated by ConQuest
# Please check atom types

@<TRIPOS>MOLECULE
ELENUG
    49    52     1
SMALL
NO_CHARGES
****
Generated from CSD

@<TRIPOS>ATOM
      1 O1        -0.7321    1.3159    2.8514 O.3       1 RES1    0.0000
      2 O2        -1.4167    3.6764    0.9600 O.3       1 RES1    0.0000
      3 O3        -2.7162    3.7377    2.7973 O.3       1 RES1    0.0000
      4 O4         0.8998    4.8009    4.8070 O.3       1 RES1    0.0000
      5 O5         2.0757    3.3716    6.0915 O.3       1 RES1    0.0000
      6 O6         0.9310   -0.1687    2.1302 O.3       1 RES1    0.0000
      7 O7        -0.7262   -1.6839    1.9230 O.2       1 RES1    0.0000
      8 N1         0.1250    2.3553    3.5063 N.3       1 RES1    0.0000
      9 C1         0.0140    0.8916    1.7540 C.3       1 RES1    0.0000
     10 C2         0.8592    2.0682    1.2890 C.3       1 RES1    0.0000
     11 C3         0.5668    3.1431    2.3309 C.3       1 RES1    0.0000
     12 C4        -0.5495    4.1467    1.9895 C.3       1 RES1    0.0000
     13 C5        -1.4468    4.1976    3.2486 C.3       1 RES1    0.0000
     14 C6        -0.8233    3.2139    4.2473 C.3       1 RES1    0.0000
     15 C7        -0.0848    3.9251    5.3717 C.3       1 RES1    0.0000
     16 C8         0.7142    3.0045    6.3037 C.3       1 RES1    0.0000
     17 C9         2.0638    4.7173    5.6384 C.3       1 RES1    0.0000
     18 C10        3.2997    4.9486    4.8062 C.3       1 RES1    0.0000
     19 C11        1.9437    5.6867    6.8022 C.3       1 RES1    0.0000
     20 C12       -2.7551    3.9274    1.3914 C.3       1 RES1    0.0000
     21 C13       -3.1766    5.3416    1.0544 C.3       1 RES1    0.0000
     22 C14       -3.6607    2.8882    0.7883 C.3       1 RES1    0.0000
     23 C15        0.4246   -1.4249    2.1542 C.2       1 RES1    0.0000
     24 C16        1.4801   -2.4303    2.4827 C.3       1 RES1    0.0000
     25 H1        -0.5911    0.5853    1.0190 H         1 RES1    0.0000
     26 H2         0.5879    2.3667    0.3837 H         1 RES1    0.0000
     27 H3         1.8206    1.8346    1.2768 H         1 RES1    0.0000
     28 H4         1.4086    3.6367    2.5526 H         1 RES1    0.0000
     29 H5        -0.1759    5.0487    1.7697 H         1 RES1    0.0000
     30 H6        -1.5011    5.1226    3.6257 H         1 RES1    0.0000
     31 H7        -1.5452    2.6436    4.6395 H         1 RES1    0.0000
     32 H8        -0.7354    4.4605    5.9101 H         1 RES1    0.0000
     33 H9         0.4549    3.1480    7.2472 H         1 RES1    0.0000
     34 H10        0.5650    2.0534    6.0712 H         1 RES1    0.0000
     35 H11        4.0954    4.8368    5.3663 H         1 RES1    0.0000
     36 H12        3.2816    5.8576    4.4409 H         1 RES1    0.0000
     37 H13        3.3241    4.3008    4.0707 H         1 RES1    0.0000
     38 H14        1.0982    5.5305    7.2722 H         1 RES1    0.0000
     39 H15        1.9642    6.6064    6.4643 H         1 RES1    0.0000
     40 H16        2.6916    5.5492    7.4209 H         1 RES1    0.0000
     41 H17       -4.0521    5.5256    1.4536 H         1 RES1    0.0000
     42 H18       -3.2330    5.4428    0.0811 H         1 RES1    0.0000
     43 H19       -2.5161    5.9719    1.4110 H         1 RES1    0.0000
     44 H20       -3.3219    1.9942    1.0055 H         1 RES1    0.0000
     45 H21       -3.6845    3.0002   -0.1851 H         1 RES1    0.0000
     46 H22       -4.5650    2.9914    1.1510 H         1 RES1    0.0000
     47 H23        1.1218   -3.0840    3.1193 H         1 RES1    0.0000
     48 H24        2.2514   -1.9765    2.8802 H         1 RES1    0.0000
     49 H25        1.7588   -2.8909    1.6636 H         1 RES1    0.0000
@<TRIPOS>BOND
     1    1    8 1
     2    2   12 1
     3    3   13 1
     4    4   15 1
     5    5   16 1
     6    6    9 1
     7    7   23 2
     8    8   11 1
     9    9    1 1
    10   10    9 1
    11   11   10 1
    12   12   11 1
    13   13   12 1
    14   14    8 1
    15   15   14 1
    16   16   15 1
    17   17    4 1
    18   18   17 1
    19   19   17 1
    20   20    2 1
    21   21   20 1
    22   22   20 1
    23   23    6 1
    24   24   23 1
    25   25    9 1
    26   26   10 1
    27   27   10 1
    28   28   11 1
    29   29   12 1
    30   30   13 1
    31   31   14 1
    32   32   15 1
    33   33   16 1
    34   34   16 1
    35   35   18 1
    36   36   18 1
    37   37   18 1
    38   38   19 1
    39   39   19 1
    40   40   19 1
    41   41   21 1
    42   42   21 1
    43   43   21 1
    44   44   22 1
    45   45   22 1
    46   46   22 1
    47   47   24 1
    48   48   24 1
    49   49   24 1
    50    3   20 1
    51    5   17 1
    52   13   14 1
@<TRIPOS>SUBSTRUCTURE
     1 RES1 1

@<TRIPOS>CRYSIN
   8.6080    9.8530   10.6720  90.0000 103.0180  90.0000   4 1

