# MOL2 file generated by ConQuest
# Please check atom types

@<TRIPOS>MOLECULE
ELIGOX
    27    29     1
SMALL
NO_CHARGES
****
Generated from CSD

@<TRIPOS>ATOM
      1 C1         3.1035    6.2753    6.4184 C.2       1 RES1    0.0000
      2 N1         4.0788    5.4434    6.2516 N.2       1 RES1    0.0000
      3 C2         3.7267    4.5199    5.2913 C.2       1 RES1    0.0000
      4 N2         4.4911    3.5579    4.8484 N.2       1 RES1    0.0000
      5 O1         3.7210    2.9417    3.8800 O.3       1 RES1    0.0000
      6 N3         2.4755    3.5319    3.7278 N.2       1 RES1    0.0000
      7 C3         2.4869    4.5022    4.6063 C.2       1 RES1    0.0000
      8 N4         1.4664    5.4065    4.8103 N.2       1 RES1    0.0000
      9 C4         1.8181    6.2576    5.7075 C.2       1 RES1    0.0000
     10 N5         1.0998    7.3237    6.1730 N.am      1 RES1    0.0000
     11 C5        -0.1782    7.7957    5.6929 C.3       1 RES1    0.0000
     12 H1        -0.4443    7.2716    4.9213 H         1 RES1    0.0000
     13 H2        -0.0956    8.7200    5.4128 H         1 RES1    0.0000
     14 O2        -1.1964    7.6942    6.7147 O.3       1 RES1    0.0000
     15 N6        -1.7751    6.4523    6.8418 N.pl3     1 RES1    0.0000
     16 O3        -1.2810    5.5469    6.1706 O.2       1 RES1    0.0000
     17 O4        -2.6692    6.3390    7.5657 O.2       1 RES1    0.0000
     18 C6         1.8490    8.0424    7.1171 C.2       1 RES1    0.0000
     19 O5         1.5211    9.0402    7.6864 O.2       1 RES1    0.0000
     20 N7         3.0612    7.3561    7.2613 N.am      1 RES1    0.0000
     21 C7         4.1102    7.8016    8.1560 C.3       1 RES1    0.0000
     22 H3         4.8864    7.2291    8.0491 H         1 RES1    0.0000
     23 H4         4.3714    8.7058    7.9179 H         1 RES1    0.0000
     24 O6         3.6930    7.7766    9.5195 O.3       1 RES1    0.0000
     25 N8         3.7059    6.4795   10.0976 N.pl3     1 RES1    0.0000
     26 O7         3.9097    5.5439    9.3924 O.2       1 RES1    0.0000
     27 O8         3.4998    6.5314   11.2805 O.2       1 RES1    0.0000
@<TRIPOS>BOND
     1    1    2 2
     2    2    3 1
     3    3    4 2
     4    4    5 1
     5    5    6 1
     6    6    7 2
     7    7    3 1
     8    8    7 1
     9    9    1 1
    10   10    9 1
    11   11   10 1
    12   12   11 1
    13   13   11 1
    14   14   11 1
    15   15   14 1
    16   16   15 2
    17   17   15 2
    18   18   10 1
    19   19   18 2
    20   20    1 1
    21   21   20 1
    22   22   21 1
    23   23   21 1
    24   24   21 1
    25   25   24 1
    26   26   25 2
    27   27   25 2
    28    8    9 2
    29   18   20 1
@<TRIPOS>SUBSTRUCTURE
     1 RES1 1

@<TRIPOS>CRYSIN
  12.7227   11.8045    8.1445  90.0000  96.2000  90.0000  14 1

