# MOL2 file generated by ConQuest
# Please check atom types

@<TRIPOS>MOLECULE
ELIGEN
    28    29     1
SMALL
NO_CHARGES
****
Generated from CSD

@<TRIPOS>ATOM
      1 O1         5.8405    5.7145    1.4359 O.2       1 RES1    0.0000
      2 O2         5.4517    4.7919   -0.4957 O.2       1 RES1    0.0000
      3 O3         4.6368    3.8233    1.2674 O.3       1 RES1    0.0000
      4 O4         4.6605    7.4481    6.1603 O.2       1 RES1    0.0000
      5 O5         2.5339    7.9068    6.0745 O.2       1 RES1    0.0000
      6 N1         5.3881    4.8799    0.7017 N.pl3     1 RES1    0.0000
      7 N2         3.8085    4.7299    3.3258 N.3       1 RES1    0.0000
      8 N3         4.3294    5.6666    4.1517 N.2       1 RES1    0.0000
      9 N4         3.5274    7.2756    5.7235 N.pl3     1 RES1    0.0000
     10 C1         4.6961    3.7743    2.7023 C.3       1 RES1    0.0000
     11 H1         5.5561    3.9370    3.0017 H         1 RES1    0.0000
     12 H2         4.4101    2.8680    2.8934 H         1 RES1    0.0000
     13 C2         2.4426    4.7218    3.4218 C.2       1 RES1    0.0000
     14 C3         3.3074    6.2501    4.7431 C.2       1 RES1    0.0000
     15 O1B       -1.3162    4.7147    6.3004 O.2       1 RES1    0.0000
     16 O2B       -0.9275    5.6373    8.2320 O.2       1 RES1    0.0000
     17 O3B       -0.1126    6.6059    6.4689 O.3       1 RES1    0.0000
     18 O4B       -0.1362    2.9811    1.5760 O.2       1 RES1    0.0000
     19 O5B        1.9903    2.5224    1.6618 O.2       1 RES1    0.0000
     20 N1B       -0.8639    5.5493    7.0346 N.pl3     1 RES1    0.0000
     21 N2B        0.7157    5.6993    4.4105 N.pl3     1 RES1    0.0000
     22 N3B        0.1948    4.7626    3.5846 N.2       1 RES1    0.0000
     23 N4B        0.9969    3.1536    2.0127 N.pl3     1 RES1    0.0000
     24 C1B       -0.1719    6.6549    5.0340 C.3       1 RES1    0.0000
     25 H1B       -1.0319    6.4922    4.7346 H         1 RES1    0.0000
     26 H2B        0.1141    7.5612    4.8429 H         1 RES1    0.0000
     27 C2B        2.0817    5.7074    4.3145 C.2       1 RES1    0.0000
     28 C3B        1.2168    4.1791    2.9932 C.2       1 RES1    0.0000
@<TRIPOS>BOND
     1    1    6 2
     2    2    6 2
     3    3    6 1
     4    4    9 2
     5    5    9 2
     6    7    8 1
     7    8   14 2
     8    9   14 1
     9   10    3 1
    10   11   10 1
    11   12   10 1
    12   13    7 1
    13   14   27 1
    14   15   20 2
    15   16   20 2
    16   17   20 1
    17   18   23 2
    18   19   23 2
    19   21   22 1
    20   22   28 2
    21   23   28 1
    22   24   17 1
    23   25   24 1
    24   26   24 1
    25   27   13 2
    26   28   13 1
    27    7   10 1
    28   21   24 1
    29   21   27 1
@<TRIPOS>SUBSTRUCTURE
     1 RES1 1

@<TRIPOS>CRYSIN
   7.6782   10.4292    8.3545  90.0000 112.1800  90.0000 231 1

