# MOL2 file generated by ConQuest
# Please check atom types

@<TRIPOS>MOLECULE
ELIGIR
    29    28     2
SMALL
NO_CHARGES
****
Generated from CSD

@<TRIPOS>ATOM
      1 N1        -0.4764    4.8590   -1.4809 N.2       1 RES1    0.0000
      2 O1         0.8563    5.2726   -1.6683 O.3       1 RES1    0.0000
      3 N2         1.7597    4.4116   -1.0173 N.2       1 RES1    0.0000
      4 C1         1.0054    3.5250   -0.4617 C.2       1 RES1    0.0000
      5 C2        -0.3797    3.7960   -0.7464 C.2       1 RES1    0.0000
      6 N3         1.4119    2.4338    0.2897 N.pl3     1 RES1    0.0000
      7 C3         2.8094    2.1336    0.5536 C.3       1 RES1    0.0000
      8 H1         2.9660    1.1998    0.6624 H         1 RES1    0.0000
      9 H2         3.2660    2.4756   -0.2076 H         1 RES1    0.0000
     10 N4         3.2566    3.1624    2.6366 N.pl3     1 RES1    0.0000
     11 O2         3.4101    3.3030    1.2496 O.3       1 RES1    0.0000
     12 O3         2.7742    1.9919    2.9164 O.2       1 RES1    0.0000
     13 O4         3.6627    3.9404    3.3672 O.2       1 RES1    0.0000
     14 O5         2.9963    2.0033    2.0929 Du        2 SUP2    0.0000
     15 O6         3.4877    3.2807    3.8437 Du        2 SUP2    0.0000
     16 O7         3.2264    4.2373    1.8971 Du        2 SUP2    0.0000
     17 N1B        0.4764    0.5700    1.4809 N.2       1 RES1    0.0000
     18 O1B       -0.8563    0.1564    1.6683 O.3       1 RES1    0.0000
     19 N2B       -1.7597    1.0174    1.0173 N.2       1 RES1    0.0000
     20 C1B       -1.0054    1.9040    0.4617 C.2       1 RES1    0.0000
     21 C2B        0.3797    1.6330    0.7464 C.2       1 RES1    0.0000
     22 N3B       -1.4119    2.9952   -0.2897 N.pl3     1 RES1    0.0000
     23 C3B       -2.8094    3.2954   -0.5536 C.3       1 RES1    0.0000
     24 H1B       -2.9660    4.2292   -0.6624 H         1 RES1    0.0000
     25 H2B       -3.2660    2.9534    0.2076 H         1 RES1    0.0000
     26 N4B       -3.2566    2.2666   -2.6366 N.pl3     1 RES1    0.0000
     27 O2B       -3.4101    2.1260   -1.2496 O.3       1 RES1    0.0000
     28 O3B       -2.7742    3.4371   -2.9164 O.2       1 RES1    0.0000
     29 O4B       -3.6627    1.4886   -3.3672 O.2       1 RES1    0.0000
@<TRIPOS>BOND
     1    1    2 1
     2    2    3 1
     3    3    4 2
     4    4    5 1
     5    5    1 2
     6    6    4 1
     7    7    6 1
     8    8    7 1
     9    9    7 1
    10   10   11 1
    11   11    7 1
    12   12   10 2
    13   13   10 2
    14   17   18 1
    15   18   19 1
    16   19   20 2
    17   20   21 1
    18   21    6 1
    19   22    5 1
    20   23   22 1
    21   24   23 1
    22   25   23 1
    23   26   27 1
    24   27   23 1
    25   28   26 2
    26   29   26 2
    27   17   21 2
    28   20   22 1
@<TRIPOS>SUBSTRUCTURE
     1 RES1 1
     2 SUP2 14

@<TRIPOS>CRYSIN
  10.5230    5.4290   10.2460  90.0000 105.2330  90.0000  14 1

