# MOL2 file generated by ConQuest
# Please check atom types

@<TRIPOS>MOLECULE
ELIHUC
    44    46     1
SMALL
NO_CHARGES
****
Generated from CSD

@<TRIPOS>ATOM
      1 O1         9.6532    4.6401    6.1648 O.2       1 RES1    0.0000
      2 O2        10.7308    3.3797    7.6010 O.3       1 RES1    0.0000
      3 O3         9.4738    1.8400   13.1649 O.2       1 RES1    0.0000
      4 O4        11.0412    1.0809   12.0007 O.2       1 RES1    0.0000
      5 O5         9.5735   -1.6402    7.9137 O.2       1 RES1    0.0000
      6 O6         6.8176   -1.4025    4.2873 O.2       1 RES1    0.0000
      7 N1         7.8445    1.2247    4.7575 N.pl3     1 RES1    0.0000
      8 H1         7.3173    1.1912    4.0801 H         1 RES1    0.0000
      9 N2         9.9437    1.5220   12.1010 N.pl3     1 RES1    0.0000
     10 N3         8.1485   -1.8883    6.1189 N.am      1 RES1    0.0000
     11 H2         8.0220   -2.7368    6.1719 H         1 RES1    0.0000
     12 C1         8.4345    2.3569    5.1319 C.2       1 RES1    0.0000
     13 C2         9.2292    2.4045    6.2043 C.2       1 RES1    0.0000
     14 C3         9.5064    1.2653    7.1612 C.3       1 RES1    0.0000
     15 H3        10.4721    1.1155    7.2302 H         1 RES1    0.0000
     16 C4         8.9507   -1.1908    7.0004 C.2       1 RES1    0.0000
     17 C5         7.5832   -1.1234    5.1729 C.2       1 RES1    0.0000
     18 C6         8.8781    0.1328    6.5376 C.2       1 RES1    0.0000
     19 C7         8.1127    0.1640    5.4771 C.2       1 RES1    0.0000
     20 C8         8.0826    3.4184    4.2095 C.3       1 RES1    0.0000
     21 H4         8.4669    4.2453    4.5105 H         1 RES1    0.0000
     22 H5         7.1271    3.5051    4.1707 H         1 RES1    0.0000
     23 H6         8.4200    3.2076    3.3357 H         1 RES1    0.0000
     24 C9         9.8585    3.5964    6.6153 C.2       1 RES1    0.0000
     25 C10       11.2983    4.4749    8.3025 C.3       1 RES1    0.0000
     26 H7        11.5134    5.1952    7.6736 H         1 RES1    0.0000
     27 C11       10.2849    4.9495    9.2875 C.3       1 RES1    0.0000
     28 H8         9.5039    5.2563    8.8204 H         1 RES1    0.0000
     29 H9        10.6532    5.6718    9.8021 H         1 RES1    0.0000
     30 H10       10.0453    4.2282    9.8733 H         1 RES1    0.0000
     31 C12       12.5465    3.9734    8.9434 C.3       1 RES1    0.0000
     32 H11       12.3307    3.2623    9.5518 H         1 RES1    0.0000
     33 H12       12.9695    4.6886    9.4234 H         1 RES1    0.0000
     34 H13       13.1442    3.6453    8.2669 H         1 RES1    0.0000
     35 C13        8.9267    1.5338    8.5356 C.ar      1 RES1    0.0000
     36 C14        9.6916    1.3669    9.6705 C.ar      1 RES1    0.0000
     37 H14       10.5668    1.0583    9.6090 H         1 RES1    0.0000
     38 C15        9.1434    1.6632   10.8863 C.ar      1 RES1    0.0000
     39 C16        7.8708    2.1004   11.0438 C.ar      1 RES1    0.0000
     40 H15        7.5319    2.2978   11.8864 H         1 RES1    0.0000
     41 C17        7.0994    2.2410    9.9186 C.ar      1 RES1    0.0000
     42 H16        6.2191    2.5309    9.9941 H         1 RES1    0.0000
     43 C18        7.6247    1.9542    8.6683 C.ar      1 RES1    0.0000
     44 H17        7.0916    2.0480    7.9131 H         1 RES1    0.0000
@<TRIPOS>BOND
     1    1   24 2
     2    2   24 1
     3    3    9 2
     4    4    9 2
     5    5   16 2
     6    6   17 2
     7    7    8 1
     8    9   38 1
     9   10   11 1
    10   12    7 1
    11   13   12 2
    12   14   13 1
    13   15   14 1
    14   16   10 1
    15   17   10 1
    16   18   14 1
    17   19    7 1
    18   20   12 1
    19   21   20 1
    20   22   20 1
    21   23   20 1
    22   24   13 1
    23   25    2 1
    24   26   25 1
    25   27   25 1
    26   28   27 1
    27   29   27 1
    28   30   27 1
    29   31   25 1
    30   32   31 1
    31   33   31 1
    32   34   31 1
    33   35   14 1
    34   36   35 ar
    35   37   36 1
    36   38   36 ar
    37   39   38 ar
    38   40   39 1
    39   41   39 ar
    40   42   41 1
    41   43   35 ar
    42   44   43 1
    43   16   18 1
    44   17   19 1
    45   18   19 2
    46   41   43 ar
@<TRIPOS>SUBSTRUCTURE
     1 RES1 1

@<TRIPOS>CRYSIN
   8.5550    9.4450   11.3220  83.7600  72.5200  77.1800   2 1

