# MOL2 file generated by ConQuest
# Please check atom types

@<TRIPOS>MOLECULE
ELUDOF
    34    35     1
SMALL
NO_CHARGES
****
Generated from CSD

@<TRIPOS>ATOM
      1 O1        -7.7873    4.0968   15.0125 O.3       1 RES1    0.0000
      2 N1        -2.7176    1.1904    9.6335 N.pl3     1 RES1    0.0000
      3 C1        -4.9569    2.7544   12.2790 C.ar      1 RES1    0.0000
      4 O2        -5.7051    2.1890    8.8175 O.2       1 RES1    0.0000
      5 C2        -4.6634    3.7236   13.2513 C.ar      1 RES1    0.0000
      6 H1        -3.7792    4.0670   13.3162 H         1 RES1    0.0000
      7 O3        -2.8410    0.5518    8.5805 O.2       1 RES1    0.0000
      8 C3        -5.6346    4.1870   14.1143 C.ar      1 RES1    0.0000
      9 H2        -5.4277    4.8738   14.7369 H         1 RES1    0.0000
     10 O4        -1.6319    1.4667   10.1315 O.2       1 RES1    0.0000
     11 C4        -6.9206    3.6466   14.0713 C.ar      1 RES1    0.0000
     12 C5        -7.2413    2.6865   13.1079 C.ar      1 RES1    0.0000
     13 H3        -8.1217    2.3310   13.0613 H         1 RES1    0.0000
     14 C6        -6.2660    2.2561   12.2208 C.ar      1 RES1    0.0000
     15 H4        -6.4889    1.6104   11.5603 H         1 RES1    0.0000
     16 C7        -3.8767    2.2929   11.4225 C.2       1 RES1    0.0000
     17 H5        -2.9975    2.5057   11.7152 H         1 RES1    0.0000
     18 C8        -3.9569    1.6079   10.2750 C.2       1 RES1    0.0000
     19 C9        -5.1813    1.2847    9.4372 C.2       1 RES1    0.0000
     20 C10       -5.7145   -0.0923    9.4335 C.ar      1 RES1    0.0000
     21 C11       -5.3377   -1.0110   10.4091 C.ar      1 RES1    0.0000
     22 H6        -4.6880   -0.7730   11.0604 H         1 RES1    0.0000
     23 C12       -5.9105   -2.2750   10.4288 C.ar      1 RES1    0.0000
     24 H7        -5.6668   -2.8962   11.1041 H         1 RES1    0.0000
     25 C13       -6.8363   -2.6296    9.4644 C.ar      1 RES1    0.0000
     26 H8        -7.2292   -3.4953    9.4820 H         1 RES1    0.0000
     27 C14       -7.1974   -1.7288    8.4718 C.ar      1 RES1    0.0000
     28 H9        -7.8212   -1.9832    7.8021 H         1 RES1    0.0000
     29 C15       -6.6455   -0.4565    8.4586 C.ar      1 RES1    0.0000
     30 H10       -6.9016    0.1659    7.7881 H         1 RES1    0.0000
     31 C16       -9.0644    3.4413   15.0963 C.3       1 RES1    0.0000
     32 H11       -9.5676    3.8021   15.8563 H         1 RES1    0.0000
     33 H12       -8.9299    2.4783   15.2213 H         1 RES1    0.0000
     34 H13       -9.5673    3.5967   14.2694 H         1 RES1    0.0000
@<TRIPOS>BOND
     1    1   11 1
     2    2    7 2
     3    3    5 ar
     4    4   19 2
     5    5    6 1
     6    8    5 ar
     7    9    8 1
     8   10    2 2
     9   11    8 ar
    10   12   11 ar
    11   13   12 1
    12   14    3 ar
    13   15   14 1
    14   16    3 1
    15   17   16 1
    16   18    2 1
    17   19   18 1
    18   20   19 1
    19   21   20 ar
    20   22   21 1
    21   23   21 ar
    22   24   23 1
    23   25   23 ar
    24   26   25 1
    25   27   25 ar
    26   28   27 1
    27   29   20 ar
    28   30   29 1
    29   31    1 1
    30   32   31 1
    31   33   31 1
    32   34   31 1
    33   12   14 ar
    34   16   18 2
    35   27   29 ar
@<TRIPOS>SUBSTRUCTURE
     1 RES1 1

@<TRIPOS>CRYSIN
  24.2340    8.0518   17.7830  90.0000 127.6450  90.0000  15 1

