# MOL2 file generated by ConQuest
# Please check atom types

@<TRIPOS>MOLECULE
ELUDEV
    22    23     1
SMALL
NO_CHARGES
****
Generated from CSD

@<TRIPOS>ATOM
      1 O1         4.8727    3.5698    5.7359 O.3       1 RES1    0.0000
      2 O2         1.5423    1.5247    6.4026 O.2       1 RES1    0.0000
      3 O3         0.7502    1.3579    8.3964 O.2       1 RES1    0.0000
      4 N1         3.7118    2.8627    6.0584 N.2       1 RES1    0.0000
      5 N2         5.3389    4.2660    6.8023 N.2       1 RES1    0.0000
      6 N3         2.4550    2.6678    8.0531 N.pl3     1 RES1    0.0000
      7 H1         2.4135    2.6397    8.9513 H         1 RES1    0.0000
      8 N4         1.5253    1.7758    7.5726 N.pl3     1 RES1    0.0000
      9 N5         4.7310    4.6549    8.9908 N.2       1 RES1    0.0000
     10 C1         4.5077    4.0303    7.7663 C.2       1 RES1    0.0000
     11 C2         3.4954    3.1483    7.3008 C.2       1 RES1    0.0000
     12 O1B        3.6954    5.4952   13.0733 O.3       1 RES1    0.0000
     13 O2B        7.0257    7.5403   12.4065 O.2       1 RES1    0.0000
     14 O3B        7.8178    7.7071   10.4127 O.2       1 RES1    0.0000
     15 N1B        4.8562    6.2023   12.7507 N.2       1 RES1    0.0000
     16 N2B        3.2291    4.7990   12.0068 N.2       1 RES1    0.0000
     17 N3B        6.1130    6.3972   10.7560 N.pl3     1 RES1    0.0000
     18 H1B        6.1545    6.4253    9.8579 H         1 RES1    0.0000
     19 N4B        7.0428    7.2892   11.2366 N.pl3     1 RES1    0.0000
     20 N5B        3.8371    4.4101    9.8184 N.2       1 RES1    0.0000
     21 C1B        4.0604    5.0347   11.0429 C.2       1 RES1    0.0000
     22 C2B        5.0726    5.9167   11.5084 C.2       1 RES1    0.0000
@<TRIPOS>BOND
     1    1    4 1
     2    2    8 2
     3    3    8 2
     4    4   11 2
     5    5    1 1
     6    6    7 1
     7    8    6 1
     8    9   10 1
     9   10    5 2
    10   11    6 1
    11   12   15 1
    12   13   19 2
    13   14   19 2
    14   15   22 2
    15   16   12 1
    16   17   18 1
    17   19   17 1
    18   20    9 2
    19   21   16 2
    20   22   17 1
    21   10   11 1
    22   20   21 1
    23   21   22 1
@<TRIPOS>SUBSTRUCTURE
     1 RES1 1

@<TRIPOS>CRYSIN
   5.5840    9.0650    9.4940  90.0000  97.8700  90.0000  14 1

