# MOL2 file generated by ConQuest
# Please check atom types

@<TRIPOS>MOLECULE
ELUMUV
    46    49     1
SMALL
NO_CHARGES
****
Generated from CSD

@<TRIPOS>ATOM
      1 O1         6.6061    4.2814    2.5234 O.2       1 RES1    0.0000
      2 O2         7.6029    2.6404    1.5822 O.2       1 RES1    0.0000
      3 N1         1.2692    5.0991    4.9530 N.ar      1 RES1    0.0000
      4 N2         2.5515    6.3260    1.4797 N.1       1 RES1    0.0000
      5 N3         3.8170    4.5692    4.2118 N.2       1 RES1    0.0000
      6 N4         4.1070    3.9669    3.1712 N.2       1 RES1    0.0000
      7 N5         6.7238    3.0926    2.2924 N.pl3     1 RES1    0.0000
      8 C1         0.2105    5.1736    5.7704 C.ar      1 RES1    0.0000
      9 C2        -0.6384    3.9390    5.8720 C.3       1 RES1    0.0000
     10 H1        -0.1248    3.2401    6.3063 H         1 RES1    0.0000
     11 H2        -0.8542    3.6327    4.9770 H         1 RES1    0.0000
     12 C3        -1.9325    4.1549    6.6457 C.3       1 RES1    0.0000
     13 H3        -2.5855    4.5757    6.0647 H         1 RES1    0.0000
     14 H4        -2.2870    3.2951    6.9193 H         1 RES1    0.0000
     15 C4        -1.7309    5.0059    7.8509 C.3       1 RES1    0.0000
     16 H5        -1.0751    4.5941    8.4347 H         1 RES1    0.0000
     17 H6        -2.5657    5.0797    8.3407 H         1 RES1    0.0000
     18 C5        -1.2593    6.3774    7.4476 C.3       1 RES1    0.0000
     19 H7        -1.0203    6.8789    8.2430 H         1 RES1    0.0000
     20 H8        -1.9854    6.8459    7.0067 H         1 RES1    0.0000
     21 C6        -0.0682    6.3250    6.5197 C.ar      1 RES1    0.0000
     22 C7         0.7939    7.3888    6.3894 C.ar      1 RES1    0.0000
     23 H9         0.6207    8.1705    6.8619 H         1 RES1    0.0000
     24 C8         1.9162    7.3301    5.5732 C.ar      1 RES1    0.0000
     25 C9         2.8914    8.4789    5.4903 C.3       1 RES1    0.0000
     26 H10        3.3799    8.5374    6.3261 H         1 RES1    0.0000
     27 H11        2.3949    9.3056    5.3794 H         1 RES1    0.0000
     28 C10        3.8832    8.3433    4.3499 C.3       1 RES1    0.0000
     29 H12        3.4485    8.5741    3.5142 H         1 RES1    0.0000
     30 H13        4.6190    8.9594    4.4862 H         1 RES1    0.0000
     31 C11        4.4181    6.9263    4.2672 C.3       1 RES1    0.0000
     32 H14        4.8335    6.6869    5.1105 H         1 RES1    0.0000
     33 H15        5.0947    6.8764    3.5743 H         1 RES1    0.0000
     34 C12        3.2909    5.9361    3.9530 C.3       1 RES1    0.0000
     35 C13        2.0959    6.1448    4.8808 C.ar      1 RES1    0.0000
     36 C14        2.8601    6.1130    2.5458 C.1       1 RES1    0.0000
     37 C15        4.5656    2.6313    3.4112 C.ar      1 RES1    0.0000
     38 C16        5.7717    2.1627    2.8982 C.ar      1 RES1    0.0000
     39 C17        6.1296    0.8403    2.9999 C.ar      1 RES1    0.0000
     40 H16        6.9409    0.5467    2.6511 H         1 RES1    0.0000
     41 C18        5.2833   -0.0432    3.6185 C.ar      1 RES1    0.0000
     42 H17        5.5141   -0.9418    3.6843 H         1 RES1    0.0000
     43 C19        4.0938    0.4001    4.1412 C.ar      1 RES1    0.0000
     44 H18        3.5250   -0.2006    4.5671 H         1 RES1    0.0000
     45 C20        3.7330    1.7268    4.0425 C.ar      1 RES1    0.0000
     46 H19        2.9250    2.0145    4.4035 H         1 RES1    0.0000
@<TRIPOS>BOND
     1    1    7 2
     2    2    7 2
     3    3    8 ar
     4    4   36 3
     5    5    6 2
     6    6   37 1
     7    7   38 1
     8    8    9 1
     9    9   10 1
    10   11    9 1
    11   12    9 1
    12   13   12 1
    13   14   12 1
    14   15   12 1
    15   16   15 1
    16   17   15 1
    17   18   15 1
    18   19   18 1
    19   20   18 1
    20   21    8 ar
    21   22   21 ar
    22   23   22 1
    23   24   22 ar
    24   25   24 1
    25   26   25 1
    26   27   25 1
    27   28   25 1
    28   29   28 1
    29   30   28 1
    30   31   28 1
    31   32   31 1
    32   33   31 1
    33   34    5 1
    34   35    3 ar
    35   36   34 1
    36   37   38 ar
    37   38   39 ar
    38   39   40 1
    39   41   39 ar
    40   42   41 1
    41   43   41 ar
    42   44   43 1
    43   45   37 ar
    44   46   45 1
    45   18   21 1
    46   24   35 ar
    47   31   34 1
    48   34   35 1
    49   43   45 ar
@<TRIPOS>SUBSTRUCTURE
     1 RES1 1

@<TRIPOS>CRYSIN
  15.8978   12.2313    9.7569  90.0000 105.5190  90.0000  14 1

