# MOL2 file generated by ConQuest
# Please check atom types

@<TRIPOS>MOLECULE
ELUROT
    57    55     2
SMALL
NO_CHARGES
****
Generated from CSD

@<TRIPOS>ATOM
      1 O1        -2.7575    2.3935    5.2126 O.2       1 RES1    0.0000
      2 O2        -1.2602   -0.4150    0.2705 O.2       1 RES1    0.0000
      3 O3         2.3443    6.7978    4.8051 O.3       1 RES1    0.0000
      4 N1        -3.1834    2.4305    4.0130 N.3       1 RES1    0.0000
      5 N2        -1.1034    0.8154   -0.1085 N.3       1 RES1    0.0000
      6 C1        -2.1902    2.5542    2.9788 C.ar      1 RES1    0.0000
      7 C2        -2.1480    1.6510    1.9249 C.ar      1 RES1    0.0000
      8 C3        -1.1650    1.7909    0.9586 C.ar      1 RES1    0.0000
      9 C4        -0.2125    2.7962    1.0550 C.ar      1 RES1    0.0000
     10 C5        -0.2345    3.6964    2.1254 C.ar      1 RES1    0.0000
     11 C6        -1.2292    3.5623    3.0938 C.ar      1 RES1    0.0000
     12 C7         0.7783    4.7890    2.2185 C.ar      1 RES1    0.0000
     13 C8         1.3351    5.3499    1.0638 C.ar      1 RES1    0.0000
     14 C9         2.2083    6.4071    1.1558 C.ar      1 RES1    0.0000
     15 C10        2.5745    6.9334    2.3883 C.ar      1 RES1    0.0000
     16 C11        2.0523    6.3748    3.5332 C.ar      1 RES1    0.0000
     17 C12        1.1683    5.3001    3.4433 C.ar      1 RES1    0.0000
     18 C13       -4.6312    2.7425    3.8377 C.3       1 RES1    0.0000
     19 C14       -4.9397    3.9890    4.6309 C.3       1 RES1    0.0000
     20 C15       -5.4077    1.5902    4.3493 C.3       1 RES1    0.0000
     21 C16       -4.9997    3.0462    2.3883 C.3       1 RES1    0.0000
     22 C17       -1.6371    1.1664   -1.4812 C.3       1 RES1    0.0000
     23 C18       -1.1213    2.5325   -1.9139 C.3       1 RES1    0.0000
     24 C19       -3.1582    1.1697   -1.3694 C.3       1 RES1    0.0000
     25 C20       -1.1859    0.1198   -2.4770 C.3       1 RES1    0.0000
     26 C21        3.1502    7.9499    4.9574 C.3       1 RES1    0.0000
     27 H1        -2.7757    0.8947    1.8624 H         1 RES1    0.0000
     28 H2         0.4643    2.8464    0.4054 H         1 RES1    0.0000
     29 H3        -1.2893    4.1773    3.8673 H         1 RES1    0.0000
     30 H4         1.0749    5.0041    0.1972 H         1 RES1    0.0000
     31 H5         2.4923    6.8090    0.4054 H         1 RES1    0.0000
     32 H6         3.1529    7.6177    2.4212 H         1 RES1    0.0000
     33 H7         0.8833    4.9835    4.2069 H         1 RES1    0.0000
     34 H8        -1.7278    3.2052   -1.6269 H         1 RES1    0.0000
     35 H9        -1.0456    2.5579   -2.8605 H         1 RES1    0.0000
     36 H10       -0.2695    2.6871   -1.5239 H         1 RES1    0.0000
     37 H11       -3.4922    0.3013   -1.5623 H         1 RES1    0.0000
     38 H12       -3.5197    1.7924   -1.9884 H         1 RES1    0.0000
     39 H13       -3.4105    1.4176   -0.4875 H         1 RES1    0.0000
     40 H14       -0.3516    0.3771   -2.8495 H         1 RES1    0.0000
     41 H15       -1.8322    0.0416   -3.1683 H         1 RES1    0.0000
     42 H16       -1.0916   -0.7157   -2.0355 H         1 RES1    0.0000
     43 H17        4.0641    7.6939    4.9935 H         1 RES1    0.0000
     44 H18        2.9141    8.3970    5.7615 H         1 RES1    0.0000
     45 H19        3.0132    8.5318    4.2190 H         1 RES1    0.0000
     46 H20       -5.5581    0.9709    3.6438 H         1 RES1    0.0000
     47 H21       -6.2420    1.8940    4.6857 H         1 RES1    0.0000
     48 H22       -4.9208    1.1645    5.0450 H         1 RES1    0.0000
     49 H23       -5.2094    3.7521    5.5073 H         1 RES1    0.0000
     50 H24       -5.6343    4.4764    4.2036 H         1 RES1    0.0000
     51 H25       -4.1586    4.5354    4.6780 H         1 RES1    0.0000
     52 H26       -4.9142    3.9783    2.2284 H         1 RES1    0.0000
     53 H27       -5.8973    2.7783    2.2262 H         1 RES1    0.0000
     54 H28       -4.4177    2.5693    1.8077 H         1 RES1    0.0000
     55 C22       -4.7010    4.2080    4.1521 Du        2 SUP2    0.0000
     56 C23       -5.3397    2.0916    5.0395 Du        2 SUP2    0.0000
     57 C24       -5.0268    2.0597    2.5198 Du        2 SUP2    0.0000
@<TRIPOS>BOND
     1    1    4 1
     2    2    5 1
     3    3   16 1
     4    4    6 1
     5    5    8 1
     6    6    7 ar
     7    7    8 ar
     8    8    9 ar
     9    9   10 ar
    10   10   11 ar
    11   11    6 ar
    12   12   10 1
    13   13   12 ar
    14   14   13 ar
    15   15   14 ar
    16   16   15 ar
    17   17   12 ar
    18   18    4 1
    19   19   18 1
    20   20   18 1
    21   21   18 1
    22   22    5 1
    23   23   22 1
    24   24   22 1
    25   25   22 1
    26   26    3 1
    27   27    7 1
    28   28    9 1
    29   29   11 1
    30   30   13 1
    31   31   14 1
    32   32   15 1
    33   33   17 1
    34   34   23 1
    35   35   23 1
    36   36   23 1
    37   37   24 1
    38   38   24 1
    39   39   24 1
    40   40   25 1
    41   41   25 1
    42   42   25 1
    43   43   26 1
    44   44   26 1
    45   45   26 1
    46   46   20 1
    47   47   20 1
    48   48   20 1
    49   49   19 1
    50   50   19 1
    51   51   19 1
    52   52   21 1
    53   53   21 1
    54   54   21 1
    55   16   17 ar
@<TRIPOS>SUBSTRUCTURE
     1 RES1 1
     2 SUP2 55

@<TRIPOS>CRYSIN
   9.7470   10.2190   11.1390  83.4800 100.0800 114.4600   2 1

