# MOL2 file generated by ConQuest
# Please check atom types

@<TRIPOS>MOLECULE
ELUREJ
    53    54     1
SMALL
NO_CHARGES
****
Generated from CSD

@<TRIPOS>ATOM
      1 O1        -3.2022    1.2562    4.6184 O.2       1 RES1    0.0000
      2 O2        -1.1804   -0.4632    0.3636 O.2       1 RES1    0.0000
      3 N1        -3.2031    2.4107    4.0439 N.3       1 RES1    0.0000
      4 N2        -1.0892    0.7646   -0.0221 N.3       1 RES1    0.0000
      5 C1        -2.2212    2.5765    2.9936 C.ar      1 RES1    0.0000
      6 C2        -2.1131    1.5985    2.0235 C.ar      1 RES1    0.0000
      7 C3        -1.1628    1.7542    1.0186 C.ar      1 RES1    0.0000
      8 C4        -0.2945    2.8414    1.0313 C.ar      1 RES1    0.0000
      9 C5        -0.3824    3.8109    2.0214 C.ar      1 RES1    0.0000
     10 C6        -1.3712    3.6773    2.9999 C.ar      1 RES1    0.0000
     11 C7         0.5832    4.9490    2.0805 C.ar      1 RES1    0.0000
     12 C8         1.1898    5.4417    0.9227 C.ar      1 RES1    0.0000
     13 C9         2.0782    6.5093    0.9986 C.ar      1 RES1    0.0000
     14 C10        2.3672    7.1045    2.2038 C.ar      1 RES1    0.0000
     15 C11        1.7758    6.6291    3.3838 C.ar      1 RES1    0.0000
     16 C12        0.8938    5.5507    3.2962 C.ar      1 RES1    0.0000
     17 C13       -4.5298    3.1125    3.9036 C.3       1 RES1    0.0000
     18 C14       -4.3114    4.5646    3.5251 C.3       1 RES1    0.0000
     19 C15       -5.2865    3.0020    5.2027 C.3       1 RES1    0.0000
     20 C16       -5.3028    2.4153    2.7996 C.3       1 RES1    0.0000
     21 C17       -1.7169    1.0799   -1.3560 C.3       1 RES1    0.0000
     22 C18       -1.3589    2.4973   -1.7968 C.3       1 RES1    0.0000
     23 C19       -3.2273    0.9391   -1.1631 C.3       1 RES1    0.0000
     24 C20       -1.2157    0.0876   -2.3810 C.3       1 RES1    0.0000
     25 C21        2.0896    7.2627    4.7040 C.3       1 RES1    0.0000
     26 H1        -2.6766    0.8520    2.0035 H         1 RES1    0.0000
     27 H2         0.3881    2.8828    0.4218 H         1 RES1    0.0000
     28 H3        -1.4655    4.3051    3.6484 H         1 RES1    0.0000
     29 H4         1.0145    5.0855    0.0527 H         1 RES1    0.0000
     30 H5         2.4801    6.8212    0.2003 H         1 RES1    0.0000
     31 H6         2.9866    7.8160    2.2671 H         1 RES1    0.0000
     32 H7         0.5102    5.1990    4.0913 H         1 RES1    0.0000
     33 H8        -3.9561    4.9557    4.2389 H         1 RES1    0.0000
     34 H9        -5.1626    5.0428    3.5114 H         1 RES1    0.0000
     35 H10       -3.7358    4.7085    2.7205 H         1 RES1    0.0000
     36 H11       -5.4307    2.0723    5.4727 H         1 RES1    0.0000
     37 H12       -6.1053    3.4818    5.1352 H         1 RES1    0.0000
     38 H13       -4.7826    3.3939    5.9050 H         1 RES1    0.0000
     39 H14       -4.8230    2.4964    1.9191 H         1 RES1    0.0000
     40 H15       -6.1996    2.8846    2.6572 H         1 RES1    0.0000
     41 H16       -5.3956    1.4542    3.0790 H         1 RES1    0.0000
     42 H17       -1.7516    3.1758   -1.2021 H         1 RES1    0.0000
     43 H18       -1.8075    2.6011   -2.6783 H         1 RES1    0.0000
     44 H19       -0.3712    2.6755   -1.8664 H         1 RES1    0.0000
     45 H20       -3.4482    0.0133   -0.8752 H         1 RES1    0.0000
     46 H21       -3.7164    1.1937   -1.9824 H         1 RES1    0.0000
     47 H22       -3.4758    1.6198   -0.5167 H         1 RES1    0.0000
     48 H23       -0.1793    0.2102   -2.4991 H         1 RES1    0.0000
     49 H24       -1.7067    0.2684   -3.2267 H         1 RES1    0.0000
     50 H25       -1.4106   -0.8164   -2.0984 H         1 RES1    0.0000
     51 H26        2.8920    6.9139    5.0087 H         1 RES1    0.0000
     52 H27        1.4426    7.0511    5.3461 H         1 RES1    0.0000
     53 H28        2.1262    8.2433    4.5975 H         1 RES1    0.0000
@<TRIPOS>BOND
     1    1    3 1
     2    2    4 1
     3    3    5 1
     4    4    7 1
     5    5    6 ar
     6    6    7 ar
     7    7    8 ar
     8    8    9 ar
     9    9   10 ar
    10   10    5 ar
    11   11    9 1
    12   12   11 ar
    13   13   12 ar
    14   14   13 ar
    15   15   14 ar
    16   16   11 ar
    17   17    3 1
    18   18   17 1
    19   19   17 1
    20   20   17 1
    21   21    4 1
    22   22   21 1
    23   23   21 1
    24   24   21 1
    25   25   15 1
    26   26    6 1
    27   27    8 1
    28   28   10 1
    29   29   12 1
    30   30   13 1
    31   31   14 1
    32   32   16 1
    33   33   18 1
    34   34   18 1
    35   35   18 1
    36   36   19 1
    37   37   19 1
    38   38   19 1
    39   39   20 1
    40   40   20 1
    41   41   20 1
    42   42   22 1
    43   43   22 1
    44   44   22 1
    45   45   23 1
    46   46   23 1
    47   47   23 1
    48   48   24 1
    49   49   24 1
    50   50   24 1
    51   51   25 1
    52   52   25 1
    53   53   25 1
    54   15   16 ar
@<TRIPOS>SUBSTRUCTURE
     1 RES1 1

@<TRIPOS>CRYSIN
   9.2411   10.3875   11.7540 110.6210  96.4720 112.3610   2 1

