# MOL2 file generated by ConQuest
# Please check atom types

@<TRIPOS>MOLECULE
ELUWUE
    60    63     1
SMALL
NO_CHARGES
****
Generated from CSD

@<TRIPOS>ATOM
      1 O1         5.5257    7.2919   14.0625 O.2       1 RES1    0.0000
      2 O2         6.9285    8.8572   13.5393 O.2       1 RES1    0.0000
      3 O3         5.7335    7.4226    6.9121 O.2       1 RES1    0.0000
      4 O4         5.9942    1.5280    2.0167 O.2       1 RES1    0.0000
      5 O5         6.5285    3.5821    9.8488 O.2       1 RES1    0.0000
      6 O6         7.3546    2.9098   11.8083 O.3       1 RES1    0.0000
      7 N1         6.1969    7.9231   13.2498 N.pl3     1 RES1    0.0000
      8 N2         5.4749    5.2220    7.4537 N.am      1 RES1    0.0000
      9 N3         6.2185    1.7205    4.2354 N.am      1 RES1    0.0000
     10 C1         6.0934    7.5495   11.8247 C.ar      1 RES1    0.0000
     11 C2         7.0676    7.9691   10.9453 C.ar      1 RES1    0.0000
     12 C3         6.9397    7.6188    9.6184 C.ar      1 RES1    0.0000
     13 C4         5.8791    6.8400    9.1990 C.ar      1 RES1    0.0000
     14 C5         4.9312    6.4148   10.1167 C.ar      1 RES1    0.0000
     15 C6         5.0298    6.7782   11.4413 C.ar      1 RES1    0.0000
     16 C7         5.7012    6.5315    7.7383 C.2       1 RES1    0.0000
     17 C8         5.2346    4.7096    6.1585 C.ar      1 RES1    0.0000
     18 C9         5.7992    3.4710    5.8062 C.ar      1 RES1    0.0000
     19 C10        5.6088    2.9584    4.5059 C.ar      1 RES1    0.0000
     20 C11        4.8477    3.6684    3.5907 C.ar      1 RES1    0.0000
     21 C12        4.2749    4.8658    3.9750 C.ar      1 RES1    0.0000
     22 C13        4.4499    5.3956    5.2364 C.ar      1 RES1    0.0000
     23 C14        6.4307    1.0984    3.0513 C.2       1 RES1    0.0000
     24 C15        7.2455   -0.1586    3.0943 C.ar      1 RES1    0.0000
     25 C16        7.5941   -0.7216    1.8720 C.ar      1 RES1    0.0000
     26 C17        8.3918   -1.8494    1.8227 C.ar      1 RES1    0.0000
     27 C18        8.8495   -2.4147    2.9747 C.ar      1 RES1    0.0000
     28 C19        8.5170   -1.8788    4.2027 C.ar      1 RES1    0.0000
     29 C20        7.7055   -0.7498    4.2587 C.ar      1 RES1    0.0000
     30 C21        6.5683    2.7359    6.7636 C.1       1 RES1    0.0000
     31 C22        7.1723    2.1395    7.6081 C.1       1 RES1    0.0000
     32 C23        7.8905    1.3413    8.5627 C.ar      1 RES1    0.0000
     33 C24        8.6035    0.2404    8.0868 C.ar      1 RES1    0.0000
     34 C25        9.2923   -0.5901    8.9442 C.ar      1 RES1    0.0000
     35 C26        9.2853   -0.3284   10.2922 C.ar      1 RES1    0.0000
     36 C27        8.6011    0.7597   10.7913 C.ar      1 RES1    0.0000
     37 C28        7.8942    1.6168    9.9443 C.ar      1 RES1    0.0000
     38 C29        7.1784    2.7954   10.4894 C.2       1 RES1    0.0000
     39 C30        6.7291    4.0540   12.4206 C.3       1 RES1    0.0000
     40 H1         7.7992    8.4798   11.2415 H         1 RES1    0.0000
     41 H2         7.5789    7.9122    8.9948 H         1 RES1    0.0000
     42 H3         4.2162    5.8748    9.8322 H         1 RES1    0.0000
     43 H4         4.3826    6.5031   12.0655 H         1 RES1    0.0000
     44 H5         4.7225    3.3394    2.7187 H         1 RES1    0.0000
     45 H6         3.7465    5.3348    3.3547 H         1 RES1    0.0000
     46 H7         4.0451    6.2119    5.4708 H         1 RES1    0.0000
     47 H8         7.2840   -0.3341    1.0734 H         1 RES1    0.0000
     48 H9         8.6196   -2.2268    0.9934 H         1 RES1    0.0000
     49 H10        9.3970   -3.1775    2.9321 H         1 RES1    0.0000
     50 H11        8.8360   -2.2736    4.9934 H         1 RES1    0.0000
     51 H12        7.4687   -0.3863    5.0921 H         1 RES1    0.0000
     52 H13        8.6140    0.0610    7.1641 H         1 RES1    0.0000
     53 H14        9.7646   -1.3298    8.6082 H         1 RES1    0.0000
     54 H15        9.7489   -0.8974   10.8802 H         1 RES1    0.0000
     55 H16        8.6116    0.9283   11.7162 H         1 RES1    0.0000
     56 H17        7.1010    4.1912   13.3056 H         1 RES1    0.0000
     57 H18        5.7737    3.8993   12.4922 H         1 RES1    0.0000
     58 H19        6.8896    4.8403   11.8762 H         1 RES1    0.0000
     59 H20        5.7035    4.6720    8.0868 H         1 RES1    0.0000
     60 H21        6.5528    1.3880    4.9068 H         1 RES1    0.0000
@<TRIPOS>BOND
     1    1    7 2
     2    2    7 2
     3    3   16 2
     4    4   23 2
     5    5   38 2
     6    6   38 1
     7    7   10 1
     8    8   16 1
     9    9   19 1
    10   10   11 ar
    11   11   12 ar
    12   12   13 ar
    13   13   14 ar
    14   14   15 ar
    15   15   10 ar
    16   16   13 1
    17   17    8 1
    18   18   17 ar
    19   19   18 ar
    20   20   19 ar
    21   21   20 ar
    22   22   17 ar
    23   23    9 1
    24   24   23 1
    25   25   24 ar
    26   26   25 ar
    27   27   26 ar
    28   28   27 ar
    29   29   24 ar
    30   30   18 1
    31   31   30 3
    32   32   31 1
    33   33   32 ar
    34   34   33 ar
    35   35   34 ar
    36   36   35 ar
    37   37   32 ar
    38   38   37 1
    39   39    6 1
    40   40   11 1
    41   41   12 1
    42   42   14 1
    43   43   15 1
    44   44   20 1
    45   45   21 1
    46   46   22 1
    47   47   25 1
    48   48   26 1
    49   49   27 1
    50   50   28 1
    51   51   29 1
    52   52   33 1
    53   53   34 1
    54   54   35 1
    55   55   36 1
    56   56   39 1
    57   57   39 1
    58   58   39 1
    59   59    8 1
    60   60    9 1
    61   21   22 ar
    62   28   29 ar
    63   36   37 ar
@<TRIPOS>SUBSTRUCTURE
     1 RES1 1

@<TRIPOS>CRYSIN
   8.2637   12.0452   13.7503  76.7680  80.8170  69.6910   2 1

