# MOL2 file generated by ConQuest
# Please check atom types

@<TRIPOS>MOLECULE
EMANUC
   105   110     1
SMALL
NO_CHARGES
****
Generated from CSD

@<TRIPOS>ATOM
      1 O1         8.6341    6.3172   27.3285 O.2       1 RES1    0.0000
      2 O2         9.5318    8.3454   27.8402 O.3       1 RES1    0.0000
      3 O3        11.8928    8.3136   25.0830 O.2       1 RES1    0.0000
      4 O4         9.9039   10.7942   23.7127 O.3       1 RES1    0.0000
      5 O5         7.7520    9.6818   22.2660 O.3       1 RES1    0.0000
      6 O6         6.3535    7.6375   24.1811 O.3       1 RES1    0.0000
      7 O7         9.1073    5.3120   23.0382 O.3       1 RES1    0.0000
      8 N1         9.1593    7.8417   25.7080 N.am      1 RES1    0.0000
      9 N2        11.1747    9.2027   25.6817 N.pl3     1 RES1    0.0000
     10 C1         9.7092    9.1354   25.3694 C.3       1 RES1    0.0000
     11 H1         9.2432    9.8233   25.9073 H         1 RES1    0.0000
     12 C2         9.4931    9.4506   23.8972 C.3       1 RES1    0.0000
     13 H2        10.0567    8.8531   23.3454 H         1 RES1    0.0000
     14 C3         8.0322    9.2111   23.5757 C.3       1 RES1    0.0000
     15 H3         7.4768    9.7170   24.2203 H         1 RES1    0.0000
     16 C4         7.7094    7.7277   23.7086 C.3       1 RES1    0.0000
     17 H4         7.7568    7.3159   22.8101 H         1 RES1    0.0000
     18 C5         8.6450    6.9566   24.6470 C.3       1 RES1    0.0000
     19 H5         8.0833    6.2797   25.1025 H         1 RES1    0.0000
     20 C6         9.0763    7.4075   27.0096 C.2       1 RES1    0.0000
     21 C7         9.5615    8.1419   29.3157 C.3       1 RES1    0.0000
     22 C8        10.2299    9.4201   29.7631 C.3       1 RES1    0.0000
     23 H6         9.7557   10.1801   29.3921 H         1 RES1    0.0000
     24 H7        11.1491    9.4299   29.4549 H         1 RES1    0.0000
     25 H8        10.2153    9.4714   30.7322 H         1 RES1    0.0000
     26 C9         8.1489    8.0234   29.8307 C.3       1 RES1    0.0000
     27 H9         7.7185    7.2560   29.4217 H         1 RES1    0.0000
     28 H10        7.6556    8.8274   29.6099 H         1 RES1    0.0000
     29 H11        8.1644    7.9073   30.7949 H         1 RES1    0.0000
     30 C10       10.4023    6.9371   29.6712 C.3       1 RES1    0.0000
     31 H12       11.2604    6.9982   29.2223 H         1 RES1    0.0000
     32 H13        9.9454    6.1294   29.3884 H         1 RES1    0.0000
     33 H14       10.5400    6.9114   30.6325 H         1 RES1    0.0000
     34 C11       11.5996   10.1337   26.4847 C.2       1 RES1    0.0000
     35 H15       10.9558   10.7325   26.8154 H         1 RES1    0.0000
     36 C12       12.9684   10.3390   26.9199 C.ar      1 RES1    0.0000
     37 C13       14.0472    9.5264   26.5736 C.ar      1 RES1    0.0000
     38 H16       13.9223    8.8042   25.9848 H         1 RES1    0.0000
     39 C14       15.3002    9.7867   27.0949 C.ar      1 RES1    0.0000
     40 H17       16.0215    9.2246   26.8745 H         1 RES1    0.0000
     41 C15       15.5054   10.8608   27.9377 C.ar      1 RES1    0.0000
     42 H18       16.3635   11.0282   28.2847 H         1 RES1    0.0000
     43 C16       14.4649   11.6807   28.2680 C.ar      1 RES1    0.0000
     44 H19       14.6108   12.4188   28.8310 H         1 RES1    0.0000
     45 C17       13.1991   11.4302   27.7749 C.ar      1 RES1    0.0000
     46 H20       12.4860   11.9935   28.0152 H         1 RES1    0.0000
     47 C18       10.5117   11.0795   22.4461 C.3       1 RES1    0.0000
     48 H21        9.8259   11.3593   21.8060 H         1 RES1    0.0000
     49 H22       10.9467   10.2730   22.0976 H         1 RES1    0.0000
     50 C19       11.5285   12.1744   22.6119 C.ar      1 RES1    0.0000
     51 C20       11.5577   13.2534   21.7580 C.ar      1 RES1    0.0000
     52 H23       10.9212   13.3157   21.0677 H         1 RES1    0.0000
     53 C21       12.5097   14.2517   21.8990 C.ar      1 RES1    0.0000
     54 H24       12.5252   14.9788   21.3039 H         1 RES1    0.0000
     55 C22       13.4089   14.1747   22.8913 C.ar      1 RES1    0.0000
     56 H25       14.0481   14.8554   22.9947 H         1 RES1    0.0000
     57 C23       13.4025   13.1080   23.7577 C.ar      1 RES1    0.0000
     58 H26       14.0381   13.0603   24.4491 H         1 RES1    0.0000
     59 C24       12.4678   12.1096   23.6163 C.ar      1 RES1    0.0000
     60 H27       12.4696   11.3801   24.2092 H         1 RES1    0.0000
     61 C25        6.4518   10.2498   22.1334 C.3       1 RES1    0.0000
     62 H28        6.4573   11.1687   22.4742 H         1 RES1    0.0000
     63 H29        5.8108    9.7305   22.6624 H         1 RES1    0.0000
     64 C26        6.0342   10.2510   20.6970 C.ar      1 RES1    0.0000
     65 C27        6.4272    9.2686   19.8221 C.ar      1 RES1    0.0000
     66 H30        7.0108    8.5940   20.1189 H         1 RES1    0.0000
     67 C28        5.9813    9.2515   18.5091 C.ar      1 RES1    0.0000
     68 H31        6.2777    8.5867   17.9151 H         1 RES1    0.0000
     69 C29        5.1104   10.2058   18.0930 C.ar      1 RES1    0.0000
     70 H32        4.8140   10.2107   17.2026 H         1 RES1    0.0000
     71 C30        4.6718   11.1418   18.9487 C.ar      1 RES1    0.0000
     72 H33        4.0334   11.7687   18.6608 H         1 RES1    0.0000
     73 C31        5.1432   11.2005   20.2526 C.ar      1 RES1    0.0000
     74 H34        4.8551   11.8860   20.8277 H         1 RES1    0.0000
     75 C32        5.6968    6.4080   23.8341 C.3       1 RES1    0.0000
     76 H35        4.9590    6.2515   24.4602 H         1 RES1    0.0000
     77 H36        6.3315    5.6675   23.9249 H         1 RES1    0.0000
     78 C33        5.1560    6.4202   22.4321 C.ar      1 RES1    0.0000
     79 C34        5.6648    5.6247   21.4424 C.ar      1 RES1    0.0000
     80 H37        6.3834    5.0479   21.6288 H         1 RES1    0.0000
     81 C35        5.1268    5.6601   20.1592 C.ar      1 RES1    0.0000
     82 H38        5.4761    5.1066   19.4840 H         1 RES1    0.0000
     83 C36        4.0790    6.5143   19.8819 C.ar      1 RES1    0.0000
     84 H39        3.7179    6.5521   19.0152 H         1 RES1    0.0000
     85 C37        3.5711    7.2975   20.8691 C.ar      1 RES1    0.0000
     86 H40        2.8498    7.8719   20.6838 H         1 RES1    0.0000
     87 C38        4.1009    7.2560   22.1272 C.ar      1 RES1    0.0000
     88 H41        3.7407    7.8083   22.7990 H         1 RES1    0.0000
     89 C39        9.7502    6.1880   23.9460 C.3       1 RES1    0.0000
     90 H42       10.3448    6.8027   23.4672 H         1 RES1    0.0000
     91 H43       10.2810    5.6809   24.5968 H         1 RES1    0.0000
     92 C40       10.0074    4.4858   22.3187 C.3       1 RES1    0.0000
     93 H44       10.4433    3.8553   22.9282 H         1 RES1    0.0000
     94 H45       10.7005    5.0345   21.8946 H         1 RES1    0.0000
     95 C41        9.2460    3.7404   21.2788 C.ar      1 RES1    0.0000
     96 C42        8.4444    2.6932   21.6166 C.ar      1 RES1    0.0000
     97 H46        8.3878    2.4256   22.5148 H         1 RES1    0.0000
     98 C43        7.7167    2.0199   20.6631 C.ar      1 RES1    0.0000
     99 H47        7.1659    1.2989   20.9089 H         1 RES1    0.0000
    100 C44        7.7997    2.4097   19.3463 C.ar      1 RES1    0.0000
    101 H48        7.2890    1.9808   18.6829 H         1 RES1    0.0000
    102 C45        8.6368    3.4276   19.0292 C.ar      1 RES1    0.0000
    103 H49        8.7362    3.6744   18.1292 H         1 RES1    0.0000
    104 C46        9.3371    4.1009   19.9842 C.ar      1 RES1    0.0000
    105 H50        9.8879    4.8219   19.7387 H         1 RES1    0.0000
@<TRIPOS>BOND
     1    1   20 2
     2    2   20 1
     3    3    9 1
     4    4   12 1
     5    5   14 1
     6    6   16 1
     7    7   89 1
     8    8   10 1
     9    9   10 1
    10   10   11 1
    11   12   10 1
    12   13   12 1
    13   14   12 1
    14   15   14 1
    15   16   14 1
    16   17   16 1
    17   18    8 1
    18   19   18 1
    19   20    8 1
    20   21    2 1
    21   22   21 1
    22   23   22 1
    23   24   22 1
    24   25   22 1
    25   26   21 1
    26   27   26 1
    27   28   26 1
    28   29   26 1
    29   30   21 1
    30   31   30 1
    31   32   30 1
    32   33   30 1
    33   34    9 2
    34   35   34 1
    35   36   34 1
    36   37   36 ar
    37   38   37 1
    38   39   37 ar
    39   40   39 1
    40   41   39 ar
    41   42   41 1
    42   43   41 ar
    43   44   43 1
    44   45   36 ar
    45   46   45 1
    46   47    4 1
    47   48   47 1
    48   49   47 1
    49   50   47 1
    50   51   50 ar
    51   52   51 1
    52   53   51 ar
    53   54   53 1
    54   55   53 ar
    55   56   55 1
    56   57   55 ar
    57   58   57 1
    58   59   50 ar
    59   60   59 1
    60   61    5 1
    61   62   61 1
    62   63   61 1
    63   64   61 1
    64   65   64 ar
    65   66   65 1
    66   67   65 ar
    67   68   67 1
    68   69   67 ar
    69   70   69 1
    70   71   69 ar
    71   72   71 1
    72   73   64 ar
    73   74   73 1
    74   75    6 1
    75   76   75 1
    76   77   75 1
    77   78   75 1
    78   79   78 ar
    79   80   79 1
    80   81   79 ar
    81   82   81 1
    82   83   81 ar
    83   84   83 1
    84   85   83 ar
    85   86   85 1
    86   87   78 ar
    87   88   87 1
    88   89   18 1
    89   90   89 1
    90   91   89 1
    91   92    7 1
    92   93   92 1
    93   94   92 1
    94   95   92 1
    95   96   95 ar
    96   97   96 1
    97   98   96 ar
    98   99   98 1
    99  100   98 ar
   100  101  100 1
   101  102  100 ar
   102  103  102 1
   103  104   95 ar
   104  105  104 1
   105   16   18 1
   106   43   45 ar
   107   57   59 ar
   108   71   73 ar
   109   85   87 ar
   110  102  104 ar
@<TRIPOS>SUBSTRUCTURE
     1 RES1 1

@<TRIPOS>CRYSIN
   9.1192   12.2196   36.9155  90.0000  90.0000  90.0000  19 1

