# MOL2 file generated by ConQuest
# Please check atom types

@<TRIPOS>MOLECULE
EMAQEQ
    31    31     1
SMALL
NO_CHARGES
****
Generated from CSD

@<TRIPOS>ATOM
      1 O1         1.8467    0.9373    8.3415 O.3       1 RES1    0.0000
      2 C1         5.9896    0.8365    8.6280 C.ar      1 RES1    0.0000
      3 O2         2.9486    2.0941   10.3200 O.3       1 RES1    0.0000
      4 C2         3.2113    0.8698    8.3490 C.ar      1 RES1    0.0000
      5 C3         3.8243    1.5096    9.4461 C.ar      1 RES1    0.0000
      6 C4         5.1868    1.4939    9.5826 C.ar      1 RES1    0.0000
      7 N1         8.0798    1.2683    9.7211 N.2       1 RES1    0.0000
      8 O3         9.4533    0.9448    9.5963 O.3       1 RES1    0.0000
      9 C5         5.3761    0.2276    7.5523 C.ar      1 RES1    0.0000
     10 C6         3.9972    0.2462    7.4018 C.ar      1 RES1    0.0000
     11 C7         3.4905    2.7190   11.4757 C.3       1 RES1    0.0000
     12 C8         7.4389    0.7435    8.7646 C.2       1 RES1    0.0000
     13 C9         1.1403    0.1943    7.3411 C.3       1 RES1    0.0000
     14 C10       10.2091    1.5730   10.6253 C.3       1 RES1    0.0000
     15 C11        1.2023    0.8254    6.0237 C.1       1 RES1    0.0000
     16 C12       11.5824    1.1259   10.4333 C.1       1 RES1    0.0000
     17 C13       12.6676    0.7282   10.2363 C.1       1 RES1    0.0000
     18 C14        1.2199    1.3375    4.9740 C.1       1 RES1    0.0000
     19 H1         3.6016   -0.1811    6.6567 H         1 RES1    0.0000
     20 H2         5.6096    1.9430   10.3138 H         1 RES1    0.0000
     21 H3         1.4934   -0.7122    7.2902 H         1 RES1    0.0000
     22 H4         5.9339   -0.2552    6.9111 H         1 RES1    0.0000
     23 H5         7.9082    0.2388    8.0605 H         1 RES1    0.0000
     24 H6         0.2058    0.1564    7.6430 H         1 RES1    0.0000
     25 H7         9.8941    1.2761   11.4920 H         1 RES1    0.0000
     26 H8         2.7041    3.0710   11.9216 H         1 RES1    0.0000
     27 H9         4.0836    3.4579   11.2329 H         1 RES1    0.0000
     28 H10       10.1425    2.5523   10.4746 H         1 RES1    0.0000
     29 H11        3.9616    2.0336   12.0392 H         1 RES1    0.0000
     30 H12       13.5354    0.4075   10.0786 H         1 RES1    0.0000
     31 H13        1.2044    1.7660    4.1898 H         1 RES1    0.0000
@<TRIPOS>BOND
     1    1    4 1
     2    2    6 ar
     3    3    5 1
     4    4    5 ar
     5    5    6 ar
     6    6   20 1
     7    7    8 1
     8    8   14 1
     9    9    2 ar
    10   10    4 ar
    11   11    3 1
    12   12    2 1
    13   13    1 1
    14   14   16 1
    15   15   13 1
    16   16   17 3
    17   17   30 1
    18   18   15 3
    19   19   10 1
    20   21   13 1
    21   22    9 1
    22   23   12 1
    23   24   13 1
    24   25   14 1
    25   26   11 1
    26   27   11 1
    27   28   14 1
    28   29   11 1
    29   31   18 1
    30    7   12 2
    31    9   10 ar
@<TRIPOS>SUBSTRUCTURE
     1 RES1 1

@<TRIPOS>CRYSIN
  25.8440    4.1166   24.1090  90.0000  95.5310  90.0000  15 1

