# MOL2 file generated by ConQuest
# Please check atom types

@<TRIPOS>MOLECULE
EMAWUL
    32    33     1
SMALL
NO_CHARGES
****
Generated from CSD

@<TRIPOS>ATOM
      1 H1         3.5326    0.8938   18.9366 H         1 RES1    0.0000
      2 N1         4.0504    4.1196   13.1556 N.2       1 RES1    0.0000
      3 C1         3.8211    3.4308   15.2784 C.ar      1 RES1    0.0000
      4 O1         3.4895    0.4330   18.0967 O.3       1 RES1    0.0000
      5 N2         4.7972    8.0082    9.1690 N.pl3     1 RES1    0.0000
      6 N3         4.0003    4.4969   14.3591 N.2       1 RES1    0.0000
      7 C2         4.4570    5.6900    9.8750 C.ar      1 RES1    0.0000
      8 H2         4.4737    5.4289    8.9829 H         1 RES1    0.0000
      9 C3         4.5963    7.4524   11.5513 C.ar      1 RES1    0.0000
     10 H3         4.7116    8.3521   11.7584 H         1 RES1    0.0000
     11 C4         3.5613    1.4412   17.2156 C.ar      1 RES1    0.0000
     12 C5         3.7823    3.7738   16.6167 C.ar      1 RES1    0.0000
     13 H4         3.8414    4.6691   16.8603 H         1 RES1    0.0000
     14 C6         4.2423    5.1696   12.2170 C.ar      1 RES1    0.0000
     15 C7         4.4060    6.5198   12.5464 C.ar      1 RES1    0.0000
     16 H5         4.3867    6.7872   13.4366 H         1 RES1    0.0000
     17 C8         3.6884    2.0791   14.9043 C.ar      1 RES1    0.0000
     18 H6         3.6888    1.8463   14.0041 H         1 RES1    0.0000
     19 C9         4.2774    4.7654   10.8830 C.ar      1 RES1    0.0000
     20 H7         4.1791    3.8654   10.6719 H         1 RES1    0.0000
     21 O2         4.7250    7.6316    8.0101 O.2       1 RES1    0.0000
     22 C10        4.6119    7.0181   10.2311 C.ar      1 RES1    0.0000
     23 C11        3.6544    2.7950   17.6129 C.ar      1 RES1    0.0000
     24 C12        3.5599    1.1094   15.8553 C.ar      1 RES1    0.0000
     25 H8         3.4700    0.2205   15.5990 H         1 RES1    0.0000
     26 O3         5.0119    9.1727    9.4826 O.2       1 RES1    0.0000
     27 O4         3.6130    2.2410   19.8919 O.2       1 RES1    0.0000
     28 C13        3.6383    3.1427   19.0493 C.2       1 RES1    0.0000
     29 C14        3.6377    4.5673   19.4729 C.3       1 RES1    0.0000
     30 H9         3.6278    4.6156   20.4320 H         1 RES1    0.0000
     31 H10        2.8589    5.0047   19.1222 H         1 RES1    0.0000
     32 H11        4.4262    5.0010   19.1383 H         1 RES1    0.0000
@<TRIPOS>BOND
     1    1    4 1
     2    2    6 2
     3    3    6 1
     4    4   11 1
     5    5   21 2
     6    7    8 1
     7    9   10 1
     8   11   23 ar
     9   12    3 ar
    10   13   12 1
    11   14    2 1
    12   15    9 ar
    13   16   15 1
    14   17    3 ar
    15   18   17 1
    16   19    7 ar
    17   20   19 1
    18   22    5 1
    19   23   12 ar
    20   24   11 ar
    21   25   24 1
    22   26    5 2
    23   27   28 2
    24   28   23 1
    25   29   28 1
    26   30   29 1
    27   31   29 1
    28   32   29 1
    29    7   22 ar
    30    9   22 ar
    31   14   15 ar
    32   14   19 ar
    33   17   24 ar
@<TRIPOS>SUBSTRUCTURE
     1 RES1 1

@<TRIPOS>CRYSIN
  12.8640    7.3264   26.9330  90.0000  93.0520  90.0000  15 1

