# MOL2 file generated by ConQuest
# Please check atom types

@<TRIPOS>MOLECULE
EMAZUO
    19    20     1
SMALL
NO_CHARGES
****
Generated from CSD

@<TRIPOS>ATOM
      1 N1         0.8465    2.8325    5.1176 N.pl3     1 RES1    0.0000
      2 H1         0.2268    3.5812    5.4772 H         1 RES1    0.0000
      3 O1        -1.5908    4.1772    1.8585 O.2       1 RES1    0.0000
      4 O2        -1.1546    4.2585    3.9780 O.2       1 RES1    0.0000
      5 N2         1.7633    2.1637    5.8371 N.2       1 RES1    0.0000
      6 N3        -0.9412    3.8479    2.8367 N.pl3     1 RES1    0.0000
      7 C1         0.1381    2.8944    2.6836 C.ar      1 RES1    0.0000
      8 C2         1.9019    1.5294    3.6444 C.ar      1 RES1    0.0000
      9 C3         1.4218    1.3896    1.3292 C.ar      1 RES1    0.0000
     10 H2         1.5903    1.0265    0.4895 H         1 RES1    0.0000
     11 C4         0.8869    2.4872    3.7964 C.ar      1 RES1    0.0000
     12 O3         4.0944   -0.0457    4.5804 O.2       1 RES1    0.0000
     13 C5         2.3765    1.3969    4.9625 C.2       1 RES1    0.0000
     14 N4         3.4513    0.5531    5.4308 N.pl3     1 RES1    0.0000
     15 C6         2.1706    0.9763    2.3915 C.ar      1 RES1    0.0000
     16 H3         2.8426    0.3422    2.2843 H         1 RES1    0.0000
     17 O4         3.6527    0.4869    6.6384 O.2       1 RES1    0.0000
     18 C7         0.4138    2.3376    1.4632 C.ar      1 RES1    0.0000
     19 H4        -0.0783    2.5952    0.7177 H         1 RES1    0.0000
@<TRIPOS>BOND
     1    1    2 1
     2    3    6 2
     3    4    6 2
     4    5    1 1
     5    6    7 1
     6    7   11 ar
     7    8   11 ar
     8    9   10 1
     9   11    1 1
    10   12   14 2
    11   13    5 2
    12   14   13 1
    13   15    8 ar
    14   16   15 1
    15   17   14 2
    16   18    7 ar
    17   19   18 1
    18    8   13 1
    19    9   15 ar
    20    9   18 ar
@<TRIPOS>SUBSTRUCTURE
     1 RES1 1

@<TRIPOS>CRYSIN
   4.9853   12.2645   13.2653  90.0000  90.0000  90.0000  19 1

