# MOL2 file generated by ConQuest
# Please check atom types

@<TRIPOS>MOLECULE
EMIGOY
    52    54     1
SMALL
NO_CHARGES
****
Generated from CSD

@<TRIPOS>ATOM
      1 C1         4.4644    8.1566    8.8971 C.ar      1 RES1    0.0000
      2 C2         3.9116    6.9973    8.3762 C.ar      1 RES1    0.0000
      3 H1         2.9780    6.8448    8.4576 H         1 RES1    0.0000
      4 C3         4.7078    6.0628    7.7414 C.ar      1 RES1    0.0000
      5 H2         4.3330    5.2719    7.3697 H         1 RES1    0.0000
      6 C4         6.0613    6.3116    7.6627 C.ar      1 RES1    0.0000
      7 C5         6.6419    7.4418    8.1917 C.ar      1 RES1    0.0000
      8 H3         7.5796    7.5774    8.1280 H         1 RES1    0.0000
      9 C6         5.8387    8.3781    8.8198 C.ar      1 RES1    0.0000
     10 H4         6.2193    9.1625    9.1942 H         1 RES1    0.0000
     11 C7         3.5543    9.1598    9.5211 C.2       1 RES1    0.0000
     12 C8         3.4185   11.2572   10.6320 C.3       1 RES1    0.0000
     13 H5         2.9828   10.9152   11.4527 H         1 RES1    0.0000
     14 H6         2.7124   11.5584   10.0081 H         1 RES1    0.0000
     15 C9         4.3346   12.4274   10.9820 C.3       1 RES1    0.0000
     16 C10        4.7902   13.2656    9.7720 C.3       1 RES1    0.0000
     17 H7         5.3469   14.0134   10.1342 H         1 RES1    0.0000
     18 C11        3.5822   13.9071    9.0938 C.3       1 RES1    0.0000
     19 H8         3.0134   13.1918    8.7126 H         1 RES1    0.0000
     20 H9         3.8999   14.4703    8.3437 H         1 RES1    0.0000
     21 C12        2.7312   14.7666   10.0284 C.3       1 RES1    0.0000
     22 H10        3.0444   15.7036    9.9701 H         1 RES1    0.0000
     23 H11        1.7930   14.7450    9.7137 H         1 RES1    0.0000
     24 C13        2.7651   14.3387   11.4622 C.2       1 RES1    0.0000
     25 H12        2.2303   14.8111   12.0889 H         1 RES1    0.0000
     26 C14        3.5069   13.3290   11.8976 C.2       1 RES1    0.0000
     27 C15        3.8228   12.9594   13.2758 C.2       1 RES1    0.0000
     28 C16        4.9072   12.1779   13.2948 C.2       1 RES1    0.0000
     29 H13        5.2840   11.8156   14.0870 H         1 RES1    0.0000
     30 C17        5.4650   11.9380   11.9207 C.3       1 RES1    0.0000
     31 H14        5.6551   10.9767   11.7769 H         1 RES1    0.0000
     32 H15        6.2963   12.4561   11.7783 H         1 RES1    0.0000
     33 C18        5.6630   12.5172    8.7601 C.3       1 RES1    0.0000
     34 H16        5.1177   11.8568    8.2826 H         1 RES1    0.0000
     35 H17        6.3913   12.0601    9.2308 H         1 RES1    0.0000
     36 H18        6.0396   13.1553    8.1185 H         1 RES1    0.0000
     37 C19        3.0439   13.4605   14.4532 C.2       1 RES1    0.0000
     38 C20        1.5972   12.7905   14.5699 C.3       1 RES1    0.0000
     39 H19        1.6869   11.8158   14.5644 H         1 RES1    0.0000
     40 H20        1.0440   13.0735   13.8116 H         1 RES1    0.0000
     41 H21        1.1721   13.0742   15.4068 H         1 RES1    0.0000
     42 C21        3.4728   14.3043   15.2657 C.2       1 RES1    0.0000
     43 H22        2.8994   14.5427   15.9847 H         1 RES1    0.0000
     44 C22        4.7638   14.9506   15.2115 C.3       1 RES1    0.0000
     45 H23        5.2456   14.6513   14.4125 H         1 RES1    0.0000
     46 H24        5.2799   14.7166   16.0118 H         1 RES1    0.0000
     47 H25        4.6413   15.9225   15.1749 H         1 RES1    0.0000
     48 N1         6.9220    5.3317    6.9668 N.pl3     1 RES1    0.0000
     49 O1         2.3551    9.0448    9.5482 O.2       1 RES1    0.0000
     50 O2         4.2106   10.2025   10.0133 O.3       1 RES1    0.0000
     51 O3         6.3967    4.3289    6.5151 O.2       1 RES1    0.0000
     52 O4         8.1194    5.5717    6.8848 O.2       1 RES1    0.0000
@<TRIPOS>BOND
     1    1    2 ar
     2    2    3 1
     3    4    2 ar
     4    5    4 1
     5    6    4 ar
     6    7    6 ar
     7    8    7 1
     8    9    1 ar
     9   10    9 1
    10   11    1 1
    11   12   13 1
    12   14   12 1
    13   15   12 1
    14   16   15 1
    15   17   16 1
    16   18   16 1
    17   19   18 1
    18   20   18 1
    19   21   18 1
    20   22   21 1
    21   23   21 1
    22   24   21 1
    23   25   24 1
    24   26   15 1
    25   27   26 1
    26   28   27 2
    27   29   28 1
    28   30   15 1
    29   31   30 1
    30   32   30 1
    31   33   16 1
    32   34   33 1
    33   35   33 1
    34   36   33 1
    35   37   27 1
    36   38   37 1
    37   39   38 1
    38   40   38 1
    39   41   38 1
    40   42   37 2
    41   43   42 1
    42   44   42 1
    43   45   44 1
    44   46   44 1
    45   47   44 1
    46   48    6 1
    47   49   11 2
    48   50   11 1
    49   51   48 2
    50   52   48 2
    51    7    9 ar
    52   12   50 1
    53   24   26 2
    54   28   30 1
@<TRIPOS>SUBSTRUCTURE
     1 RES1 1

@<TRIPOS>CRYSIN
   6.8007   10.8026   14.4909  69.4450  88.4710  82.1260   2 1

