# MOL2 file generated by ConQuest
# Please check atom types

@<TRIPOS>MOLECULE
EMIPOG
    38    38     1
SMALL
NO_CHARGES
****
Generated from CSD

@<TRIPOS>ATOM
      1 C1        -1.2932    9.3358    7.8707 C.2       1 RES1    0.0000
      2 C2        -2.3741    9.9165    6.9808 C.3       1 RES1    0.0000
      3 H1        -1.9574   10.2164    6.1454 H         1 RES1    0.0000
      4 C3        -3.1189   11.0817    7.5829 C.3       1 RES1    0.0000
      5 H2        -3.4974   10.8130    8.4352 H         1 RES1    0.0000
      6 H3        -3.8498   11.3319    6.9966 H         1 RES1    0.0000
      7 C4        -2.2082   12.2867    7.7948 C.3       1 RES1    0.0000
      8 H4        -1.3416   11.9691    8.0936 H         1 RES1    0.0000
      9 H5        -2.0774   12.7264    6.9402 H         1 RES1    0.0000
     10 C5        -2.7112   13.3062    8.7858 C.3       1 RES1    0.0000
     11 H6        -3.0450   12.8429    9.5693 H         1 RES1    0.0000
     12 H7        -3.4545   13.7872    8.3889 H         1 RES1    0.0000
     13 C6        -1.6554   14.3093    9.2221 C.3       1 RES1    0.0000
     14 H8        -2.0636   14.9380    9.8376 H         1 RES1    0.0000
     15 H9        -1.3643   14.8092    8.4431 H         1 RES1    0.0000
     16 C7        -0.4269   13.7016    9.8940 C.3       1 RES1    0.0000
     17 H10        0.0098   13.1112    9.2604 H         1 RES1    0.0000
     18 H11        0.1944   14.4173   10.1037 H         1 RES1    0.0000
     19 C8        -0.7060   12.9209   11.1646 C.3       1 RES1    0.0000
     20 H12       -1.6289   12.6240   11.1443 H         1 RES1    0.0000
     21 H13       -0.6103   13.5207   11.9199 H         1 RES1    0.0000
     22 C9         0.1826   11.7121   11.3968 C.3       1 RES1    0.0000
     23 H14       -0.0060   11.3549   12.2785 H         1 RES1    0.0000
     24 H15        1.1082   12.0044   11.3912 H         1 RES1    0.0000
     25 C10        0.0225   10.5887   10.3743 C.3       1 RES1    0.0000
     26 H16        0.2387   10.9348    9.4938 H         1 RES1    0.0000
     27 H17        0.6603    9.8863   10.5783 H         1 RES1    0.0000
     28 C11       -1.3683    9.9883   10.3347 C.3       1 RES1    0.0000
     29 H18       -2.0058   10.7036   10.1838 H         1 RES1    0.0000
     30 H19       -1.5605    9.6057   11.2052 H         1 RES1    0.0000
     31 C12       -1.5964    8.9044    9.2700 C.3       1 RES1    0.0000
     32 H20       -1.0421    8.1371    9.4848 H         1 RES1    0.0000
     33 H21       -2.5221    8.6190    9.3123 H         1 RES1    0.0000
     34 N1        -0.1753    9.1709    7.2820 N.2       1 RES1    0.0000
     35 O1         0.7795    8.5240    8.0811 O.3       1 RES1    0.0000
     36 H22        1.4577    8.6066    7.6212 H         1 RES1    0.0000
     37 O2        -3.2985    8.8596    6.6707 O.3       1 RES1    0.0000
     38 H23       -3.1203    8.5819    5.9166 H         1 RES1    0.0000
@<TRIPOS>BOND
     1    1    2 1
     2    2    3 1
     3    4    2 1
     4    5    4 1
     5    6    4 1
     6    7    4 1
     7    8    7 1
     8    9    7 1
     9   10    7 1
    10   11   10 1
    11   12   10 1
    12   13   10 1
    13   14   13 1
    14   15   13 1
    15   16   13 1
    16   17   16 1
    17   18   16 1
    18   19   16 1
    19   20   19 1
    20   21   19 1
    21   22   19 1
    22   23   22 1
    23   24   22 1
    24   25   22 1
    25   26   25 1
    26   27   25 1
    27   28   25 1
    28   29   28 1
    29   30   28 1
    30   31    1 1
    31   32   31 1
    32   33   31 1
    33   34    1 2
    34   35   34 1
    35   36   35 1
    36   37    2 1
    37   38   37 1
    38   28   31 1
@<TRIPOS>SUBSTRUCTURE
     1 RES1 1

@<TRIPOS>CRYSIN
   6.3168   17.6510   11.6088  90.0000 103.7950  90.0000  14 1

