# MOL2 file generated by ConQuest
# Please check atom types

@<TRIPOS>MOLECULE
EMUDIA
    41    42     1
SMALL
NO_CHARGES
****
Generated from CSD

@<TRIPOS>ATOM
      1 O1         7.3140    5.1598    8.4883 O.3       1 RES1    0.0000
      2 O2         5.6533    9.0293   10.1405 O.3       1 RES1    0.0000
      3 O3         7.2589   10.0842   11.3009 O.2       1 RES1    0.0000
      4 O4         1.7724   11.4606    8.7461 O.2       1 RES1    0.0000
      5 O5         0.9979   13.0627    9.9828 O.2       1 RES1    0.0000
      6 O6         3.9642   15.1004   13.2196 O.2       1 RES1    0.0000
      7 O7         5.5872   13.9300   14.0014 O.2       1 RES1    0.0000
      8 N1         9.0464    7.4351    6.9241 N.3       1 RES1    0.0000
      9 N2         1.8450   12.2330    9.6914 N.pl3     1 RES1    0.0000
     10 N3         4.6837   14.1206   13.2111 N.pl3     1 RES1    0.0000
     11 C1        10.2501    8.0335    7.4891 C.3       1 RES1    0.0000
     12 H1        10.3999    7.4663    8.3551 H         1 RES1    0.0000
     13 H2        10.8570    8.0208    6.8187 H         1 RES1    0.0000
     14 H3        10.0741    8.9774    7.8091 H         1 RES1    0.0000
     15 C2         8.5303    8.2364    5.8448 C.3       1 RES1    0.0000
     16 H4         9.2390    8.2954    5.0283 H         1 RES1    0.0000
     17 H5         8.3063    9.2169    6.1838 H         1 RES1    0.0000
     18 H6         7.6739    7.8129    5.4854 H         1 RES1    0.0000
     19 C3         8.0730    7.0776    7.9323 C.3       1 RES1    0.0000
     20 C4         8.5038    5.9070    8.8275 C.3       1 RES1    0.0000
     21 H7         8.5493    6.0721    9.8915 H         1 RES1    0.0000
     22 H8         9.3000    5.4634    8.4313 H         1 RES1    0.0000
     23 C5         7.0162    6.0731    7.4079 C.3       1 RES1    0.0000
     24 H9         6.0675    6.3877    7.4294 H         1 RES1    0.0000
     25 H10        7.2787    5.7173    6.5139 H         1 RES1    0.0000
     26 C6         7.4348    8.2770    8.6548 C.3       1 RES1    0.0000
     27 H11        8.2484    8.8483    8.9722 H         1 RES1    0.0000
     28 H12        6.8583    8.8067    7.9551 H         1 RES1    0.0000
     29 C7         6.5691    7.9149    9.8420 C.3       1 RES1    0.0000
     30 H13        7.1336    7.6226   10.7296 H         1 RES1    0.0000
     31 H14        5.9115    7.1229    9.6681 H         1 RES1    0.0000
     32 C8         6.1488   10.0382   10.8539 C.2       1 RES1    0.0000
     33 C9         5.1330   11.1135   11.0526 C.ar      1 RES1    0.0000
     34 C10        5.3769   12.1021   11.9955 C.ar      1 RES1    0.0000
     35 H15        6.0618   12.0953   12.4704 H         1 RES1    0.0000
     36 C11        4.4344   13.0790   12.1925 C.ar      1 RES1    0.0000
     37 C12        3.2621   13.1385   11.4821 C.ar      1 RES1    0.0000
     38 H16        2.6826   13.7961   11.6235 H         1 RES1    0.0000
     39 C13        3.0508   12.1558   10.5377 C.ar      1 RES1    0.0000
     40 C14        3.9530   11.1469   10.3233 C.ar      1 RES1    0.0000
     41 H17        3.7912   10.5278    9.7341 H         1 RES1    0.0000
@<TRIPOS>BOND
     1    1   20 1
     2    2   29 1
     3    3   32 2
     4    4    9 2
     5    5    9 2
     6    6   10 2
     7    7   10 2
     8    8   11 1
     9    9   39 1
    10   10   36 1
    11   11   12 1
    12   13   11 1
    13   14   11 1
    14   15    8 1
    15   16   15 1
    16   17   15 1
    17   18   15 1
    18   19    8 1
    19   20   19 1
    20   21   20 1
    21   22   20 1
    22   23    1 1
    23   24   23 1
    24   25   23 1
    25   26   19 1
    26   27   26 1
    27   28   26 1
    28   29   26 1
    29   30   29 1
    30   31   29 1
    31   32    2 1
    32   33   32 1
    33   34   33 ar
    34   35   34 1
    35   36   34 ar
    36   37   36 ar
    37   38   37 1
    38   39   37 ar
    39   40   33 ar
    40   41   40 1
    41   19   23 1
    42   39   40 ar
@<TRIPOS>SUBSTRUCTURE
     1 RES1 1

@<TRIPOS>CRYSIN
   6.7653    9.3774   12.9109  79.6870  85.1410  70.4900   2 1

