# MOL2 file generated by ConQuest
# Please check atom types

@<TRIPOS>MOLECULE
EMUDOG
    55    57     1
SMALL
NO_CHARGES
****
Generated from CSD

@<TRIPOS>ATOM
      1 O1        -0.8735   10.9600   15.0383 O.3       1 RES1    0.0000
      2 O2         3.0314   11.2458   11.4792 O.3       1 RES1    0.0000
      3 O3         1.3009   11.5160   10.0695 O.2       1 RES1    0.0000
      4 O4         6.7262   14.3245   11.4208 O.2       1 RES1    0.0000
      5 O5         6.8470   15.8785    9.9100 O.2       1 RES1    0.0000
      6 O6         3.4676   16.2010    6.4975 O.2       1 RES1    0.0000
      7 O7         1.8613   14.7616    6.4438 O.2       1 RES1    0.0000
      8 N1         6.3069   14.9095   10.4299 N.pl3     1 RES1    0.0000
      9 N2         2.8819   15.2227    6.9325 N.pl3     1 RES1    0.0000
     10 C1         4.7867    4.9200   16.1891 C.3       1 RES1    0.0000
     11 H1         5.4449    5.5718   15.9361 H         1 RES1    0.0000
     12 H2         5.2006    4.0568   16.2532 H         1 RES1    0.0000
     13 H3         4.4111    5.1592   17.0401 H         1 RES1    0.0000
     14 C2         2.6514    3.8172   15.5565 C.3       1 RES1    0.0000
     15 H4         2.2681    4.0608   16.4040 H         1 RES1    0.0000
     16 H5         3.0846    2.9649   15.6362 H         1 RES1    0.0000
     17 H6         1.9584    3.7641   14.8945 H         1 RES1    0.0000
     18 C3         4.2956    4.4746   13.7974 C.3       1 RES1    0.0000
     19 H7         3.6030    4.4016   13.1371 H         1 RES1    0.0000
     20 H8         4.7391    3.6279   13.8910 H         1 RES1    0.0000
     21 H9         4.9306    5.1399   13.5236 H         1 RES1    0.0000
     22 C4         3.6811    4.8783   15.1371 C.3       1 RES1    0.0000
     23 C5         2.9725    6.2247   14.9846 C.ar      1 RES1    0.0000
     24 C6         3.2338    7.3197   15.7922 C.ar      1 RES1    0.0000
     25 H10        3.8772    7.2492   16.4595 H         1 RES1    0.0000
     26 C7         2.5553    8.5201   15.6276 C.ar      1 RES1    0.0000
     27 H11        2.7505    9.2348   16.1908 H         1 RES1    0.0000
     28 C8         1.6009    8.6772   14.6501 C.ar      1 RES1    0.0000
     29 C9         1.3161    7.5812   13.8425 C.ar      1 RES1    0.0000
     30 H12        0.6655    7.6550   13.1821 H         1 RES1    0.0000
     31 C10        1.9853    6.3848   14.0071 C.ar      1 RES1    0.0000
     32 H13        1.7746    5.6677   13.4525 H         1 RES1    0.0000
     33 C11        0.9569   10.0220   14.4161 C.3       1 RES1    0.0000
     34 C12        0.4222   10.7659   15.6553 C.3       1 RES1    0.0000
     35 H14        0.3892   10.2114   16.4508 H         1 RES1    0.0000
     36 H15        0.8893   11.5968   15.8373 H         1 RES1    0.0000
     37 C13       -0.5188   10.0478   13.9603 C.3       1 RES1    0.0000
     38 H16       -0.6426   10.4284   13.0764 H         1 RES1    0.0000
     39 H17       -0.9565    9.1849   14.0262 H         1 RES1    0.0000
     40 C14        1.8447   10.9267   13.5634 C.3       1 RES1    0.0000
     41 H18        1.3668   11.7492   13.3693 H         1 RES1    0.0000
     42 H19        2.6400   11.1578   14.0678 H         1 RES1    0.0000
     43 C15        2.2577   10.2775   12.2601 C.3       1 RES1    0.0000
     44 H20        2.7952    9.4907   12.4386 H         1 RES1    0.0000
     45 H21        1.4714   10.0041   11.7627 H         1 RES1    0.0000
     46 C16        2.3986   11.8131   10.4577 C.2       1 RES1    0.0000
     47 C17        3.2202   12.9014    9.8303 C.ar      1 RES1    0.0000
     48 C18        2.7279   13.5033    8.6760 C.ar      1 RES1    0.0000
     49 H22        1.9417   13.2012    8.2826 H         1 RES1    0.0000
     50 C19        3.4242   14.5537    8.1301 C.ar      1 RES1    0.0000
     51 C20        4.6086   15.0348    8.6622 C.ar      1 RES1    0.0000
     52 H23        5.0709   15.7408    8.2722 H         1 RES1    0.0000
     53 C21        5.0658   14.4029    9.8077 C.ar      1 RES1    0.0000
     54 C22        4.4113   13.3466   10.3987 C.ar      1 RES1    0.0000
     55 H24        4.7562   12.9410   11.1613 H         1 RES1    0.0000
@<TRIPOS>BOND
     1    1   34 1
     2    2   43 1
     3    3   46 2
     4    4    8 2
     5    5    8 2
     6    6    9 2
     7    7    9 2
     8    8   53 1
     9    9   50 1
    10   10   11 1
    11   12   10 1
    12   13   10 1
    13   14   15 1
    14   16   14 1
    15   17   14 1
    16   18   19 1
    17   20   18 1
    18   21   18 1
    19   22   10 1
    20   23   22 1
    21   24   23 ar
    22   25   24 1
    23   26   24 ar
    24   27   26 1
    25   28   26 ar
    26   29   28 ar
    27   30   29 1
    28   31   23 ar
    29   32   31 1
    30   33   28 1
    31   34   33 1
    32   35   34 1
    33   36   34 1
    34   37    1 1
    35   38   37 1
    36   39   37 1
    37   40   33 1
    38   41   40 1
    39   42   40 1
    40   43   40 1
    41   44   43 1
    42   45   43 1
    43   46    2 1
    44   47   46 1
    45   48   47 ar
    46   49   48 1
    47   50   48 ar
    48   51   50 ar
    49   52   51 1
    50   53   51 ar
    51   54   47 ar
    52   55   54 1
    53   14   22 1
    54   18   22 1
    55   29   31 ar
    56   33   37 1
    57   53   54 ar
@<TRIPOS>SUBSTRUCTURE
     1 RES1 1

@<TRIPOS>CRYSIN
   5.8741   10.1271   17.6440  79.6910  86.6170  88.9660   2 1

