# MOL2 file generated by ConQuest
# Please check atom types

@<TRIPOS>MOLECULE
EMUVIR
    25    26     1
SMALL
NO_CHARGES
****
Generated from CSD

@<TRIPOS>ATOM
      1 C1         0.6711    7.5932    2.1186 C.2       1 RES1    0.0000
      2 C2         1.1742    7.8862    0.8128 C.2       1 RES1    0.0000
      3 C3         0.5461    9.1204    0.4691 C.2       1 RES1    0.0000
      4 H1         0.6856    9.5751   -0.3539 H         1 RES1    0.0000
      5 C4        -0.8113    8.8659    3.7036 C.3       1 RES1    0.0000
      6 H2        -1.1162    8.0123    4.1045 H         1 RES1    0.0000
      7 H3        -1.6103    9.4294    3.5479 H         1 RES1    0.0000
      8 C5         0.0994    9.5665    4.6767 C.ar      1 RES1    0.0000
      9 C6         0.6096   10.8349    4.3864 C.ar      1 RES1    0.0000
     10 H4         0.3844   11.2550    3.5654 H         1 RES1    0.0000
     11 C7         1.4363   11.4823    5.2812 C.ar      1 RES1    0.0000
     12 H5         1.7775   12.3447    5.0721 H         1 RES1    0.0000
     13 C8         1.7717   10.8818    6.4820 C.ar      1 RES1    0.0000
     14 H6         2.3382   11.3267    7.1013 H         1 RES1    0.0000
     15 C9         1.2691    9.6193    6.7704 C.ar      1 RES1    0.0000
     16 H7         1.4902    9.2000    7.5943 H         1 RES1    0.0000
     17 C10        0.4525    8.9734    5.8710 C.ar      1 RES1    0.0000
     18 H8         0.1264    8.1055    6.0756 H         1 RES1    0.0000
     19 N1        -0.1724    8.5880    2.4301 N.pl3     1 RES1    0.0000
     20 N2        -0.2424    9.5543    1.4136 N.2       1 RES1    0.0000
     21 N3         0.9758    6.5683    2.9074 N.3       1 RES1    0.0000
     22 N4         2.0186    7.2015    0.0461 N.2       1 RES1    0.0000
     23 O1         2.5028    6.1303    0.5842 O.2       1 RES1    0.0000
     24 H9         0.4730    6.3898    3.7137 H         1 RES1    0.0000
     25 H10        1.5531    5.9859    2.4512 H         1 RES1    0.0000
@<TRIPOS>BOND
     1    1    2 2
     2    2    3 1
     3    3    4 1
     4    5    6 1
     5    7    5 1
     6    8    5 1
     7    9    8 ar
     8   10    9 1
     9   11    9 ar
    10   12   11 1
    11   13   11 ar
    12   14   13 1
    13   15   13 ar
    14   16   15 1
    15   17    8 ar
    16   18   17 1
    17   19    1 1
    18   20    3 2
    19   21    1 1
    20   22    2 1
    21   23   22 2
    22   24   21 1
    23   25   21 1
    24    5   19 1
    25   15   17 ar
    26   19   20 1
@<TRIPOS>SUBSTRUCTURE
     1 RES1 1

@<TRIPOS>CRYSIN
   4.4700   23.8960    9.3400  90.0000  99.3760  90.0000   9 1

