# MOL2 file generated by ConQuest
# Please check atom types

@<TRIPOS>MOLECULE
ENALAH
    41    43     1
SMALL
NO_CHARGES
****
Generated from CSD

@<TRIPOS>ATOM
      1 O1        12.5812    0.4990    1.9796 O.3       1 RES1    0.0000
      2 H1        11.8595    0.7968    1.6709 H         1 RES1    0.0000
      3 O2        13.3680    4.0689    7.0699 O.2       1 RES1    0.0000
      4 O3        15.0475    2.7086    7.2337 O.2       1 RES1    0.0000
      5 N1        14.0174    3.1065    6.6771 N.pl3     1 RES1    0.0000
      6 C1        13.5958    2.4068    5.4700 C.ar      1 RES1    0.0000
      7 C2        12.5204    2.9017    4.7413 C.ar      1 RES1    0.0000
      8 H2        12.0297    3.6510    5.0576 H         1 RES1    0.0000
      9 C3        12.1725    2.2866    3.5468 C.ar      1 RES1    0.0000
     10 C4        12.9007    1.1722    3.1121 C.ar      1 RES1    0.0000
     11 C5        14.0116    0.6848    3.8398 C.ar      1 RES1    0.0000
     12 C6        14.3318    1.3162    5.0352 C.ar      1 RES1    0.0000
     13 H3        15.0596    0.9986    5.5573 H         1 RES1    0.0000
     14 C7        11.0475    2.8193    2.7161 C.ar      1 RES1    0.0000
     15 C8         9.7382    2.4291    3.0058 C.ar      1 RES1    0.0000
     16 H4         9.5688    1.8185    3.7130 H         1 RES1    0.0000
     17 C9         8.6822    2.9380    2.2541 C.ar      1 RES1    0.0000
     18 H5         7.7905    2.6635    2.4320 H         1 RES1    0.0000
     19 C10        8.9430    3.8432    1.2497 C.ar      1 RES1    0.0000
     20 H6         8.2211    4.2082    0.7510 H         1 RES1    0.0000
     21 C11       10.2268    4.2253    0.9582 C.ar      1 RES1    0.0000
     22 H7        10.3806    4.8493    0.2585 H         1 RES1    0.0000
     23 C12       11.3149    3.7126    1.6717 C.ar      1 RES1    0.0000
     24 C13       12.7119    4.1355    1.3225 C.3       1 RES1    0.0000
     25 H8        13.0868    4.6623    2.0580 H         1 RES1    0.0000
     26 H9        12.6947    4.6794    0.5069 H         1 RES1    0.0000
     27 H10       13.2665    3.3409    1.1741 H         1 RES1    0.0000
     28 C14       14.8185   -0.4778    3.3695 C.ar      1 RES1    0.0000
     29 C15       15.6059   -0.3962    2.2075 C.ar      1 RES1    0.0000
     30 C16       16.3662   -1.5061    1.8402 C.ar      1 RES1    0.0000
     31 H11       16.8894   -1.4705    1.0485 H         1 RES1    0.0000
     32 C17       16.3738   -2.6613    2.6095 C.ar      1 RES1    0.0000
     33 H12       16.8956   -3.4077    2.3396 H         1 RES1    0.0000
     34 C18       15.6236   -2.7281    3.7649 C.ar      1 RES1    0.0000
     35 H13       15.6404   -3.5123    4.3008 H         1 RES1    0.0000
     36 C19       14.8440   -1.6426    4.1412 C.ar      1 RES1    0.0000
     37 H14       14.3213   -1.6923    4.9334 H         1 RES1    0.0000
     38 C20       15.6993    0.8733    1.4036 C.3       1 RES1    0.0000
     39 H15       14.8375    1.0521    0.9734 H         1 RES1    0.0000
     40 H16       16.3927    0.7761    0.7178 H         1 RES1    0.0000
     41 H17       15.9285    1.6189    1.9959 H         1 RES1    0.0000
@<TRIPOS>BOND
     1    1    2 1
     2    3    5 2
     3    4    5 2
     4    5    6 1
     5    6    7 ar
     6    7    8 1
     7    9    7 ar
     8   10    1 1
     9   11   10 ar
    10   12    6 ar
    11   13   12 1
    12   14    9 1
    13   15   14 ar
    14   16   15 1
    15   17   15 ar
    16   18   17 1
    17   19   17 ar
    18   20   19 1
    19   21   19 ar
    20   22   21 1
    21   23   14 ar
    22   24   23 1
    23   25   24 1
    24   26   24 1
    25   27   24 1
    26   28   11 1
    27   29   28 ar
    28   30   29 ar
    29   31   30 1
    30   32   30 ar
    31   33   32 1
    32   34   32 ar
    33   35   34 1
    34   36   28 ar
    35   37   36 1
    36   38   29 1
    37   39   38 1
    38   40   38 1
    39   41   38 1
    40    9   10 ar
    41   11   12 ar
    42   21   23 ar
    43   34   36 ar
@<TRIPOS>SUBSTRUCTURE
     1 RES1 1

@<TRIPOS>CRYSIN
  14.9681    7.4193   15.6739  90.0000 112.8680  90.0000 231 1

