# MOL2 file generated by ConQuest
# Please check atom types

@<TRIPOS>MOLECULE
ENAQOB
    99    70     2
SMALL
NO_CHARGES
****
Generated from CSD

@<TRIPOS>ATOM
      1 N1        -0.6807    3.8502    5.8934 N.3       1 RES1    0.0000
      2 O1        -1.2188    2.7317    5.7050 O.2       1 RES1    0.0000
      3 N2         0.7087    5.4086    6.7066 N.2       1 RES1    0.0000
      4 C1         3.8180    0.4774    9.4372 C.ar      1 RES1    0.0000
      5 H1         4.6078    0.8092    9.8482 H         1 RES1    0.0000
      6 C2         2.9579    1.3786    8.7800 C.ar      1 RES1    0.0000
      7 C3         1.7864    0.8841    8.1370 C.ar      1 RES1    0.0000
      8 C4         0.9351    1.7998    7.4589 C.ar      1 RES1    0.0000
      9 H2         0.1396    1.4846    7.0470 H         1 RES1    0.0000
     10 C5         1.2520    3.1348    7.3947 C.ar      1 RES1    0.0000
     11 C6         2.4289    3.6138    8.0315 C.ar      1 RES1    0.0000
     12 H3         2.6375    4.5395    7.9908 H         1 RES1    0.0000
     13 C7         3.2617    2.7714    8.6981 C.ar      1 RES1    0.0000
     14 H4         4.0477    3.1095    9.1109 H         1 RES1    0.0000
     15 C8         0.4361    4.1434    6.6890 C.2       1 RES1    0.0000
     16 C9        -0.9975    5.1111    5.1631 C.3       1 RES1    0.0000
     17 C10       -0.2998    6.1365    6.0504 C.3       1 RES1    0.0000
     18 C11       -0.4272    4.8595    3.7131 C.3       1 RES1    0.0000
     19 H5        -0.5931    5.6484    3.1557 H         1 RES1    0.0000
     20 H6         0.5370    4.6936    3.7661 H         1 RES1    0.0000
     21 H7        -0.8724    4.0803    3.3180 H         1 RES1    0.0000
     22 C12       -2.5607    5.3862    5.0273 C.3       1 RES1    0.0000
     23 H8        -2.7041    6.2243    4.5404 H         1 RES1    0.0000
     24 H9        -2.9808    4.6476    4.5387 H         1 RES1    0.0000
     25 H10       -2.9591    5.4547    5.9199 H         1 RES1    0.0000
     26 C13        0.3972    7.2069    5.1455 C.3       1 RES1    0.0000
     27 H11       -0.2848    7.7314    4.6745 H         1 RES1    0.0000
     28 H12        0.9406    7.8031    5.7011 H         1 RES1    0.0000
     29 H13        0.9713    6.7573    4.4911 H         1 RES1    0.0000
     30 C14       -1.2177    6.7744    7.0029 C.3       1 RES1    0.0000
     31 H14       -1.9050    7.2711    6.5126 H         1 RES1    0.0000
     32 H15       -1.6447    6.0873    7.5568 H         1 RES1    0.0000
     33 H16       -0.7168    7.3910    7.5780 H         1 RES1    0.0000
     34 N3         0.5453    5.0030    6.6607 Du        2 SUP2    0.0000
     35 O2         1.4290    5.3647    7.4902 Du        2 SUP2    0.0000
     36 N4        -0.9265    3.7260    5.5812 Du        2 SUP2    0.0000
     37 C15        1.8395   -1.1239    8.7634 Du        2 SUP2    0.0000
     38 H17        1.2766   -1.8882    8.7369 Du        2 SUP2    0.0000
     39 C16        1.3984    0.0803    8.2095 Du        2 SUP2    0.0000
     40 C17        0.1237    0.1841    7.5794 Du        2 SUP2    0.0000
     41 C18       -0.2796    1.3647    7.0449 Du        2 SUP2    0.0000
     42 H18       -1.1322    1.4225    6.6290 Du        2 SUP2    0.0000
     43 C19        0.5535    2.5197    7.0964 Du        2 SUP2    0.0000
     44 C20        1.7691    2.4555    7.7031 Du        2 SUP2    0.0000
     45 H19        2.3195    3.2283    7.7473 Du        2 SUP2    0.0000
     46 C21        2.2205    1.2170    8.2767 Du        2 SUP2    0.0000
     47 H20        3.0702    1.1667    8.6981 Du        2 SUP2    0.0000
     48 C22        0.0418    3.7410    6.4349 Du        2 SUP2    0.0000
     49 C23       -0.3621    6.0337    5.8546 Du        2 SUP2    0.0000
     50 C24       -1.1287    5.0276    4.9144 Du        2 SUP2    0.0000
     51 C25        0.4408    7.1908    5.3572 Du        2 SUP2    0.0000
     52 H21        0.8245    7.6746    6.1192 Du        2 SUP2    0.0000
     53 H22        1.1631    6.8643    4.7803 Du        2 SUP2    0.0000
     54 H23       -0.1377    7.7945    4.8456 Du        2 SUP2    0.0000
     55 C26       -1.2764    6.6053    7.0929 Du        2 SUP2    0.0000
     56 H24       -1.8252    5.8785    7.4563 Du        2 SUP2    0.0000
     57 H25       -0.6914    6.9553    7.7967 Du        2 SUP2    0.0000
     58 H26       -1.8593    7.3214    6.7648 Du        2 SUP2    0.0000
     59 C27       -2.5449    5.1967    4.7574 Du        2 SUP2    0.0000
     60 H27       -2.9739    5.1903    5.6394 Du        2 SUP2    0.0000
     61 H28       -2.7252    6.0519    4.3147 Du        2 SUP2    0.0000
     62 H29       -2.9039    4.4646    4.2141 Du        2 SUP2    0.0000
     63 C28       -0.3867    5.0233    3.6532 Du        2 SUP2    0.0000
     64 H30        0.5685    4.9034    3.8366 Du        2 SUP2    0.0000
     65 H31       -0.7057    4.2869    3.0905 Du        2 SUP2    0.0000
     66 H32       -0.5263    5.8742    3.1893 Du        2 SUP2    0.0000
     67 N1B        6.0126   -3.8502   11.7462 N.3       1 RES1    0.0000
     68 O1B        6.5508   -2.7317   11.9346 O.2       1 RES1    0.0000
     69 N2B        4.6233   -5.4086   10.9331 N.2       1 RES1    0.0000
     70 C1B        1.5140   -0.4774    8.2024 C.ar      1 RES1    0.0000
     71 H1B        0.7241   -0.8092    7.7914 H         1 RES1    0.0000
     72 C2B        2.3741   -1.3786    8.8597 C.ar      1 RES1    0.0000
     73 C3B        3.5456   -0.8841    9.5027 C.ar      1 RES1    0.0000
     74 C4B        4.3968   -1.7998   10.1807 C.ar      1 RES1    0.0000
     75 H2B        5.1924   -1.4846   10.5926 H         1 RES1    0.0000
     76 C5B        4.0800   -3.1348   10.2449 C.ar      1 RES1    0.0000
     77 C6B        2.9031   -3.6138    9.6081 C.ar      1 RES1    0.0000
     78 H3B        2.6945   -4.5395    9.6489 H         1 RES1    0.0000
     79 C7B        2.0702   -2.7714    8.9415 C.ar      1 RES1    0.0000
     80 H4B        1.2843   -3.1095    8.5288 H         1 RES1    0.0000
     81 C8B        4.8959   -4.1434   10.9507 C.2       1 RES1    0.0000
     82 C9B        6.3295   -5.1111   12.4765 C.3       1 RES1    0.0000
     83 C10B       5.6317   -6.1365   11.5893 C.3       1 RES1    0.0000
     84 C11B       5.7591   -4.8595   13.9265 C.3       1 RES1    0.0000
     85 H5B        5.9251   -5.6484   14.4839 H         1 RES1    0.0000
     86 H6B        4.7950   -4.6936   13.8736 H         1 RES1    0.0000
     87 H7B        6.2044   -4.0803   14.3216 H         1 RES1    0.0000
     88 C12B       7.8927   -5.3862   12.6124 C.3       1 RES1    0.0000
     89 H8B        8.0361   -6.2243   13.0992 H         1 RES1    0.0000
     90 H9B        8.3128   -4.6476   13.1010 H         1 RES1    0.0000
     91 H10B       8.2911   -5.4547   11.7198 H         1 RES1    0.0000
     92 C13B       4.9348   -7.2069   12.4942 C.3       1 RES1    0.0000
     93 H11B       5.6168   -7.7314   12.9652 H         1 RES1    0.0000
     94 H12B       4.3914   -7.8031   11.9385 H         1 RES1    0.0000
     95 H13B       4.3607   -6.7573   13.1486 H         1 RES1    0.0000
     96 C14B       6.5497   -6.7744   10.6367 C.3       1 RES1    0.0000
     97 H14B       7.2369   -7.2711   11.1271 H         1 RES1    0.0000
     98 H15B       6.9766   -6.0873   10.0828 H         1 RES1    0.0000
     99 H16B       6.0488   -7.3910   10.0617 H         1 RES1    0.0000
@<TRIPOS>BOND
     1    1    2 1
     2    3   15 2
     3    4    5 1
     4    6    4 ar
     5    7    6 ar
     6    8    7 ar
     7    9    8 1
     8   10    8 ar
     9   11   10 ar
    10   12   11 1
    11   13    6 ar
    12   14   13 1
    13   15    1 1
    14   16    1 1
    15   17    3 1
    16   18   16 1
    17   19   18 1
    18   20   18 1
    19   21   18 1
    20   22   16 1
    21   23   22 1
    22   24   22 1
    23   25   22 1
    24   26   17 1
    25   27   26 1
    26   28   26 1
    27   29   26 1
    28   30   17 1
    29   31   30 1
    30   32   30 1
    31   33   30 1
    32   67   68 1
    33   69   81 2
    34   70    7 ar
    35   71   70 1
    36   72   70 ar
    37   73    4 ar
    38   74   73 ar
    39   75   74 1
    40   76   74 ar
    41   77   76 ar
    42   78   77 1
    43   79   72 ar
    44   80   79 1
    45   81   67 1
    46   82   67 1
    47   83   69 1
    48   84   82 1
    49   85   84 1
    50   86   84 1
    51   87   84 1
    52   88   82 1
    53   89   88 1
    54   90   88 1
    55   91   88 1
    56   92   83 1
    57   93   92 1
    58   94   92 1
    59   95   92 1
    60   96   83 1
    61   97   96 1
    62   98   96 1
    63   99   96 1
    64   10   15 1
    65   11   13 ar
    66   16   17 1
    67   72   73 ar
    68   76   81 1
    69   77   79 ar
    70   82   83 1
@<TRIPOS>SUBSTRUCTURE
     1 RES1 1
     2 SUP2 34

@<TRIPOS>CRYSIN
   6.3636   10.7038   17.6698  90.0000  93.3470  90.0000 231 1

