# MOL2 file generated by ConQuest
# Please check atom types

@<TRIPOS>MOLECULE
ENAQUH
    68    72     1
SMALL
NO_CHARGES
****
Generated from CSD

@<TRIPOS>ATOM
      1 O1         5.7517   -1.6367   -0.7363 O.2       1 RES1    0.0000
      2 N1         6.5535   -0.6614   -0.9289 N.pl3     1 RES1    0.0000
      3 C1         7.9134    2.0660    7.0112 C.ar      1 RES1    0.0000
      4 H1         8.0477    2.9648    6.7334 H         1 RES1    0.0000
      5 O2         8.9007    1.7026   -0.0596 O.2       1 RES1    0.0000
      6 N2         8.0082    0.9575   -0.5978 N.3       1 RES1    0.0000
      7 C2         7.7310    1.0449    6.0265 C.ar      1 RES1    0.0000
      8 C3         7.7667    1.3232    4.6592 C.ar      1 RES1    0.0000
      9 H2         7.9142    2.2144    4.3651 H         1 RES1    0.0000
     10 C4         7.5876    0.3047    3.7156 C.ar      1 RES1    0.0000
     11 C5         7.6219    0.5755    2.3183 C.ar      1 RES1    0.0000
     12 H3         7.7917    1.4603    2.0172 H         1 RES1    0.0000
     13 C6         7.4130   -0.4252    1.3989 C.ar      1 RES1    0.0000
     14 C7         7.1956   -1.7713    1.8320 C.ar      1 RES1    0.0000
     15 H4         7.0618   -2.4603    1.1918 H         1 RES1    0.0000
     16 C8         7.3552   -0.0767   -0.0148 C.2       1 RES1    0.0000
     17 C9         7.3879    1.2935   -1.9255 C.3       1 RES1    0.0000
     18 C10        6.7823   -0.0847   -2.2989 C.3       1 RES1    0.0000
     19 C11        8.4303    1.8168   -2.8944 C.3       1 RES1    0.0000
     20 H5         8.0029    2.0290   -3.7504 H         1 RES1    0.0000
     21 H6         8.8419    2.6268   -2.5260 H         1 RES1    0.0000
     22 H7         9.1196    1.1337   -3.0329 H         1 RES1    0.0000
     23 C12        6.3415    2.3671   -1.6297 C.3       1 RES1    0.0000
     24 H8         5.8978    2.6293   -2.4629 H         1 RES1    0.0000
     25 H9         5.6760    2.0114   -1.0045 H         1 RES1    0.0000
     26 H10        6.7789    3.1489   -1.2315 H         1 RES1    0.0000
     27 C13        5.4760   -0.0117   -3.0606 C.3       1 RES1    0.0000
     28 H11        5.6372    0.3657   -3.9509 H         1 RES1    0.0000
     29 H12        5.0992   -0.9117   -3.1509 H         1 RES1    0.0000
     30 H13        4.8454    0.5586   -2.5739 H         1 RES1    0.0000
     31 C14        7.7748   -1.0160   -2.9958 C.3       1 RES1    0.0000
     32 H14        7.9584   -0.6810   -3.8990 H         1 RES1    0.0000
     33 H15        8.6099   -1.0467   -2.4833 H         1 RES1    0.0000
     34 H16        7.3924   -1.9168   -3.0522 H         1 RES1    0.0000
     35 O1B        9.3421    1.6367   10.9137 O.2       1 RES1    0.0000
     36 N1B        8.5404    0.6614   11.1063 N.pl3     1 RES1    0.0000
     37 C1B        7.1805   -2.0660    3.1662 C.ar      1 RES1    0.0000
     38 H1B        7.0462   -2.9648    3.4440 H         1 RES1    0.0000
     39 O2B        6.1932   -1.7026   10.2370 O.2       1 RES1    0.0000
     40 N2B        7.0856   -0.9575   10.7752 N.3       1 RES1    0.0000
     41 C2B        7.3629   -1.0449    4.1509 C.ar      1 RES1    0.0000
     42 C3B        7.3272   -1.3232    5.5182 C.ar      1 RES1    0.0000
     43 H2B        7.1797   -2.2144    5.8123 H         1 RES1    0.0000
     44 C4B        7.5063   -0.3047    6.4618 C.ar      1 RES1    0.0000
     45 C5B        7.4720   -0.5755    7.8591 C.ar      1 RES1    0.0000
     46 H3B        7.3021   -1.4603    8.1602 H         1 RES1    0.0000
     47 C6B        7.6809    0.4252    8.7785 C.ar      1 RES1    0.0000
     48 C7B        7.8982    1.7713    8.3454 C.ar      1 RES1    0.0000
     49 H4B        8.0321    2.4603    8.9856 H         1 RES1    0.0000
     50 C8B        7.7386    0.0767   10.1922 C.2       1 RES1    0.0000
     51 C9B        7.7060   -1.2935   12.1029 C.3       1 RES1    0.0000
     52 C10B       8.3116    0.0847   12.4763 C.3       1 RES1    0.0000
     53 C11B       6.6636   -1.8168   13.0717 C.3       1 RES1    0.0000
     54 H5B        7.0910   -2.0290   13.9278 H         1 RES1    0.0000
     55 H6B        6.2520   -2.6268   12.7034 H         1 RES1    0.0000
     56 H7B        5.9743   -1.1337   13.2103 H         1 RES1    0.0000
     57 C12B       8.7524   -2.3671   11.8071 C.3       1 RES1    0.0000
     58 H8B        9.1960   -2.6293   12.6403 H         1 RES1    0.0000
     59 H9B        9.4178   -2.0114   11.1819 H         1 RES1    0.0000
     60 H10B       8.3150   -3.1489   11.4089 H         1 RES1    0.0000
     61 C13B       9.6179    0.0117   13.2380 C.3       1 RES1    0.0000
     62 H11B       9.4567   -0.3657   14.1283 H         1 RES1    0.0000
     63 H12B       9.9946    0.9117   13.3283 H         1 RES1    0.0000
     64 H13B      10.2485   -0.5586   12.7513 H         1 RES1    0.0000
     65 C14B       7.3190    1.0160   13.1732 C.3       1 RES1    0.0000
     66 H14B       7.1355    0.6810   14.0764 H         1 RES1    0.0000
     67 H15B       6.4840    1.0467   12.6607 H         1 RES1    0.0000
     68 H16B       7.7014    1.9168   13.2296 H         1 RES1    0.0000
@<TRIPOS>BOND
     1    1    2 1
     2    2   16 2
     3    3    4 1
     4    5    6 1
     5    6   16 1
     6    7    3 ar
     7    8    7 ar
     8    9    8 1
     9   10    8 ar
    10   11   10 ar
    11   12   11 1
    12   13   11 ar
    13   14   13 ar
    14   15   14 1
    15   16   13 1
    16   17    6 1
    17   18    2 1
    18   19   17 1
    19   20   19 1
    20   21   19 1
    21   22   19 1
    22   23   17 1
    23   24   23 1
    24   25   23 1
    25   26   23 1
    26   27   18 1
    27   28   27 1
    28   29   27 1
    29   30   27 1
    30   31   18 1
    31   32   31 1
    32   33   31 1
    33   34   31 1
    34   35   36 1
    35   36   50 2
    36   37   14 ar
    37   38   37 1
    38   39   40 1
    39   40   50 1
    40   41   10 ar
    41   42   41 ar
    42   43   42 1
    43   44    7 ar
    44   45   44 ar
    45   46   45 1
    46   47   45 ar
    47   48    3 ar
    48   49   48 1
    49   50   47 1
    50   51   40 1
    51   52   36 1
    52   53   51 1
    53   54   53 1
    54   55   53 1
    55   56   53 1
    56   57   51 1
    57   58   57 1
    58   59   57 1
    59   60   57 1
    60   61   52 1
    61   62   61 1
    62   63   61 1
    63   64   61 1
    64   65   52 1
    65   66   65 1
    66   67   65 1
    67   68   65 1
    68   17   18 1
    69   37   41 ar
    70   42   44 ar
    71   47   48 ar
    72   51   52 1
@<TRIPOS>SUBSTRUCTURE
     1 RES1 1

@<TRIPOS>CRYSIN
   9.5582   12.6106   10.9435  90.0000 111.5660  90.0000  14 1

