# MOL2 file generated by ConQuest
# Please check atom types

@<TRIPOS>MOLECULE
ENARAO
    87    70     2
SMALL
NO_CHARGES
****
Generated from CSD

@<TRIPOS>ATOM
      1 C1         7.0891   22.6286    0.3619 C.ar      1 RES1    0.0000
      2 H1         7.1529   22.9658    1.2258 H         1 RES1    0.0000
      3 C2         5.7334   21.8668   -1.5142 C.ar      1 RES1    0.0000
      4 C3         6.8965   21.6097   -2.2203 C.ar      1 RES1    0.0000
      5 H2         6.8324   21.2604   -3.0794 H         1 RES1    0.0000
      6 C4         8.1587   21.8557   -1.6870 C.ar      1 RES1    0.0000
      7 C5        10.6864   22.4018   -0.5449 C.ar      1 RES1    0.0000
      8 C6        10.5699   21.8758   -1.8679 C.ar      1 RES1    0.0000
      9 H3        11.3403   21.7167   -2.3658 H         1 RES1    0.0000
     10 C7         8.2609   22.3765   -0.3639 C.ar      1 RES1    0.0000
     11 C8         9.5502   22.6286    0.1850 C.ar      1 RES1    0.0000
     12 H4         9.6214   22.9523    1.0537 H         1 RES1    0.0000
     13 C9         4.6287   22.6592    0.5537 C.ar      1 RES1    0.0000
     14 H5         4.6844   23.0011    1.4176 H         1 RES1    0.0000
     15 C10        5.8263   22.3841   -0.1816 C.ar      1 RES1    0.0000
     16 C11       12.0366   22.7184   -0.0687 C.2       1 RES1    0.0000
     17 C12        9.3637   21.6064   -2.4067 C.ar      1 RES1    0.0000
     18 H6         9.3172   21.2523   -3.2651 H         1 RES1    0.0000
     19 C13        4.4362   21.6110   -2.0441 C.ar      1 RES1    0.0000
     20 H7         4.3558   21.2577   -2.9005 H         1 RES1    0.0000
     21 C14        3.4005   22.4222   -0.0116 C.ar      1 RES1    0.0000
     22 C15        2.1233   22.6907    0.6687 C.2       1 RES1    0.0000
     23 O1        11.5313   23.2396    2.1985 O.2       1 RES1    0.0000
     24 C16        3.3225   21.8704   -1.3326 C.ar      1 RES1    0.0000
     25 H8         2.4902   21.6895   -1.7040 H         1 RES1    0.0000
     26 N1        12.3429   23.1011    1.2394 N.3       1 RES1    0.0000
     27 N2        13.0908   22.6948   -0.8142 N.2       1 RES1    0.0000
     28 C17       13.8145   23.1358    1.4387 C.3       1 RES1    0.0000
     29 C18       15.4996   22.4499   -0.3932 C.3       1 RES1    0.0000
     30 H9        16.2447   22.8029    0.0980 H         1 RES1    0.0000
     31 H10       15.3676   21.5293   -0.1599 H         1 RES1    0.0000
     32 H11       15.6744   22.5205   -1.3346 H         1 RES1    0.0000
     33 C19       14.1648   21.8307    2.1278 C.3       1 RES1    0.0000
     34 H12       15.1123   21.7954    2.2842 H         1 RES1    0.0000
     35 H13       13.7002   21.7764    2.9658 H         1 RES1    0.0000
     36 H14       13.9039   21.0948    1.5700 H         1 RES1    0.0000
     37 C20       14.1733   24.2970    2.3237 C.3       1 RES1    0.0000
     38 H15       15.1232   24.3182    2.4522 H         1 RES1    0.0000
     39 H16       13.8876   25.1139    1.9108 H         1 RES1    0.0000
     40 H17       13.7382   24.1987    3.1740 H         1 RES1    0.0000
     41 C21       14.3954   24.6957   -0.5109 C.3       1 RES1    0.0000
     42 H18       15.1313   25.1057   -0.0503 H         1 RES1    0.0000
     43 H19       14.5583   24.7174   -1.4571 H         1 RES1    0.0000
     44 H20       13.5889   25.1763   -0.3143 H         1 RES1    0.0000
     45 C22       14.2490   23.2423   -0.0510 C.3       1 RES1    0.0000
     46 N3         0.9993   22.2326    0.2721 N.2       1 RES1    0.0000
     47 N4         1.9878   23.3650    1.7754 N.3       1 RES1    0.0000
     48 O2         2.8541   23.9380    2.3604 O.2       1 RES1    0.0000
     49 C23        0.0190   22.5503    1.3605 C.3       1 RES1    0.0000
     50 C24        0.5730   23.7724    2.0611 C.3       1 RES1    0.0000
     51 C25        0.2797   25.1057    1.3809 C.3       1 RES1    0.0000
     52 H21       -0.6246   25.3664    1.5666 H         1 RES1    0.0000
     53 H22        0.8799   25.7738    1.7223 H         1 RES1    0.0000
     54 H23        0.4019   25.0161    0.4347 H         1 RES1    0.0000
     55 C26        0.3476   23.9244    3.5467 C.3       1 RES1    0.0000
     56 H24       -0.5648   24.1851    3.7066 H         1 RES1    0.0000
     57 H25        0.5214   23.0880    3.9848 H         1 RES1    0.0000
     58 H26        0.9369   24.5979    3.8923 H         1 RES1    0.0000
     59 C27       -1.3198   22.7594    0.7210 C.3       1 RES1    0.0000
     60 H27       -1.9688   22.9631    1.4020 H         1 RES1    0.0000
     61 H28       -1.2709   23.4872    0.0986 H         1 RES1    0.0000
     62 H29       -1.5832   21.9583    0.2612 H         1 RES1    0.0000
     63 C28       -0.0923   21.3338    2.2924 C.3       1 RES1    0.0000
     64 H30        0.7549   21.1762    2.7162 H         1 RES1    0.0000
     65 H31       -0.7577   21.5076    2.9651 H         1 RES1    0.0000
     66 H32       -0.3449   20.5598    1.7849 H         1 RES1    0.0000
     67 N5         1.9905   23.4954    1.8570 Du        2 SUP2    0.0000
     68 O3         2.9790   24.0982    2.5577 Du        2 SUP2    0.0000
     69 C29        0.1847   24.6468    2.8502 Du        2 SUP2    0.0000
     70 H33       -0.7305   24.6414    3.1427 Du        2 SUP2    0.0000
     71 H34        0.7577   24.8206    3.6018 Du        2 SUP2    0.0000
     72 H35        0.3041   25.3311    2.1903 Du        2 SUP2    0.0000
     73 C30        0.3395   22.1919    3.3059 Du        2 SUP2    0.0000
     74 H36       -0.5947   22.1077    3.5093 Du        2 SUP2    0.0000
     75 H37        0.6708   21.3582    2.9678 Du        2 SUP2    0.0000
     76 H38        0.8201   22.4281    4.1018 Du        2 SUP2    0.0000
     77 C31        0.5350   23.2836    2.2516 Du        2 SUP2    0.0000
     78 C32       -0.1602   22.9903    0.9183 Du        2 SUP2    0.0000
     79 N6         1.0075   22.4091    0.1633 Du        2 SUP2    0.0000
     80 C33       -0.7414   24.2286    0.2381 Du        2 SUP2    0.0000
     81 H39       -1.4800   24.5599    0.7523 Du        2 SUP2    0.0000
     82 H40       -0.0652   24.9048    0.1735 Du        2 SUP2    0.0000
     83 H41       -1.0455   23.9950   -0.6449 Du        2 SUP2    0.0000
     84 C34       -1.2275   21.9095    0.9115 Du        2 SUP2    0.0000
     85 H42       -2.0014   22.2245    1.3802 Du        2 SUP2    0.0000
     86 H43       -1.4664   21.7031    0.0027 Du        2 SUP2    0.0000
     87 H44       -0.8880   21.1219    1.3401 Du        2 SUP2    0.0000
@<TRIPOS>BOND
     1    1    2 1
     2    3    4 ar
     3    4    5 1
     4    6    4 ar
     5    7    8 ar
     6    8    9 1
     7   10    1 ar
     8   11    7 ar
     9   12   11 1
    10   13   14 1
    11   15    1 ar
    12   16    7 1
    13   17    6 ar
    14   18   17 1
    15   19    3 ar
    16   20   19 1
    17   21   13 ar
    18   22   21 1
    19   23   26 1
    20   24   19 ar
    21   25   24 1
    22   26   16 1
    23   27   16 2
    24   28   26 1
    25   29   30 1
    26   31   29 1
    27   32   29 1
    28   33   28 1
    29   34   33 1
    30   35   33 1
    31   36   33 1
    32   37   28 1
    33   38   37 1
    34   39   37 1
    35   40   37 1
    36   41   42 1
    37   43   41 1
    38   44   41 1
    39   45   27 1
    40   46   22 2
    41   47   22 1
    42   48   47 1
    43   49   46 1
    44   50   47 1
    45   51   50 1
    46   52   51 1
    47   53   51 1
    48   54   51 1
    49   55   50 1
    50   56   55 1
    51   57   55 1
    52   58   55 1
    53   59   49 1
    54   60   59 1
    55   61   59 1
    56   62   59 1
    57   63   49 1
    58   64   63 1
    59   65   63 1
    60   66   63 1
    61    3   15 ar
    62    6   10 ar
    63    8   17 ar
    64   10   11 ar
    65   13   15 ar
    66   21   24 ar
    67   28   45 1
    68   29   45 1
    69   41   45 1
    70   49   50 1
@<TRIPOS>SUBSTRUCTURE
     1 RES1 1
     2 SUP2 67

@<TRIPOS>CRYSIN
  27.1560   27.1560    6.8023  90.0000  90.0000  90.0000  82 1

