# MOL2 file generated by ConQuest
# Please check atom types

@<TRIPOS>MOLECULE
ENIGIT
    53    57     1
SMALL
NO_CHARGES
****
Generated from CSD

@<TRIPOS>ATOM
      1 O1         7.9003    5.6659    3.6913 O.3       1 RES1    0.0000
      2 O2        10.6566    4.7876    1.7827 O.2       1 RES1    0.0000
      3 O3         6.1013    1.4612    2.8149 O.2       1 RES1    0.0000
      4 O4         4.4835    0.7440    1.5726 O.2       1 RES1    0.0000
      5 N1         7.2273    3.7043    1.4292 N.pl3     1 RES1    0.0000
      6 N2         9.4905    3.1838    2.8977 N.am      1 RES1    0.0000
      7 N3         5.5846    1.2712    1.7108 N.pl3     1 RES1    0.0000
      8 C1         7.6930    5.8394    2.2711 C.3       1 RES1    0.0000
      9 C2         8.0171    7.3010    2.0783 C.2       1 RES1    0.0000
     10 H1         8.4174    7.7104    1.3204 H         1 RES1    0.0000
     11 C3         7.6194    7.8921    3.2057 C.2       1 RES1    0.0000
     12 H2         7.6683    8.8178    3.4144 H         1 RES1    0.0000
     13 C4         7.0739    6.7852    4.0878 C.3       1 RES1    0.0000
     14 H3         7.0712    6.9854    5.0680 H         1 RES1    0.0000
     15 C5         5.6974    6.3514    3.4972 C.3       1 RES1    0.0000
     16 H4         5.2273    5.7181    4.0957 H         1 RES1    0.0000
     17 H5         5.1139    7.1322    3.3209 H         1 RES1    0.0000
     18 C6         6.1460    5.6700    2.1873 C.3       1 RES1    0.0000
     19 H6         5.7637    6.1219    1.3808 H         1 RES1    0.0000
     20 C7         6.0015    4.1541    2.1125 C.3       1 RES1    0.0000
     21 H7         5.9377    3.7602    3.0185 H         1 RES1    0.0000
     22 H8         5.1963    3.9016    1.5954 H         1 RES1    0.0000
     23 C8         8.2866    4.7172    1.4440 C.3       1 RES1    0.0000
     24 H9         8.4523    5.0408    0.5124 H         1 RES1    0.0000
     25 C9         9.5990    4.2207    2.0532 C.2       1 RES1    0.0000
     26 C10        7.2720    2.6697    0.5254 C.ar      1 RES1    0.0000
     27 C11        8.2294    2.6617   -0.5154 C.ar      1 RES1    0.0000
     28 H10        8.9056    3.3288   -0.5329 H         1 RES1    0.0000
     29 C12        8.1993    1.7022   -1.5063 C.ar      1 RES1    0.0000
     30 H11        8.8661    1.7130   -2.1831 H         1 RES1    0.0000
     31 C13        7.2126    0.7177   -1.5366 C.ar      1 RES1    0.0000
     32 H12        7.1752    0.0936   -2.2516 H         1 RES1    0.0000
     33 C14        6.2917    0.6643   -0.5113 C.ar      1 RES1    0.0000
     34 H13        5.6123   -0.0002   -0.5135 H         1 RES1    0.0000
     35 C15        6.3640    1.5922    0.5292 C.ar      1 RES1    0.0000
     36 C16       10.5748    2.7918    3.7950 C.3       1 RES1    0.0000
     37 H14       11.4331    2.8172    3.2821 H         1 RES1    0.0000
     38 C17       10.6824    3.7717    4.9627 C.3       1 RES1    0.0000
     39 H15        9.8138    3.8174    5.4355 H         1 RES1    0.0000
     40 H16       10.8897    4.6752    4.6161 H         1 RES1    0.0000
     41 C18       11.7725    3.3417    5.9448 C.3       1 RES1    0.0000
     42 H17       12.6545    3.3792    5.4971 H         1 RES1    0.0000
     43 H18       11.7905    3.9659    6.7136 H         1 RES1    0.0000
     44 C19       11.5139    1.9262    6.4431 C.3       1 RES1    0.0000
     45 H19       10.6665    1.9062    6.9556 H         1 RES1    0.0000
     46 H20       12.2460    1.6517    7.0503 H         1 RES1    0.0000
     47 C20       11.4261    0.9461    5.2773 C.3       1 RES1    0.0000
     48 H21       11.2191    0.0421    5.6238 H         1 RES1    0.0000
     49 H22       12.3019    0.9050    4.8170 H         1 RES1    0.0000
     50 C21       10.3480    1.3658    4.2800 C.3       1 RES1    0.0000
     51 H23       10.3586    0.7498    3.5057 H         1 RES1    0.0000
     52 H24        9.4591    1.3025    4.7108 H         1 RES1    0.0000
     53 H25        8.6760    2.9083    3.0721 H         1 RES1    0.0000
@<TRIPOS>BOND
     1    1    8 1
     2    2   25 2
     3    3    7 2
     4    4    7 2
     5    5   20 1
     6    6   25 1
     7    7   35 1
     8    8    9 1
     9    9   10 1
    10   11    9 2
    11   12   11 1
    12   13    1 1
    13   14   13 1
    14   15   13 1
    15   16   15 1
    16   17   15 1
    17   18    8 1
    18   19   18 1
    19   20   18 1
    20   21   20 1
    21   22   20 1
    22   23    5 1
    23   24   23 1
    24   25   23 1
    25   26    5 1
    26   27   26 ar
    27   28   27 1
    28   29   27 ar
    29   30   29 1
    30   31   29 ar
    31   32   31 1
    32   33   31 ar
    33   34   33 1
    34   35   26 ar
    35   36    6 1
    36   37   36 1
    37   38   36 1
    38   39   38 1
    39   40   38 1
    40   41   38 1
    41   42   41 1
    42   43   41 1
    43   44   41 1
    44   45   44 1
    45   46   44 1
    46   47   44 1
    47   48   47 1
    48   49   47 1
    49   50   36 1
    50   51   50 1
    51   52   50 1
    52   53    6 1
    53    8   23 1
    54   11   13 1
    55   15   18 1
    56   33   35 ar
    57   47   50 1
@<TRIPOS>SUBSTRUCTURE
     1 RES1 1

@<TRIPOS>CRYSIN
   7.8940   11.0503   11.7479  81.3500  77.0130  69.5340   2 1

