# MOL2 file generated by ConQuest
# Please check atom types

@<TRIPOS>MOLECULE
ENIHEP
    56    55     2
SMALL
NO_CHARGES
****
Generated from CSD

@<TRIPOS>ATOM
      1 C1         2.9442    3.6309    4.7571 C.3       1 RES1    0.0000
      2 C2         0.2329    7.5682    2.9716 C.1       1 RES1    0.0000
      3 C3         1.4108    2.8552    6.5344 C.2       1 RES1    0.0000
      4 C4        -0.1110    2.0823    8.1931 C.3       1 RES1    0.0000
      5 C5        -1.4706    1.6011    8.2579 C.3       1 RES1    0.0000
      6 C6         3.7182    5.2798    3.2052 C.2       1 RES1    0.0000
      7 C7         3.5777    5.8614    1.8386 C.ar      1 RES1    0.0000
      8 C8         4.5418    6.7217    1.3968 C.ar      1 RES1    0.0000
      9 C9         4.4410    7.2821    0.1503 C.ar      1 RES1    0.0000
     10 C10        3.3987    7.0189   -0.6859 C.ar      1 RES1    0.0000
     11 C11        2.4386    6.1779   -0.2199 C.ar      1 RES1    0.0000
     12 C12        1.5272    3.1294    5.0403 C.3       1 RES1    0.0000
     13 C13        2.4962    5.5853    1.0177 C.ar      1 RES1    0.0000
     14 C14        4.7959    0.2264    4.6713 C.3       1 RES1    0.0000
     15 C15        1.3029    1.8366    4.2467 C.3       1 RES1    0.0000
     16 C16        2.3044    0.7757    4.6332 C.3       1 RES1    0.0000
     17 C17        3.7105    1.2707    4.6761 C.2       1 RES1    0.0000
     18 C18        3.9746    2.5497    4.7238 C.2       1 RES1    0.0000
     19 C19        0.4864    4.1802    4.6942 C.3       1 RES1    0.0000
     20 C20       -0.1312    6.3941    5.2669 C.3       1 RES1    0.0000
     21 C21        0.0741    7.0428    3.9804 C.1       1 RES1    0.0000
     22 H1         3.1940    4.2980    5.4315 H         1 RES1    0.0000
     23 H2         0.3620    7.9933    2.1548 H         1 RES1    0.0000
     24 H3         0.4943    1.4207    8.5621 H         1 RES1    0.0000
     25 H4        -0.0228    2.8985    8.7083 H         1 RES1    0.0000
     26 H5        -2.0642    2.2700    7.9105 H         1 RES1    0.0000
     27 H6        -1.7006    1.4134    9.1723 H         1 RES1    0.0000
     28 H7        -1.5508    0.7987    7.7357 H         1 RES1    0.0000
     29 H8         5.2671    6.9269    1.9419 H         1 RES1    0.0000
     30 H9         3.3472    7.3952   -1.5351 H         1 RES1    0.0000
     31 H10        1.8222    5.0093    1.2999 H         1 RES1    0.0000
     32 H11        4.7412   -0.2880    3.8615 H         1 RES1    0.0000
     33 H12        4.6857   -0.3533    5.4284 H         1 RES1    0.0000
     34 H13        5.6534    0.6561    4.7196 H         1 RES1    0.0000
     35 H14        0.4056    1.5072    4.4145 H         1 RES1    0.0000
     36 H15        1.3814    2.0234    3.2990 H         1 RES1    0.0000
     37 H16        2.0684    0.4251    5.5078 H         1 RES1    0.0000
     38 H17        2.2486    0.0451    3.9982 H         1 RES1    0.0000
     39 H18        4.8686    2.8046    4.7387 H         1 RES1    0.0000
     40 H19        0.5400    4.4103    3.7534 H         1 RES1    0.0000
     41 H20       -0.4049    3.8444    4.8785 H         1 RES1    0.0000
     42 H21       -0.0158    7.0502    5.9718 H         1 RES1    0.0000
     43 H22       -1.0427    6.0665    5.3139 H         1 RES1    0.0000
     44 N1         5.4472    8.2639   -0.2889 N.pl3     1 RES1    0.0000
     45 N2         1.2979    5.9009   -1.1041 N.pl3     1 RES1    0.0000
     46 O1         2.8972    4.2723    3.4194 O.3       1 RES1    0.0000
     47 O2         0.7580    5.3148    5.4922 O.3       1 RES1    0.0000
     48 O3         2.2406    3.0770    7.3588 O.2       1 RES1    0.0000
     49 O4         0.2156    2.3372    6.8001 O.3       1 RES1    0.0000
     50 O5         4.5061    5.6957    3.9982 O.2       1 RES1    0.0000
     51 O6         6.1576    8.8270    0.6611 O.2       1 RES1    0.0000
     52 O7         5.2924    8.8252   -1.3116 O.2       1 RES1    0.0000
     53 O8         1.2214    6.3693   -2.1272 O.2       1 RES1    0.0000
     54 O9         0.8528    4.7259   -1.0733 O.2       1 RES1    0.0000
     55 O10        6.6364    7.8213   -0.0032 Du        2 SUP2    0.0000
     56 O11        0.0543    5.9837   -0.3337 Du        2 SUP2    0.0000
@<TRIPOS>BOND
     1    1   12 1
     2    2   21 3
     3    3   12 1
     4    4    5 1
     5    5   26 1
     6    6    7 1
     7    7    8 ar
     8    8    9 ar
     9    9   10 ar
    10   10   11 ar
    11   11   13 ar
    12   12   15 1
    13   13    7 ar
    14   14   17 1
    15   15   16 1
    16   16   17 1
    17   17   18 2
    18   18    1 1
    19   19   12 1
    20   20   21 1
    21   22    1 1
    22   23    2 1
    23   24    4 1
    24   25    4 1
    25   27    5 1
    26   28    5 1
    27   29    8 1
    28   30   10 1
    29   31   13 1
    30   32   14 1
    31   33   14 1
    32   34   14 1
    33   35   15 1
    34   36   15 1
    35   37   16 1
    36   38   16 1
    37   39   18 1
    38   40   19 1
    39   41   19 1
    40   42   20 1
    41   43   20 1
    42   44    9 1
    43   45   11 1
    44   46    1 1
    45   47   19 1
    46   48    3 2
    47   49    3 1
    48   50    6 2
    49   51   44 2
    50   52   44 2
    51   53   45 2
    52   54   45 2
    53    4   49 1
    54    6   46 1
    55   20   47 1
@<TRIPOS>SUBSTRUCTURE
     1 RES1 1
     2 SUP2 55

@<TRIPOS>CRYSIN
   7.6684    9.2015   31.8380  90.0000  93.4000  90.0000 231 1

