# MOL2 file generated by ConQuest
# Please check atom types

@<TRIPOS>MOLECULE
ENILES
    50    55     1
SMALL
NO_CHARGES
****
Generated from CSD

@<TRIPOS>ATOM
      1 C1         0.9322    3.3960    8.2900 C.3       1 RES1    0.0000
      2 C2         1.7343    2.1042    8.4796 C.ar      1 RES1    0.0000
      3 C3         2.3989    1.3903    7.4981 C.ar      1 RES1    0.0000
      4 H1         2.3691    1.6785    6.5928 H         1 RES1    0.0000
      5 C4         3.1072    0.2535    7.8457 C.ar      1 RES1    0.0000
      6 H2         3.5674   -0.2358    7.1748 H         1 RES1    0.0000
      7 C5         3.1514   -0.1751    9.1516 C.ar      1 RES1    0.0000
      8 H3         3.6332   -0.9630    9.3759 H         1 RES1    0.0000
      9 C6         2.4902    0.5434   10.1457 C.ar      1 RES1    0.0000
     10 H4         2.5214    0.2516   11.0491 H         1 RES1    0.0000
     11 C7         1.7905    1.6802    9.8047 C.ar      1 RES1    0.0000
     12 C8        -0.4429    3.1537    8.9278 C.ar      1 RES1    0.0000
     13 C9        -1.6688    3.3803    8.3294 C.ar      1 RES1    0.0000
     14 H5        -1.7176    3.6714    7.4264 H         1 RES1    0.0000
     15 C10       -2.8319    3.1743    9.0711 C.ar      1 RES1    0.0000
     16 H6        -3.6803    3.3137    8.6669 H         1 RES1    0.0000
     17 C11       -2.7587    2.7714   10.3792 C.ar      1 RES1    0.0000
     18 H7        -3.5570    2.6376   10.8751 H         1 RES1    0.0000
     19 C12       -1.5255    2.5570   10.9883 C.ar      1 RES1    0.0000
     20 H8        -1.4793    2.2838   11.8968 H         1 RES1    0.0000
     21 C13       -0.3655    2.7472   10.2532 C.ar      1 RES1    0.0000
     22 C14        1.5812    4.4214    9.2160 C.ar      1 RES1    0.0000
     23 C15        1.9759    5.6959    8.8708 C.ar      1 RES1    0.0000
     24 H9         1.8660    6.0082    7.9802 H         1 RES1    0.0000
     25 C16        2.5354    6.5204    9.8387 C.ar      1 RES1    0.0000
     26 H10        2.8014    7.4037    9.6111 H         1 RES1    0.0000
     27 C17        2.7056    6.0656   11.1244 C.ar      1 RES1    0.0000
     28 H11        3.1164    6.6254   11.7722 H         1 RES1    0.0000
     29 C18        2.2806    4.7893   11.4834 C.ar      1 RES1    0.0000
     30 H12        2.3942    4.4791   12.3742 H         1 RES1    0.0000
     31 C19        1.6933    3.9793   10.5336 C.ar      1 RES1    0.0000
     32 C20        1.0676    2.6161   10.7623 C.3       1 RES1    0.0000
     33 H13        1.1190    2.3172   11.7146 H         1 RES1    0.0000
     34 N1         0.8518    3.9387    6.9543 N.3       1 RES1    0.0000
     35 O1         0.3360    2.8982    6.0940 O.3       1 RES1    0.0000
     36 C21       -0.1540    3.5340    4.9246 C.3       1 RES1    0.0000
     37 H14        0.5870    3.9839    4.4469 H         1 RES1    0.0000
     38 H15       -0.8298    4.2158    5.1677 H         1 RES1    0.0000
     39 C22       -0.7719    2.4921    4.0465 C.ar      1 RES1    0.0000
     40 C23       -0.8318    2.7048    2.6835 C.ar      1 RES1    0.0000
     41 H16       -0.4359    3.4827    2.3069 H         1 RES1    0.0000
     42 C24       -1.4656    1.7907    1.8682 C.ar      1 RES1    0.0000
     43 H17       -1.5165    1.9497    0.9336 H         1 RES1    0.0000
     44 C25       -2.0241    0.6511    2.3951 C.ar      1 RES1    0.0000
     45 H18       -2.4553    0.0236    1.8272 H         1 RES1    0.0000
     46 C26       -1.9566    0.4241    3.7506 C.ar      1 RES1    0.0000
     47 H19       -2.3332   -0.3675    4.1189 H         1 RES1    0.0000
     48 C27       -1.3434    1.3428    4.5738 C.ar      1 RES1    0.0000
     49 H20       -1.3118    1.1891    5.5110 H         1 RES1    0.0000
     50 H21        1.7094    4.0212    6.6633 H         1 RES1    0.0000
@<TRIPOS>BOND
     1    1    2 1
     2    2    3 ar
     3    3    4 1
     4    5    3 ar
     5    6    5 1
     6    7    5 ar
     7    8    7 1
     8    9    7 ar
     9   10    9 1
    10   11    2 ar
    11   12    1 1
    12   13   12 ar
    13   14   13 1
    14   15   13 ar
    15   16   15 1
    16   17   15 ar
    17   18   17 1
    18   19   17 ar
    19   20   19 1
    20   21   12 ar
    21   22    1 1
    22   23   22 ar
    23   24   23 1
    24   25   23 ar
    25   26   25 1
    26   27   25 ar
    27   28   27 1
    28   29   27 ar
    29   30   29 1
    30   31   22 ar
    31   32   11 1
    32   33   32 1
    33   34    1 1
    34   35   34 1
    35   36   35 1
    36   37   36 1
    37   38   36 1
    38   39   36 1
    39   40   39 ar
    40   41   40 1
    41   42   40 ar
    42   43   42 1
    43   44   42 ar
    44   45   44 1
    45   46   44 ar
    46   47   46 1
    47   48   39 ar
    48   49   48 1
    49   50   34 1
    50    9   11 ar
    51   19   21 ar
    52   21   32 1
    53   29   31 ar
    54   31   32 1
    55   46   48 ar
@<TRIPOS>SUBSTRUCTURE
     1 RES1 1

@<TRIPOS>CRYSIN
   8.2340   19.6540   12.1490  90.0000 104.5740  90.0000  14 1

