# MOL2 file generated by ConQuest
# Please check atom types

@<TRIPOS>MOLECULE
ENIMOD
    52    56     1
SMALL
NO_CHARGES
****
Generated from CSD

@<TRIPOS>ATOM
      1 O1         5.7454    2.4471    6.8776 O.3       1 RES1    0.0000
      2 N1         6.9166    2.4881    5.9827 N.3       1 RES1    0.0000
      3 C1         6.4324    2.0691    4.6476 C.3       1 RES1    0.0000
      4 C2         7.5724    2.1628    3.5849 C.ar      1 RES1    0.0000
      5 C3         8.8333    2.7952    3.6926 C.ar      1 RES1    0.0000
      6 C4         9.6881    2.6889    2.5998 C.ar      1 RES1    0.0000
      7 C5         9.3284    2.0505    1.4232 C.ar      1 RES1    0.0000
      8 C6         8.0431    1.5699    1.2554 C.ar      1 RES1    0.0000
      9 C7         7.1751    1.6423    2.3357 C.ar      1 RES1    0.0000
     10 C8         5.3595    2.9940    4.0240 C.ar      1 RES1    0.0000
     11 C9         4.7853    4.1223    4.5699 C.ar      1 RES1    0.0000
     12 C10        3.8043    4.8118    3.8448 C.ar      1 RES1    0.0000
     13 C11        3.3919    4.3739    2.6143 C.ar      1 RES1    0.0000
     14 C12        3.9704    3.2419    2.0498 C.ar      1 RES1    0.0000
     15 C13        4.9653    2.5544    2.7500 C.ar      1 RES1    0.0000
     16 C14        5.7851    0.6523    4.5834 C.ar      1 RES1    0.0000
     17 C15        5.4107   -0.1449    5.6616 C.ar      1 RES1    0.0000
     18 C16        4.7317   -1.3450    5.4317 C.ar      1 RES1    0.0000
     19 C17        4.4081   -1.7390    4.1452 C.ar      1 RES1    0.0000
     20 C18        4.7216   -0.9260    3.0804 C.ar      1 RES1    0.0000
     21 C19        5.3965    0.2592    3.2969 C.ar      1 RES1    0.0000
     22 C20        5.6819    1.3157    2.2580 C.3       1 RES1    0.0000
     23 C21        9.3114    3.6854    4.8309 C.3       1 RES1    0.0000
     24 C22        7.6262    0.9891   -0.0704 C.3       1 RES1    0.0000
     25 C23        7.9298    1.5512    6.5493 C.3       1 RES1    0.0000
     26 C24        8.5127    2.0895    7.8461 C.3       1 RES1    0.0000
     27 C25        5.7062    3.6019    7.7094 C.3       1 RES1    0.0000
     28 H1        10.5630    3.0823    2.6640 H         1 RES1    0.0000
     29 H2         9.9901    1.9503    0.7147 H         1 RES1    0.0000
     30 H3         5.0938    4.4370    5.4306 H         1 RES1    0.0000
     31 H4         3.3882    5.5875    4.2478 H         1 RES1    0.0000
     32 H5         2.7123    4.8508    2.1368 H         1 RES1    0.0000
     33 H6         3.6816    2.9134    1.1787 H         1 RES1    0.0000
     34 H7         5.6421    0.1373    6.5472 H         1 RES1    0.0000
     35 H8         4.4964   -1.9077    6.1764 H         1 RES1    0.0000
     36 H9         3.9704   -2.5720    3.9961 H         1 RES1    0.0000
     37 H10        4.4664   -1.1747    2.1917 H         1 RES1    0.0000
     38 H11        5.4193    1.0466    1.3641 H         1 RES1    0.0000
     39 H12        8.5808    4.0955    5.5353 H         1 RES1    0.0000
     40 H13        9.9095    3.3013    5.4389 H         1 RES1    0.0000
     41 H14        9.9787    4.3739    4.3213 H         1 RES1    0.0000
     42 H15        8.4370    0.9390   -0.7758 H         1 RES1    0.0000
     43 H16        6.9792    1.3435   -0.4164 H         1 RES1    0.0000
     44 H17        7.1183    0.2041   -0.0280 H         1 RES1    0.0000
     45 H18        8.5951    1.5254    5.7797 H         1 RES1    0.0000
     46 H19        7.5568    0.6959    6.8559 H         1 RES1    0.0000
     47 H20        8.9203    3.0953    7.7404 H         1 RES1    0.0000
     48 H21        9.3465    1.5477    8.0481 H         1 RES1    0.0000
     49 H22        7.7541    2.1322    8.6488 H         1 RES1    0.0000
     50 H23        4.7047    4.0046    7.5737 H         1 RES1    0.0000
     51 H24        6.1646    3.6093    8.6219 H         1 RES1    0.0000
     52 H25        6.2967    4.3015    7.2101 H         1 RES1    0.0000
@<TRIPOS>BOND
     1    1    2 1
     2    2    3 1
     3    3    4 1
     4    4    5 ar
     5    5    6 ar
     6    6    7 ar
     7    7    8 ar
     8    8    9 ar
     9    9    4 ar
    10   10    3 1
    11   11   10 ar
    12   12   11 ar
    13   13   12 ar
    14   14   13 ar
    15   15   10 ar
    16   16    3 1
    17   17   16 ar
    18   18   17 ar
    19   19   18 ar
    20   20   19 ar
    21   21   16 ar
    22   22    9 1
    23   23    5 1
    24   24    8 1
    25   25    2 1
    26   26   25 1
    27   27    1 1
    28   28    6 1
    29   29    7 1
    30   30   11 1
    31   31   12 1
    32   32   13 1
    33   33   14 1
    34   34   17 1
    35   35   18 1
    36   36   19 1
    37   37   20 1
    38   38   22 1
    39   39   23 1
    40   40   23 1
    41   41   23 1
    42   42   24 1
    43   43   24 1
    44   44   24 1
    45   45   25 1
    46   46   25 1
    47   47   26 1
    48   48   26 1
    49   49   26 1
    50   50   27 1
    51   51   27 1
    52   52   27 1
    53   14   15 ar
    54   15   22 1
    55   20   21 ar
    56   21   22 1
@<TRIPOS>SUBSTRUCTURE
     1 RES1 1

@<TRIPOS>CRYSIN
   9.8590   18.5570   10.7680  90.0000 105.8640  90.0000  14 1

