# MOL2 file generated by ConQuest
# Please check atom types

@<TRIPOS>MOLECULE
ENIMIX
    52    56     1
SMALL
NO_CHARGES
****
Generated from CSD

@<TRIPOS>ATOM
      1 O1         5.6393    3.4741    2.4220 O.3       1 RES1    0.0000
      2 N1         5.0950    2.8323    1.2293 N.3       1 RES1    0.0000
      3 C1         7.5515    4.4221    3.4115 C.3       1 RES1    0.0000
      4 C2         6.9563    3.9338    2.1249 C.3       1 RES1    0.0000
      5 C3         5.5845    1.4441    1.2559 C.3       1 RES1    0.0000
      6 C4         4.9359    2.1476   -1.6281 C.3       1 RES1    0.0000
      7 C5         3.4989    1.9492   -1.1764 C.ar      1 RES1    0.0000
      8 C6         2.9383    2.3268    0.0514 C.ar      1 RES1    0.0000
      9 C7         1.5326    2.3297    0.1876 C.ar      1 RES1    0.0000
     10 C8         0.6864    1.7548   -0.7623 C.ar      1 RES1    0.0000
     11 C9        -0.8136    1.6720   -0.5536 C.3       1 RES1    0.0000
     12 C10        1.2854    1.2653   -1.9215 C.ar      1 RES1    0.0000
     13 C11        2.6311    1.3988   -2.1343 C.ar      1 RES1    0.0000
     14 C12        1.0297    3.0680    1.4162 C.3       1 RES1    0.0000
     15 C13        1.7088    4.4410    1.3848 C.ar      1 RES1    0.0000
     16 C14        3.1075    4.3790    1.3354 C.ar      1 RES1    0.0000
     17 C15        3.6326    2.9309    1.3245 C.3       1 RES1    0.0000
     18 C16        3.8463    5.5399    1.2780 C.ar      1 RES1    0.0000
     19 C17        3.1834    6.7793    1.2729 C.ar      1 RES1    0.0000
     20 C18        1.8083    6.8394    1.3302 C.ar      1 RES1    0.0000
     21 C19        1.0597    5.6551    1.3833 C.ar      1 RES1    0.0000
     22 C20        1.5999    2.3646    2.6222 C.ar      1 RES1    0.0000
     23 C21        2.9977    2.2737    2.5958 C.ar      1 RES1    0.0000
     24 C22        3.6502    1.7578    3.7000 C.ar      1 RES1    0.0000
     25 C23        2.9136    1.3318    4.8105 C.ar      1 RES1    0.0000
     26 C24        1.5352    1.4097    4.8230 C.ar      1 RES1    0.0000
     27 C25        0.8668    1.9256    3.7167 C.ar      1 RES1    0.0000
     28 H1         8.4360    4.4234    3.5408 H         1 RES1    0.0000
     29 H2         7.4319    3.6473    3.9171 H         1 RES1    0.0000
     30 H3         7.0100    5.2073    3.8837 H         1 RES1    0.0000
     31 H4         7.5914    3.2749    1.6011 H         1 RES1    0.0000
     32 H5         6.9230    4.4937    1.4428 H         1 RES1    0.0000
     33 H6         4.5813    1.8451    3.8924 H         1 RES1    0.0000
     34 H7         3.6705    7.6332    1.2931 H         1 RES1    0.0000
     35 H8         1.2514    7.6671    1.4529 H         1 RES1    0.0000
     36 H9        -0.0179    5.6344    1.4486 H         1 RES1    0.0000
     37 H10       -0.0297    3.0705    1.4428 H         1 RES1    0.0000
     38 H11       -1.3251    2.6928   -0.6146 H         1 RES1    0.0000
     39 H12       -1.0327    1.2930    0.5085 H         1 RES1    0.0000
     40 H13       -1.2032    1.0235   -1.2408 H         1 RES1    0.0000
     41 H14        0.7040    0.8816   -2.4816 H         1 RES1    0.0000
     42 H15        5.4612    1.3620   -1.4515 H         1 RES1    0.0000
     43 H16        5.4040    2.9624   -1.1870 H         1 RES1    0.0000
     44 H17        4.9752    0.8073    0.9212 H         1 RES1    0.0000
     45 H18        6.3641    1.3855    0.7279 H         1 RES1    0.0000
     46 H19        5.6679    1.0274    2.1823 H         1 RES1    0.0000
     47 H20       -0.1163    2.0079    3.5335 H         1 RES1    0.0000
     48 H21        3.4789    0.9219    5.6809 H         1 RES1    0.0000
     49 H22        0.8564    1.0547    5.5400 H         1 RES1    0.0000
     50 H23        3.0170    1.1615   -3.0134 H         1 RES1    0.0000
     51 H24        4.8046    5.5016    1.2364 H         1 RES1    0.0000
     52 H25        4.8805    2.5392   -2.6705 H         1 RES1    0.0000
@<TRIPOS>BOND
     1    1    2 1
     2    2    5 1
     3    3    4 1
     4    4    1 1
     5    5   44 1
     6    6    7 1
     7    7    8 ar
     8    8    9 ar
     9    9   10 ar
    10   10   11 1
    11   11   38 1
    12   12   10 ar
    13   13    7 ar
    14   14    9 1
    15   15   14 1
    16   16   15 ar
    17   17    2 1
    18   18   16 ar
    19   19   18 ar
    20   20   19 ar
    21   21   15 ar
    22   22   14 1
    23   23   17 1
    24   24   23 ar
    25   25   24 ar
    26   26   25 ar
    27   27   22 ar
    28   28    3 1
    29   29    3 1
    30   30    3 1
    31   31    4 1
    32   32    4 1
    33   33   24 1
    34   34   19 1
    35   35   20 1
    36   36   21 1
    37   37   14 1
    38   39   11 1
    39   40   11 1
    40   41   12 1
    41   42    6 1
    42   43    6 1
    43   45    5 1
    44   46    5 1
    45   47   27 1
    46   48   25 1
    47   49   26 1
    48   50   13 1
    49   51   18 1
    50   52    6 1
    51    8   17 1
    52   12   13 ar
    53   16   17 1
    54   20   21 ar
    55   22   23 ar
    56   26   27 ar
@<TRIPOS>SUBSTRUCTURE
     1 RES1 1

@<TRIPOS>CRYSIN
   9.9565   13.0215   14.5385  90.0000  92.0470  90.0000  14 1

