# MOL2 file generated by ConQuest
# Please check atom types

@<TRIPOS>MOLECULE
ENIRIC
    33    35     1
SMALL
NO_CHARGES
****
Generated from CSD

@<TRIPOS>ATOM
      1 O1         3.0050    1.0842    7.9695 O.3       1 RES1    0.0000
      2 O2         2.9012    4.4824   10.5151 O.3       1 RES1    0.0000
      3 O3         1.3913    3.1892   11.5809 O.2       1 RES1    0.0000
      4 N1         1.8640    1.0365    7.1334 N.2       1 RES1    0.0000
      5 N2         1.7315    2.7950    8.5499 N.2       1 RES1    0.0000
      6 C1         1.1664    2.0648    7.5256 C.2       1 RES1    0.0000
      7 C2        -0.1492    2.3911    6.9394 C.ar      1 RES1    0.0000
      8 C3        -0.8462    3.5280    7.3393 C.ar      1 RES1    0.0000
      9 C4        -2.1013    3.7897    6.8274 C.ar      1 RES1    0.0000
     10 C5        -2.6744    2.9318    5.9137 C.ar      1 RES1    0.0000
     11 C6        -1.9807    1.8134    5.4882 C.ar      1 RES1    0.0000
     12 C7        -0.7247    1.5415    5.9990 C.ar      1 RES1    0.0000
     13 C8         2.8410    2.1538    8.7792 C.2       1 RES1    0.0000
     14 C9         3.8956    2.3979    9.7648 C.ar      1 RES1    0.0000
     15 C10        3.8802    3.4885   10.6312 C.ar      1 RES1    0.0000
     16 C11        4.8890    3.6933   11.5519 C.ar      1 RES1    0.0000
     17 C12        5.9491    2.8048   11.6112 C.ar      1 RES1    0.0000
     18 C13        5.9943    1.7129   10.7573 C.ar      1 RES1    0.0000
     19 C14        4.9706    1.5066    9.8523 C.ar      1 RES1    0.0000
     20 C15        1.6483    4.2044   10.9898 C.2       1 RES1    0.0000
     21 C16        0.7284    5.3245   10.6726 C.3       1 RES1    0.0000
     22 H1        -0.4562    4.1252    7.9669 H         1 RES1    0.0000
     23 H2        -2.5729    4.5660    7.1062 H         1 RES1    0.0000
     24 H3        -3.5452    3.1077    5.5760 H         1 RES1    0.0000
     25 H4        -2.3672    1.2319    4.8449 H         1 RES1    0.0000
     26 H5        -0.2524    0.7710    5.7072 H         1 RES1    0.0000
     27 H6         4.8554    4.4385   12.1405 H         1 RES1    0.0000
     28 H7         6.6489    2.9438   12.2385 H         1 RES1    0.0000
     29 H8         6.7271    1.1092   10.7947 H         1 RES1    0.0000
     30 H9         4.9964    0.7476    9.2811 H         1 RES1    0.0000
     31 H10       -0.1564    5.1377   11.0506 H         1 RES1    0.0000
     32 H11        0.6546    5.4206    9.6998 H         1 RES1    0.0000
     33 H12        1.0798    6.1547   11.0572 H         1 RES1    0.0000
@<TRIPOS>BOND
     1    1    4 1
     2    2   15 1
     3    3   20 2
     4    4    6 2
     5    5    6 1
     6    6    7 1
     7    7    8 ar
     8    8    9 ar
     9    9   10 ar
    10   10   11 ar
    11   11   12 ar
    12   12    7 ar
    13   13    1 1
    14   14   13 1
    15   15   14 ar
    16   16   15 ar
    17   17   16 ar
    18   18   17 ar
    19   19   14 ar
    20   20    2 1
    21   21   20 1
    22   22    8 1
    23   23    9 1
    24   24   10 1
    25   25   11 1
    26   26   12 1
    27   27   16 1
    28   28   17 1
    29   29   18 1
    30   30   19 1
    31   31   21 1
    32   32   21 1
    33   33   21 1
    34    5   13 2
    35   18   19 ar
@<TRIPOS>SUBSTRUCTURE
     1 RES1 1

@<TRIPOS>CRYSIN
  14.5489    5.4293   17.2806  90.0000 105.9550  90.0000 231 1

