# MOL2 file generated by ConQuest
# Please check atom types

@<TRIPOS>MOLECULE
ENIZIK02
    48    52     1
SMALL
USER_CHARGES
****
Generated from CSD

@<TRIPOS>ATOM
      1 O1        -1.5460    6.6487    4.2827 O.2       1 RES1   -1.0000
      2 O2        -0.4531    5.7127   -0.1218 O.2       1 RES1    0.0000
      3 N1        -1.5721    6.6147    3.0054 N.pl3     1 RES1    1.0000
      4 N2        -1.0728    6.1256    0.9177 N.3       1 RES1    0.0000
      5 C1        -0.6236    6.0901    2.1937 C.2       1 RES1    0.0000
      6 C2        -2.6514    7.2978    2.2095 C.3       1 RES1    0.0000
      7 C3        -2.5189    6.5327    0.8636 C.3       1 RES1    0.0000
      8 C4        -3.9856    7.1394    2.9181 C.3       1 RES1    0.0000
      9 H1        -4.1757    6.1869    3.0491 H         1 RES1    0.0000
     10 H2        -4.6938    7.5429    2.3754 H         1 RES1    0.0000
     11 H3        -3.9484    7.5866    3.7901 H         1 RES1    0.0000
     12 C5        -2.2580    8.7781    2.1231 C.3       1 RES1    0.0000
     13 H4        -2.1664    9.1452    3.0266 H         1 RES1    0.0000
     14 H5        -2.9513    9.2728    1.6393 H         1 RES1    0.0000
     15 H6        -1.4047    8.8623    1.6493 H         1 RES1    0.0000
     16 C6        -2.7756    7.3726   -0.3758 C.3       1 RES1    0.0000
     17 H7        -2.1439    8.1217   -0.3992 H         1 RES1    0.0000
     18 H8        -3.6918    7.7185   -0.3518 H         1 RES1    0.0000
     19 H9        -2.6554    6.8197   -1.1752 H         1 RES1    0.0000
     20 C7        -3.3106    5.2169    0.8271 C.3       1 RES1    0.0000
     21 H10       -3.0211    4.6830    0.0574 H         1 RES1    0.0000
     22 H11       -4.2674    5.4135    0.7460 H         1 RES1    0.0000
     23 H12       -3.1486    4.7151    1.6543 H         1 RES1    0.0000
     24 C8         0.6253    5.4666    2.6316 C.ar      1 RES1    0.0000
     25 C9         0.9226    4.1819    2.1556 C.ar      1 RES1    0.0000
     26 H13        0.3482    3.7689    1.5220 H         1 RES1    0.0000
     27 C10        2.0485    3.5117    2.6037 C.ar      1 RES1    0.0000
     28 H14        2.2375    2.6419    2.2731 H         1 RES1    0.0000
     29 C11        2.9139    4.0977    3.5386 C.ar      1 RES1    0.0000
     30 C12        4.0611    3.4022    4.0601 C.ar      1 RES1    0.0000
     31 H15        4.2669    2.5340    3.7327 H         1 RES1    0.0000
     32 C13        4.8537    3.9578    5.0063 C.ar      1 RES1    0.0000
     33 H16        5.5878    3.4620    5.3496 H         1 RES1    0.0000
     34 C14        4.6041    5.2851    5.4991 C.ar      1 RES1    0.0000
     35 C15        5.4278    5.8881    6.4609 C.ar      1 RES1    0.0000
     36 H17        6.1658    5.4069    6.8167 H         1 RES1    0.0000
     37 C16        5.1745    7.1838    6.8993 C.ar      1 RES1    0.0000
     38 H18        5.7422    7.5793    7.5503 H         1 RES1    0.0000
     39 C17        4.0961    7.9067    6.3926 C.ar      1 RES1    0.0000
     40 H19        3.9385    8.7931    6.6945 H         1 RES1    0.0000
     41 C18        3.2424    7.3348    5.4389 C.ar      1 RES1    0.0000
     42 C19        2.1169    8.0430    4.8955 C.ar      1 RES1    0.0000
     43 H20        1.9540    8.9367    5.1749 H         1 RES1    0.0000
     44 C20        1.2806    7.4688    3.9940 C.ar      1 RES1    0.0000
     45 H21        0.5439    7.9657    3.6579 H         1 RES1    0.0000
     46 C21        1.4913    6.1183    3.5386 C.ar      1 RES1    0.0000
     47 C22        2.6334    5.4120    4.0137 C.ar      1 RES1    0.0000
     48 C23        3.4967    6.0117    4.9813 C.ar      1 RES1    0.0000
@<TRIPOS>BOND
     1    1    3 1
     2    2    4 1
     3    3    5 2
     4    4    5 1
     5    5   24 1
     6    6    3 1
     7    7    4 1
     8    8    6 1
     9    9    8 1
    10   10    8 1
    11   11    8 1
    12   12    6 1
    13   13   12 1
    14   14   12 1
    15   15   12 1
    16   16    7 1
    17   17   16 1
    18   18   16 1
    19   19   16 1
    20   20    7 1
    21   21   20 1
    22   22   20 1
    23   23   20 1
    24   24   25 ar
    25   25   26 1
    26   27   25 ar
    27   28   27 1
    28   29   27 ar
    29   30   29 ar
    30   31   30 1
    31   32   30 ar
    32   33   32 1
    33   34   32 ar
    34   35   34 ar
    35   36   35 1
    36   37   35 ar
    37   38   37 1
    38   39   37 ar
    39   40   39 1
    40   41   39 ar
    41   42   41 ar
    42   43   42 1
    43   44   42 ar
    44   45   44 1
    45   46   24 ar
    46   47   29 ar
    47   48   34 ar
    48    6    7 1
    49   41   48 ar
    50   44   46 ar
    51   46   47 ar
    52   47   48 ar
@<TRIPOS>SUBSTRUCTURE
     1 RES1 1

@<TRIPOS>CRYSIN
   9.8560    7.2899   25.0190  90.0000  94.2100  90.0000 231 1

