# MOL2 file generated by ConQuest
# Please check atom types

@<TRIPOS>MOLECULE
ENIZAC
    22    20     2
SMALL
NO_CHARGES
****
Generated from CSD

@<TRIPOS>ATOM
      1 N1         9.5665    0.7663    3.8330 N.1       1 RES1    0.0000
      2 N2         5.4335    2.1090    3.9173 N.pl3     1 RES1    0.0000
      3 N3         7.9407   -0.0702    7.6163 N.pl3     1 RES1    0.0000
      4 O1         4.2962    2.4853    3.6523 O.2       1 RES1    0.0000
      5 O2         6.2980    1.9077    3.0757 O.2       1 RES1    0.0000
      6 O3         7.7164   -0.5419    8.7138 O.2       1 RES1    0.0000
      7 O4         8.9621   -0.2612    6.9810 O.2       1 RES1    0.0000
      8 O5         7.9544   -1.2311    7.0307 Du        2 SUP2    0.0000
      9 O6         8.4040    0.0403    8.5362 Du        2 SUP2    0.0000
     10 C1         6.6908    0.9274    5.7013 C.ar      1 RES1    0.0000
     11 C2         5.7810    1.9123    5.3219 C.ar      1 RES1    0.0000
     12 C3         5.1871    2.7706    6.2237 C.ar      1 RES1    0.0000
     13 H1         4.5721    3.4035    5.9272 H         1 RES1    0.0000
     14 C4         5.4988    2.6936    7.5486 C.ar      1 RES1    0.0000
     15 H2         5.1134    3.2838    8.1553 H         1 RES1    0.0000
     16 C5         6.3864    1.7397    7.9822 C.ar      1 RES1    0.0000
     17 H3         6.5928    1.6638    8.8870 H         1 RES1    0.0000
     18 C6         6.9614    0.9044    7.0698 C.ar      1 RES1    0.0000
     19 C7         7.2868   -0.0644    4.7212 C.3       1 RES1    0.0000
     20 H4         7.3994   -0.9216    5.1593 H         1 RES1    0.0000
     21 H5         6.6771   -0.1864    3.9760 H         1 RES1    0.0000
     22 C8         8.5693    0.3935    4.2229 C.1       1 RES1    0.0000
@<TRIPOS>BOND
     1    1   22 3
     2    2    4 2
     3    3    6 2
     4    5    2 2
     5    7    3 2
     6   10   11 ar
     7   11    2 1
     8   12   11 ar
     9   13   12 1
    10   14   12 ar
    11   15   14 1
    12   16   14 ar
    13   17   16 1
    14   18    3 1
    15   19   10 1
    16   20   19 1
    17   21   19 1
    18   22   19 1
    19   10   18 ar
    20   16   18 ar
@<TRIPOS>SUBSTRUCTURE
     1 RES1 1
     2 SUP2 8

@<TRIPOS>CRYSIN
  10.5300   11.5060   15.0550  90.0000  90.0000  90.0000  56 1

