# MOL2 file generated by ConQuest
# Please check atom types

@<TRIPOS>MOLECULE
ENUHIF
    33    35     1
SMALL
NO_CHARGES
****
Generated from CSD

@<TRIPOS>ATOM
      1 O1         3.3192    0.7417   24.0167 O.2       1 RES1    0.0000
      2 O2         8.1803    1.9818   18.9998 O.2       1 RES1    0.0000
      3 O3         9.0089    3.9411   18.5866 O.2       1 RES1    0.0000
      4 N1         1.8604    1.2802   26.3140 N.3       1 RES1    0.0000
      5 N2         2.9355    3.2411   26.5450 N.2       1 RES1    0.0000
      6 N3         8.3441    3.1648   19.2768 N.pl3     1 RES1    0.0000
      7 C1         1.3436    1.8570   27.4456 C.ar      1 RES1    0.0000
      8 C2         6.6037    4.6256   22.8312 C.ar      1 RES1    0.0000
      9 C3         0.3373    1.4568   28.3308 C.ar      1 RES1    0.0000
     10 C4         4.5343    2.7840   24.1101 C.2       1 RES1    0.0000
     11 C5         2.7928    2.1424   25.8210 C.2       1 RES1    0.0000
     12 C6         2.0248    3.0843   27.5788 C.ar      1 RES1    0.0000
     13 C7         6.7685    2.9153   21.1367 C.ar      1 RES1    0.0000
     14 C8         8.1295    4.9167   20.9892 C.ar      1 RES1    0.0000
     15 C9         7.7263    3.6928   20.5033 C.ar      1 RES1    0.0000
     16 C10        3.5425    1.8062   24.5955 C.2       1 RES1    0.0000
     17 C11        1.7009    3.9457   28.6375 C.ar      1 RES1    0.0000
     18 C12        5.1861    2.5431   22.9689 C.2       1 RES1    0.0000
     19 C13        7.5710    5.3768   22.1754 C.ar      1 RES1    0.0000
     20 C14        6.1919    3.3829   22.3182 C.ar      1 RES1    0.0000
     21 C15        0.7047    3.5535   29.5049 C.ar      1 RES1    0.0000
     22 C16        0.0355    2.3188   29.3566 C.ar      1 RES1    0.0000
     23 H1         6.5091    2.0830   20.7561 H         1 RES1    0.0000
     24 H2         4.9787    1.7388   22.5132 H         1 RES1    0.0000
     25 H3         4.6772    3.5684   24.6212 H         1 RES1    0.0000
     26 H4        -0.6620    2.0922   29.9863 H         1 RES1    0.0000
     27 H5         6.2164    4.9527   23.6475 H         1 RES1    0.0000
     28 H6        -0.1258    0.6314   28.2144 H         1 RES1    0.0000
     29 H7         1.5681    0.5503   25.9285 H         1 RES1    0.0000
     30 H8         2.1477    4.7814   28.7383 H         1 RES1    0.0000
     31 H9         0.4457    4.1221   30.2284 H         1 RES1    0.0000
     32 H10        8.7853    5.4174   20.5189 H         1 RES1    0.0000
     33 H11        7.8563    6.2148   22.5478 H         1 RES1    0.0000
@<TRIPOS>BOND
     1    1   16 2
     2    2    6 2
     3    3    6 2
     4    4    7 1
     5    5   11 2
     6    6   15 1
     7    7    9 ar
     8    8   19 ar
     9    9   22 ar
    10   10   16 1
    11   11    4 1
    12   12    5 1
    13   13   15 ar
    14   14   15 ar
    15   16   11 1
    16   17   12 ar
    17   18   10 2
    18   19   14 ar
    19   20    8 ar
    20   21   17 ar
    21   22   21 ar
    22   23   13 1
    23   24   18 1
    24   25   10 1
    25   26   22 1
    26   27    8 1
    27   28    9 1
    28   29    4 1
    29   30   17 1
    30   31   21 1
    31   32   14 1
    32   33   19 1
    33    7   12 ar
    34   13   20 ar
    35   18   20 1
@<TRIPOS>SUBSTRUCTURE
     1 RES1 1

@<TRIPOS>CRYSIN
   9.3959    5.7085   24.8921  90.0000  96.8850  90.0000  14 1

