# MOL2 file generated by ConQuest
# Please check atom types

@<TRIPOS>MOLECULE
ENULEF
    28    30     1
SMALL
NO_CHARGES
****
Generated from CSD

@<TRIPOS>ATOM
      1 C1         9.1920   -1.6515    5.4624 C.3       1 RES1    0.0000
      2 H1         8.7854   -2.4905    5.1616 H         1 RES1    0.0000
      3 C2         8.4025   -1.0655    6.5962 C.2       1 RES1    0.0000
      4 H2         7.5070   -1.3149    6.6394 H         1 RES1    0.0000
      5 C3         8.8220   -0.2357    7.5477 C.2       1 RES1    0.0000
      6 H3         8.1705    0.0211    8.1601 H         1 RES1    0.0000
      7 C4        10.1417    0.3329    7.7818 C.2       1 RES1    0.0000
      8 H4        10.2548    0.7923    8.5826 H         1 RES1    0.0000
      9 C5        11.2027    0.2733    6.9850 C.2       1 RES1    0.0000
     10 H5        11.9871    0.6877    7.2625 H         1 RES1    0.0000
     11 C6        11.2013   -0.4282    5.6628 C.3       1 RES1    0.0000
     12 H6        12.0959   -0.4145    5.2629 H         1 RES1    0.0000
     13 C7        10.6719   -1.8523    5.7434 C.3       1 RES1    0.0000
     14 H7        11.0851   -2.4217    5.0760 H         1 RES1    0.0000
     15 H8        10.8164   -2.2347    6.6239 H         1 RES1    0.0000
     16 C8         9.5267   -1.1937    3.0606 C.ar      1 RES1    0.0000
     17 C9         8.6405   -2.1127    2.5068 C.ar      1 RES1    0.0000
     18 H9         7.8984   -2.3915    2.9926 H         1 RES1    0.0000
     19 C10        8.8591   -2.6143    1.2348 C.ar      1 RES1    0.0000
     20 H10        8.2643   -3.2287    0.8703 H         1 RES1    0.0000
     21 C11        9.9655   -2.2017    0.5018 C.ar      1 RES1    0.0000
     22 H11       10.1135   -2.5354   -0.3544 H         1 RES1    0.0000
     23 C12       10.8376   -1.2957    1.0535 C.ar      1 RES1    0.0000
     24 H12       11.5864   -1.0279    0.5705 H         1 RES1    0.0000
     25 C13       10.6207   -0.7730    2.3182 C.ar      1 RES1    0.0000
     26 H13       11.2066   -0.1412    2.6694 H         1 RES1    0.0000
     27 N1         9.2093   -0.6606    4.3579 N.3       1 RES1    0.0000
     28 O1        10.2247    0.2691    4.7888 O.3       1 RES1    0.0000
@<TRIPOS>BOND
     1    1    2 1
     2    3    1 1
     3    4    3 1
     4    5    3 2
     5    6    5 1
     6    7    5 1
     7    8    7 1
     8    9    7 2
     9   10    9 1
    10   11    9 1
    11   12   11 1
    12   13    1 1
    13   14   13 1
    14   15   13 1
    15   16   17 ar
    16   17   18 1
    17   19   17 ar
    18   20   19 1
    19   21   19 ar
    20   22   21 1
    21   23   21 ar
    22   24   23 1
    23   25   16 ar
    24   26   25 1
    25   27    1 1
    26   28   11 1
    27   11   13 1
    28   16   27 1
    29   23   25 ar
    30   27   28 1
@<TRIPOS>SUBSTRUCTURE
     1 RES1 1

@<TRIPOS>CRYSIN
  11.5795    9.1698   19.4705  90.0000  90.0000  90.0000  61 1

