# MOL2 file generated by ConQuest
# Please check atom types

@<TRIPOS>MOLECULE
ENUMUX
    33    31     2
SMALL
NO_CHARGES
****
Generated from CSD

@<TRIPOS>ATOM
      1 N1         5.0685    6.0127   -0.8331 N.2       1 RES1    0.0000
      2 N2         4.4912    4.6063    0.7933 N.pl3     1 RES1    0.0000
      3 N3         5.1113    8.0675    0.4579 N.pl3     1 RES1    0.0000
      4 O1         5.2692    8.7269   -0.5714 O.2       1 RES1    0.0000
      5 O2         5.0862    8.5714    1.5834 O.2       1 RES1    0.0000
      6 C1         4.9317    6.6591    0.3583 C.2       1 RES1    0.0000
      7 C2         4.5792    5.8307    1.3783 C.2       1 RES1    0.0000
      8 H1         4.4287    6.0558    2.2893 H         1 RES1    0.0000
      9 C3         4.7939    4.7576   -0.5406 C.2       1 RES1    0.0000
     10 C4         4.7756    3.6315   -1.4998 C.3       1 RES1    0.0000
     11 H2         5.1122    3.9360   -2.3688 H         1 RES1    0.0000
     12 H3         3.8579    3.3033   -1.6011 H         1 RES1    0.0000
     13 H4         5.3459    2.9077   -1.1643 H         1 RES1    0.0000
     14 C5         4.0795    3.3541    1.4566 C.3       1 RES1    0.0000
     15 H5         4.2699    3.4223    2.4261 H         1 RES1    0.0000
     16 H6         4.6133    2.6040    1.0943 H         1 RES1    0.0000
     17 C6         2.6157    3.0581    1.2606 C.ar      1 RES1    0.0000
     18 C7         1.6526    3.7757    1.9602 C.ar      1 RES1    0.0000
     19 H7         1.9170    4.4674    2.5555 H         1 RES1    0.0000
     20 C8         0.3145    3.4872    1.7931 C.ar      1 RES1    0.0000
     21 H8        -0.3315    3.9883    2.2755 H         1 RES1    0.0000
     22 C9        -0.1109    2.4843    0.9384 C.ar      1 RES1    0.0000
     23 C10        0.8545    1.7841    0.2407 C.ar      1 RES1    0.0000
     24 H9         0.5881    1.0983   -0.3605 H         1 RES1    0.0000
     25 C11        2.1996    2.0591    0.3995 C.ar      1 RES1    0.0000
     26 H10        2.8429    1.5580   -0.0869 H         1 RES1    0.0000
     27 C12       -1.5793    2.1814    0.7666 C.3       1 RES1    0.0000
     28 H11       -1.6956    1.5260    0.0477 H         1 RES1    0.0000
     29 H12       -2.0585    3.0047    0.5397 H         1 RES1    0.0000
     30 H13       -1.9373    1.8153    1.6022 H         1 RES1    0.0000
     31 H14       -2.0924    2.6462    1.4601 Du        2 SUP2    0.0000
     32 H15       -1.7247    1.2156    0.8462 Du        2 SUP2    0.0000
     33 H16       -1.8743    2.4851   -0.1166 Du        2 SUP2    0.0000
@<TRIPOS>BOND
     1    1    6 1
     2    2    7 1
     3    3    4 2
     4    5    3 2
     5    6    3 1
     6    7    6 2
     7    8    7 1
     8    9    1 2
     9   10    9 1
    10   11   10 1
    11   12   10 1
    12   13   10 1
    13   14    2 1
    14   15   14 1
    15   16   14 1
    16   17   14 1
    17   18   17 ar
    18   19   18 1
    19   20   18 ar
    20   21   20 1
    21   22   20 ar
    22   23   22 ar
    23   24   23 1
    24   25   17 ar
    25   26   25 1
    26   27   22 1
    27   28   27 1
    28   29   27 1
    29   30   27 1
    30    2    9 1
    31   23   25 ar
@<TRIPOS>SUBSTRUCTURE
     1 RES1 1
     2 SUP2 31

@<TRIPOS>CRYSIN
  13.2661    8.4355   11.2895  90.0000 110.0750  90.0000  14 1

