# MOL2 file generated by ConQuest
# Please check atom types

@<TRIPOS>MOLECULE
ENUNEI
    46    47     1
SMALL
NO_CHARGES
****
Generated from CSD

@<TRIPOS>ATOM
      1 N1        15.9643    7.7359    8.9589 N.2       1 RES1    0.0000
      2 N2        15.2714    9.7161    9.7184 N.3       1 RES1    0.0000
      3 N3        15.6078    8.0762    6.5840 N.pl3     1 RES1    0.0000
      4 O1        16.0089    6.9322    6.3661 O.2       1 RES1    0.0000
      5 O2        15.2369    8.8472    5.6947 O.2       1 RES1    0.0000
      6 O3        11.1784   10.0487    6.9878 O.2       1 RES1    0.0000
      7 O4        13.4396   14.5004    5.7960 O.3       1 RES1    0.0000
      8 O5        15.8628   14.2916    6.6252 O.3       1 RES1    0.0000
      9 C1        15.7640    8.4679   10.0309 C.2       1 RES1    0.0000
     10 C2        15.5585    8.5389    7.9310 C.2       1 RES1    0.0000
     11 C3        15.1170    9.7730    8.3534 C.2       1 RES1    0.0000
     12 C4        15.0186   10.8048   10.6762 C.3       1 RES1    0.0000
     13 H1        15.0090   11.6633   10.1833 H         1 RES1    0.0000
     14 H2        15.7680   10.8383   11.3226 H         1 RES1    0.0000
     15 C5        13.7172   10.6744   11.4491 C.3       1 RES1    0.0000
     16 H3        13.7098    9.7988   11.9100 H         1 RES1    0.0000
     17 H4        13.6909   11.3787   12.1453 H         1 RES1    0.0000
     18 C6        12.4778   10.7849   10.6075 C.3       1 RES1    0.0000
     19 H5        12.4264   10.0004   10.0064 H         1 RES1    0.0000
     20 H6        12.5438   11.5947   10.0421 H         1 RES1    0.0000
     21 C7        11.2109   10.8589   11.4295 C.3       1 RES1    0.0000
     22 H7        11.1257   10.0476   11.9717 H         1 RES1    0.0000
     23 H8        10.4377   10.9355   10.8325 H         1 RES1    0.0000
     24 H9        11.2474   11.6418   12.0171 H         1 RES1    0.0000
     25 C8        15.9681    7.9940   11.4285 C.3       1 RES1    0.0000
     26 H10       15.0974    7.8256   11.8467 H         1 RES1    0.0000
     27 H11       16.4488    8.6792   11.9392 H         1 RES1    0.0000
     28 H12       16.4923    7.1664   11.4199 H         1 RES1    0.0000
     29 C9        14.6210   10.9735    7.6465 C.ar      1 RES1    0.0000
     30 C10       13.3085   11.0769    7.1871 C.ar      1 RES1    0.0000
     31 C11       12.8823   12.2637    6.5743 C.ar      1 RES1    0.0000
     32 H13       11.9846   12.3396    6.2739 H         1 RES1    0.0000
     33 C12       13.7490   13.3215    6.4008 C.ar      1 RES1    0.0000
     34 C13       15.0825   13.2101    6.8539 C.ar      1 RES1    0.0000
     35 C14       15.5028   12.0462    7.4816 C.ar      1 RES1    0.0000
     36 H14       16.3952   11.9779    7.8010 H         1 RES1    0.0000
     37 C15       12.3479    9.9649    7.3150 C.2       1 RES1    0.0000
     38 H15       12.6582    9.1410    7.6712 H         1 RES1    0.0000
     39 C16       12.1422   14.5991    5.2009 C.3       1 RES1    0.0000
     40 H16       12.0324   13.8867    4.5358 H         1 RES1    0.0000
     41 H17       12.0484   15.4710    4.7630 H         1 RES1    0.0000
     42 H18       11.4559   14.5073    5.8942 H         1 RES1    0.0000
     43 C17       17.2532   14.1644    6.9295 C.3       1 RES1    0.0000
     44 H19       17.3628   13.9868    7.8870 H         1 RES1    0.0000
     45 H20       17.7162   14.9963    6.6958 H         1 RES1    0.0000
     46 H21       17.6337   13.4234    6.4135 H         1 RES1    0.0000
@<TRIPOS>BOND
     1    1    9 2
     2    2    9 1
     3    3    4 2
     4    5    3 2
     5    6   37 2
     6    7   33 1
     7    8   34 1
     8    9   25 1
     9   10    1 1
    10   11    2 1
    11   12    2 1
    12   13   12 1
    13   14   12 1
    14   15   12 1
    15   16   15 1
    16   17   15 1
    17   18   15 1
    18   19   18 1
    19   20   18 1
    20   21   18 1
    21   22   21 1
    22   23   21 1
    23   24   21 1
    24   25   26 1
    25   27   25 1
    26   28   25 1
    27   29   11 1
    28   30   29 ar
    29   31   30 ar
    30   32   31 1
    31   33   31 ar
    32   34   33 ar
    33   35   29 ar
    34   36   35 1
    35   37   30 1
    36   38   37 1
    37   39    7 1
    38   40   39 1
    39   41   39 1
    40   42   39 1
    41   43    8 1
    42   44   43 1
    43   45   43 1
    44   46   43 1
    45    3   10 1
    46   10   11 2
    47   34   35 ar
@<TRIPOS>SUBSTRUCTURE
     1 RES1 1

@<TRIPOS>CRYSIN
  14.4847   14.2985   16.2284  90.0000  90.0000  90.0000  61 1

