# MOL2 file generated by ConQuest
# Please check atom types

@<TRIPOS>MOLECULE
ENUNOS
    38    40     1
SMALL
NO_CHARGES
****
Generated from CSD

@<TRIPOS>ATOM
      1 N1         1.5062    1.6125    9.0911 N.3       1 RES1    0.0000
      2 N2         1.4677    3.7703    8.5322 N.2       1 RES1    0.0000
      3 N3         3.6501    4.4647    9.3092 N.pl3     1 RES1    0.0000
      4 N4         7.6520   -1.7925   12.1395 N.1       1 RES1    0.0000
      5 O1         3.3968    5.5908    8.8909 O.2       1 RES1    0.0000
      6 O2         4.7116    4.1540    9.8443 O.2       1 RES1    0.0000
      7 C1         2.7138    2.1296    9.5310 C.2       1 RES1    0.0000
      8 C2         2.6396    3.4558    9.1606 C.2       1 RES1    0.0000
      9 C3         0.8084    2.6406    8.5200 C.2       1 RES1    0.0000
     10 H1        -0.0630    2.5451    8.1530 H         1 RES1    0.0000
     11 C4         0.8893    0.3323    9.4823 C.3       1 RES1    0.0000
     12 H2         1.5645   -0.3895    9.4249 H         1 RES1    0.0000
     13 H3         0.1554    0.1147    8.8549 H         1 RES1    0.0000
     14 C5         0.3372    0.4015   10.9070 C.3       1 RES1    0.0000
     15 H4        -0.1471   -0.4391   11.1072 H         1 RES1    0.0000
     16 H5         1.0923    0.4759   11.5434 H         1 RES1    0.0000
     17 C6        -0.5993    1.5727   11.1116 C.ar      1 RES1    0.0000
     18 C7        -0.2418    2.6341   11.9310 C.ar      1 RES1    0.0000
     19 H6         0.5782    2.6089   12.4093 H         1 RES1    0.0000
     20 C8        -1.0872    3.7414   12.0530 C.ar      1 RES1    0.0000
     21 H7        -0.8399    4.4643   12.6177 H         1 RES1    0.0000
     22 C9        -2.2768    3.7892   11.3577 C.ar      1 RES1    0.0000
     23 H8        -2.8475    4.5436   11.4440 H         1 RES1    0.0000
     24 C10       -2.6353    2.7430   10.5381 C.ar      1 RES1    0.0000
     25 H9        -3.4521    2.7760   10.0534 H         1 RES1    0.0000
     26 C11       -1.8006    1.6381   10.4226 C.ar      1 RES1    0.0000
     27 H10       -2.0580    0.9149    9.8622 H         1 RES1    0.0000
     28 C12        3.7610    1.2860   10.1235 C.ar      1 RES1    0.0000
     29 C13        4.3246    1.5932   11.3569 C.ar      1 RES1    0.0000
     30 H11        4.0123    2.3469   11.8435 H         1 RES1    0.0000
     31 C14        5.3397    0.8069   11.8835 C.ar      1 RES1    0.0000
     32 H12        5.7316    1.0240   12.7214 H         1 RES1    0.0000
     33 C15        5.7741   -0.3025   11.1693 C.ar      1 RES1    0.0000
     34 C16        5.2168   -0.6348    9.9334 C.ar      1 RES1    0.0000
     35 H13        5.5174   -1.4008    9.4573 H         1 RES1    0.0000
     36 C17        4.2172    0.1722    9.4123 C.ar      1 RES1    0.0000
     37 H14        3.8394   -0.0326    8.5655 H         1 RES1    0.0000
     38 C18        6.8251   -1.1369   11.7157 C.1       1 RES1    0.0000
@<TRIPOS>BOND
     1    1    7 1
     2    2    8 1
     3    3    5 2
     4    4   38 3
     5    6    3 2
     6    7    8 2
     7    8    3 1
     8    9    1 1
     9   10    9 1
    10   11    1 1
    11   12   11 1
    12   13   11 1
    13   14   11 1
    14   15   14 1
    15   16   14 1
    16   17   14 1
    17   18   17 ar
    18   19   18 1
    19   20   18 ar
    20   21   20 1
    21   22   20 ar
    22   23   22 1
    23   24   22 ar
    24   25   24 1
    25   26   17 ar
    26   27   26 1
    27   28    7 1
    28   29   28 ar
    29   30   29 1
    30   31   29 ar
    31   32   31 1
    32   33   31 ar
    33   34   33 ar
    34   35   34 1
    35   36   28 ar
    36   37   36 1
    37   38   33 1
    38    2    9 2
    39   24   26 ar
    40   34   36 ar
@<TRIPOS>SUBSTRUCTURE
     1 RES1 1

@<TRIPOS>CRYSIN
  10.4755   14.1633   10.9706  90.0000 100.1980  90.0000   9 1

