# MOL2 file generated by ConQuest
# Please check atom types

@<TRIPOS>MOLECULE
ENUNAE
    53    55     1
SMALL
NO_CHARGES
****
Generated from CSD

@<TRIPOS>ATOM
      1 N1         4.7052    6.2095    1.6538 N.2       1 RES1    0.0000
      2 N2         5.8143    8.1356    1.6357 N.pl3     1 RES1    0.0000
      3 N3         2.4462    7.0158    1.9028 N.pl3     1 RES1    0.0000
      4 O1         2.0424    5.8653    1.7776 O.2       1 RES1    0.0000
      5 O2         1.6989    7.9779    2.0870 O.2       1 RES1    0.0000
      6 O3         2.8172   10.0225    5.3356 O.2       1 RES1    0.0000
      7 O4         2.7398   13.8368    1.8935 O.3       1 RES1    0.0000
      8 O5         3.8554   12.8742   -0.2088 O.3       1 RES1    0.0000
      9 C1         3.8562    7.2582    1.8251 C.2       1 RES1    0.0000
     10 C2         4.4921    8.4804    1.8349 C.2       1 RES1    0.0000
     11 C3         5.8912    6.7637    1.5476 C.2       1 RES1    0.0000
     12 C4         7.1608    6.0095    1.3404 C.3       1 RES1    0.0000
     13 H1         6.9991    5.0527    1.4813 H         1 RES1    0.0000
     14 H2         7.8359    6.3248    1.9772 H         1 RES1    0.0000
     15 H3         7.4821    6.1556    0.4269 H         1 RES1    0.0000
     16 C5         4.0418    9.8852    1.9363 C.ar      1 RES1    0.0000
     17 C6         3.4843   10.4188    3.0984 C.ar      1 RES1    0.0000
     18 C7         3.0351   11.7513    3.1135 C.ar      1 RES1    0.0000
     19 H4         2.6457   12.1064    3.9047 H         1 RES1    0.0000
     20 C8         3.1529   12.5463    1.9962 C.ar      1 RES1    0.0000
     21 C9         3.7613   12.0201    0.8333 C.ar      1 RES1    0.0000
     22 C10        4.1897   10.7028    0.8068 C.ar      1 RES1    0.0000
     23 H5         4.5865   10.3504    0.0177 H         1 RES1    0.0000
     24 C11        3.3419    9.6233    4.3250 C.2       1 RES1    0.0000
     25 H6         3.6850    8.7369    4.3220 H         1 RES1    0.0000
     26 C12        1.9611   14.3523    2.9658 C.3       1 RES1    0.0000
     27 H7         1.1459   13.8178    3.0637 H         1 RES1    0.0000
     28 H8         1.7209   15.2829    2.7765 H         1 RES1    0.0000
     29 H9         2.4801   14.3106    3.7956 H         1 RES1    0.0000
     30 C13        4.5466   12.4197   -1.3728 C.3       1 RES1    0.0000
     31 H10        5.4467   12.1242   -1.1234 H         1 RES1    0.0000
     32 H11        4.6115   13.1513   -2.0206 H         1 RES1    0.0000
     33 H12        4.0563   11.6714   -1.7734 H         1 RES1    0.0000
     34 C14        6.9407    9.0764    1.6357 C.3       1 RES1    0.0000
     35 H13        6.6984    9.8769    1.1058 H         1 RES1    0.0000
     36 H14        7.7227    8.6508    1.2037 H         1 RES1    0.0000
     37 C15        7.3146    9.5006    3.0432 C.3       1 RES1    0.0000
     38 H15        7.6694    8.7206    3.5388 H         1 RES1    0.0000
     39 H16        6.5060    9.8205    3.5163 H         1 RES1    0.0000
     40 C16        8.3670   10.6133    3.0263 C.3       1 RES1    0.0000
     41 H17        8.6523   10.8076    3.9545 H         1 RES1    0.0000
     42 H18        9.1606   10.3044    2.5213 H         1 RES1    0.0000
     43 C17        7.8351   11.8742    2.3956 C.ar      1 RES1    0.0000
     44 C18        8.1945   12.2523    1.1079 C.ar      1 RES1    0.0000
     45 H19        8.8198   11.7264    0.6227 H         1 RES1    0.0000
     46 C19        7.6542   13.3841    0.5230 C.ar      1 RES1    0.0000
     47 H20        7.9115   13.6278   -0.3579 H         1 RES1    0.0000
     48 C20        6.7448   14.1613    1.2101 C.ar      1 RES1    0.0000
     49 H21        6.3742   14.9370    0.8073 H         1 RES1    0.0000
     50 C21        6.3801   13.7967    2.4946 C.ar      1 RES1    0.0000
     51 H22        5.7550   14.3255    2.9755 H         1 RES1    0.0000
     52 C22        6.9214   12.6648    3.0828 C.ar      1 RES1    0.0000
     53 H23        6.6650   12.4270    3.9657 H         1 RES1    0.0000
@<TRIPOS>BOND
     1    1    9 1
     2    2   10 1
     3    3    4 2
     4    5    3 2
     5    6   24 2
     6    7   20 1
     7    8   21 1
     8    9    3 1
     9   10    9 2
    10   11    1 2
    11   12   11 1
    12   13   12 1
    13   14   12 1
    14   15   12 1
    15   16   10 1
    16   17   16 ar
    17   18   17 ar
    18   19   18 1
    19   20   18 ar
    20   21   20 ar
    21   22   16 ar
    22   23   22 1
    23   24   17 1
    24   25   24 1
    25   26    7 1
    26   27   26 1
    27   28   26 1
    28   29   26 1
    29   30    8 1
    30   31   30 1
    31   32   30 1
    32   33   30 1
    33   34    2 1
    34   35   34 1
    35   36   34 1
    36   37   34 1
    37   38   37 1
    38   39   37 1
    39   40   37 1
    40   41   40 1
    41   42   40 1
    42   43   40 1
    43   44   43 ar
    44   45   44 1
    45   46   44 ar
    46   47   46 1
    47   48   46 ar
    48   49   48 1
    49   50   48 ar
    50   51   50 1
    51   52   43 ar
    52   53   52 1
    53    2   11 1
    54   21   22 ar
    55   50   52 ar
@<TRIPOS>SUBSTRUCTURE
     1 RES1 1

@<TRIPOS>CRYSIN
   8.5834   14.8435   16.2877  90.0000  99.8230  90.0000 231 1

