# MOL2 file generated by ConQuest
# Please check atom types

@<TRIPOS>MOLECULE
EPAHOT
    17    18     1
SMALL
NO_CHARGES
****
Generated from CSD

@<TRIPOS>ATOM
      1 C1         3.3783    3.3832   13.0091 C.2       1 RES1    0.0000
      2 H1         3.3847    4.3329   12.9798 H         1 RES1    0.0000
      3 C2         4.1628    2.6297   12.0106 C.2       1 RES1    0.0000
      4 C3         5.1418    1.1003   10.8162 C.2       1 RES1    0.0000
      5 C4         4.3033    1.2332   11.8749 C.2       1 RES1    0.0000
      6 H2         3.9055    0.5480   12.4000 H         1 RES1    0.0000
      7 C5         5.6850   -0.0636   10.1704 C.2       1 RES1    0.0000
      8 C6         6.8061   -1.1451    8.6342 C.2       1 RES1    0.0000
      9 H3         7.3441   -1.3325    7.8742 H         1 RES1    0.0000
     10 C7         6.2874   -2.0784    9.4530 C.2       1 RES1    0.0000
     11 H4         6.3894   -3.0195    9.3773 H         1 RES1    0.0000
     12 C8         5.5561   -1.3821   10.4551 C.2       1 RES1    0.0000
     13 H5         5.0736   -1.7650   11.1786 H         1 RES1    0.0000
     14 N1         4.8519    3.3039   11.1134 N.2       1 RES1    0.0000
     15 O1         2.7260    2.8254   13.8645 O.2       1 RES1    0.0000
     16 O2         5.4873    2.3277   10.3344 O.3       1 RES1    0.0000
     17 O3         6.4520    0.1160    9.0477 O.3       1 RES1    0.0000
@<TRIPOS>BOND
     1    1    2 1
     2    3    1 1
     3    4    5 2
     4    5    3 1
     5    6    5 1
     6    7    4 1
     7    8    9 1
     8   10    8 2
     9   11   10 1
    10   12    7 2
    11   13   12 1
    12   14    3 2
    13   15    1 2
    14   16    4 1
    15   17    7 1
    16    8   17 1
    17   10   12 1
    18   14   16 1
@<TRIPOS>SUBSTRUCTURE
     1 RES1 1

@<TRIPOS>CRYSIN
   8.1628    7.9648   11.0496  90.0000  95.2300  90.0000  14 1

