# MOL2 file generated by ConQuest
# Please check atom types

@<TRIPOS>MOLECULE
EPANAM
    41    42     1
SMALL
NO_CHARGES
****
Generated from CSD

@<TRIPOS>ATOM
      1 O1         1.7774  -15.1216    1.5570 O.2       1 RES1    0.0000
      2 O2         2.0982  -14.2326    3.4642 O.2       1 RES1    0.0000
      3 O3        -2.5616  -10.2370   -0.2002 O.2       1 RES1    0.0000
      4 O4        -5.3831   -6.2181    6.5175 O.2       1 RES1    0.0000
      5 N1         1.5215  -14.2769    2.3904 N.pl3     1 RES1    0.0000
      6 N2        -2.9881   -9.5155    1.8510 N.am      1 RES1    0.0000
      7 H1        -3.5324   -8.9442    1.5084 H         1 RES1    0.0000
      8 N3        -2.8280   -9.5376    3.2060 N.2       1 RES1    0.0000
      9 C1         0.4988  -13.2808    2.0785 C.ar      1 RES1    0.0000
     10 C2         0.2559  -12.2785    2.9861 C.ar      1 RES1    0.0000
     11 H2         0.7188  -12.2379    3.7914 H         1 RES1    0.0000
     12 C3        -0.6814  -11.3489    2.6691 C.ar      1 RES1    0.0000
     13 H3        -0.8785  -10.6815    3.2852 H         1 RES1    0.0000
     14 C4        -1.3284  -11.3575    1.5058 C.ar      1 RES1    0.0000
     15 C5        -1.0626  -12.3524    0.6136 C.ar      1 RES1    0.0000
     16 H4        -1.5130  -12.3770   -0.1994 H         1 RES1    0.0000
     17 C6        -0.1182  -13.3350    0.9127 C.ar      1 RES1    0.0000
     18 H5         0.0718  -14.0134    0.3042 H         1 RES1    0.0000
     19 C7        -2.3241  -10.3577    1.0175 C.2       1 RES1    0.0000
     20 C8        -3.5034   -8.7114    3.9397 C.2       1 RES1    0.0000
     21 C9        -3.2236   -8.7853    5.3714 C.2       1 RES1    0.0000
     22 C10       -3.8252   -7.9567    6.1921 C.2       1 RES1    0.0000
     23 H6        -3.6301   -8.0059    7.0997 H         1 RES1    0.0000
     24 C11       -4.7999   -6.9507    5.7293 C.2       1 RES1    0.0000
     25 C12       -5.0918   -6.8916    4.2849 C.2       1 RES1    0.0000
     26 C13       -4.4777   -7.7498    3.4463 C.2       1 RES1    0.0000
     27 H7        -4.6797   -7.7264    2.5387 H         1 RES1    0.0000
     28 C14       -2.2314   -9.8061    5.8572 C.3       1 RES1    0.0000
     29 H8        -2.0677   -9.6719    6.7954 H         1 RES1    0.0000
     30 H9        -1.4088   -9.7088    5.3714 H         1 RES1    0.0000
     31 H10       -2.5840  -10.6877    5.7166 H         1 RES1    0.0000
     32 C15       -6.0176   -5.7920    3.7991 C.3       1 RES1    0.0000
     33 H11       -6.7948   -5.7810    4.3974 H         1 RES1    0.0000
     34 C16       -5.3177   -4.4548    3.9474 C.3       1 RES1    0.0000
     35 H12       -5.1157   -4.3009    4.8729 H         1 RES1    0.0000
     36 H13       -5.8904   -3.7555    3.6253 H         1 RES1    0.0000
     37 H14       -4.5031   -4.4622    3.4412 H         1 RES1    0.0000
     38 C17       -6.5250   -5.9718    2.4237 C.3       1 RES1    0.0000
     39 H15       -6.8607   -6.8657    2.3188 H         1 RES1    0.0000
     40 H16       -5.8121   -5.8240    1.7973 H         1 RES1    0.0000
     41 H17       -7.2318   -5.3438    2.2575 H         1 RES1    0.0000
@<TRIPOS>BOND
     1    1    5 2
     2    2    5 2
     3    3   19 2
     4    4   24 2
     5    5    9 1
     6    6    7 1
     7    8    6 1
     8    9   10 ar
     9   10   11 1
    10   12   10 ar
    11   13   12 1
    12   14   12 ar
    13   15   14 ar
    14   16   15 1
    15   17    9 ar
    16   18   17 1
    17   19    6 1
    18   20    8 2
    19   21   20 1
    20   22   21 2
    21   23   22 1
    22   24   22 1
    23   25   24 1
    24   26   20 1
    25   27   26 1
    26   28   21 1
    27   29   28 1
    28   30   28 1
    29   31   28 1
    30   32   25 1
    31   33   32 1
    32   34   32 1
    33   35   34 1
    34   36   34 1
    35   37   34 1
    36   38   32 1
    37   39   38 1
    38   40   38 1
    39   41   38 1
    40   14   19 1
    41   15   17 ar
    42   25   26 2
@<TRIPOS>SUBSTRUCTURE
     1 RES1 1

@<TRIPOS>CRYSIN
   4.9885   12.3130   25.5660  90.0000  90.0000  90.0000  19 1

