# MOL2 file generated by ConQuest
# Please check atom types

@<TRIPOS>MOLECULE
EPDSOX
    44    45     1
SMALL
NO_CHARGES
****
Generated from CSD

@<TRIPOS>ATOM
      1 C1         1.1739    2.5906    0.2485 C.3       1 RES1    0.0000
      2 C2         2.5624    3.1323    0.5597 C.3       1 RES1    0.0000
      3 C3         2.9941    4.1607   -0.4365 C.2       1 RES1    0.0000
      4 C4         2.3273    4.2407   -1.7458 C.2       1 RES1    0.0000
      5 C5         1.4320    3.3237   -2.1176 C.2       1 RES1    0.0000
      6 C6         0.6882    3.4407   -3.4197 C.3       1 RES1    0.0000
      7 C7         0.0907    2.1472   -3.9404 C.3       1 RES1    0.0000
      8 C8        -0.7770    1.4884   -2.9155 C.3       1 RES1    0.0000
      9 C9        -0.4481    1.8378   -1.4768 C.3       1 RES1    0.0000
     10 C10        1.0433    2.1547   -1.2149 C.3       1 RES1    0.0000
     11 C11       -0.5482    2.2818   -5.3494 C.3       1 RES1    0.0000
     12 C12       -1.2095    0.9574   -5.7509 C.3       1 RES1    0.0000
     13 C13        0.5355    2.5112   -6.3804 C.3       1 RES1    0.0000
     14 C14        2.7230    5.4191   -2.6126 C.3       1 RES1    0.0000
     15 C15        1.9134    0.9316   -1.4757 C.3       1 RES1    0.0000
     16 C16       -1.5445    3.4014   -5.4387 C.3       1 RES1    0.0000
     17 N1         3.9397    4.9941   -0.2218 N.2       1 RES1    0.0000
     18 O1         4.5291    4.8364    1.0526 O.3       1 RES1    0.0000
     19 H1         0.3917    3.3254    0.3800 H         1 RES1    0.0000
     20 H2         0.9922    1.7998    0.8318 H         1 RES1    0.0000
     21 H3         3.2019    2.4184    0.5648 H         1 RES1    0.0000
     22 H4         2.4830    3.4458    1.4788 H         1 RES1    0.0000
     23 H5         1.1954    3.8556   -4.0359 H         1 RES1    0.0000
     24 H6        -0.2360    4.1177   -3.1117 H         1 RES1    0.0000
     25 H7         0.8540    1.4625   -4.0462 H         1 RES1    0.0000
     26 H8        -0.5616    0.3953   -2.9063 H         1 RES1    0.0000
     27 H9        -1.7974    1.6254   -3.1938 H         1 RES1    0.0000
     28 H10       -0.7345    1.2755   -0.6675 H         1 RES1    0.0000
     29 H11       -0.9935    2.7095   -1.0783 H         1 RES1    0.0000
     30 H12       -1.5069    1.0839   -6.7163 H         1 RES1    0.0000
     31 H13       -1.8764    0.9330   -5.2683 H         1 RES1    0.0000
     32 H14       -0.3420    0.0683   -5.8639 H         1 RES1    0.0000
     33 H15        0.0829    2.5548   -7.2811 H         1 RES1    0.0000
     34 H16        1.1264    1.7935   -6.3260 H         1 RES1    0.0000
     35 H17        0.9859    3.3180   -6.2644 H         1 RES1    0.0000
     36 H18        2.7045    6.2210   -2.1463 H         1 RES1    0.0000
     37 H19        2.0322    5.7692   -3.2657 H         1 RES1    0.0000
     38 H20        3.2436    5.2299   -3.3992 H         1 RES1    0.0000
     39 H21        1.5599    0.2046   -0.9961 H         1 RES1    0.0000
     40 H22        2.9310    1.2523   -1.1913 H         1 RES1    0.0000
     41 H23        1.7800    0.6730   -2.4544 H         1 RES1    0.0000
     42 H24       -1.9143    3.4290   -6.3671 H         1 RES1    0.0000
     43 H25       -1.0648    4.3690   -5.3504 H         1 RES1    0.0000
     44 H26       -2.2147    3.3959   -4.7445 H         1 RES1    0.0000
@<TRIPOS>BOND
     1    1    2 1
     2    2    3 1
     3    3    4 1
     4    4    5 2
     5    5    6 1
     6    6    7 1
     7    7    8 1
     8    8    9 1
     9    9   10 1
    10   10    1 1
    11   11    7 1
    12   12   11 1
    13   13   11 1
    14   14    4 1
    15   15   10 1
    16   16   11 1
    17   17    3 2
    18   18   17 1
    19   19    1 1
    20   20    1 1
    21   21    2 1
    22   22    2 1
    23   23    6 1
    24   24    6 1
    25   25    7 1
    26   26    8 1
    27   27    8 1
    28   28    9 1
    29   29    9 1
    30   30   12 1
    31   31   12 1
    32   32   12 1
    33   33   13 1
    34   34   13 1
    35   35   13 1
    36   36   14 1
    37   37   14 1
    38   38   14 1
    39   39   15 1
    40   40   15 1
    41   41   15 1
    42   42   16 1
    43   43   16 1
    44   44   16 1
    45    5   10 1
@<TRIPOS>SUBSTRUCTURE
     1 RES1 1

@<TRIPOS>CRYSIN
   6.2900   12.0100   10.3410  85.2000  95.5600 101.0900   2 1

