# MOL2 file generated by ConQuest
# Please check atom types

@<TRIPOS>MOLECULE
EQIXOS
    28    28     1
SMALL
NO_CHARGES
****
Generated from CSD

@<TRIPOS>ATOM
      1 O1        -0.6873    9.4893    9.2980 O.3       1 RES1    0.0000
      2 O2        -0.2045    7.6277    8.0971 O.3       1 RES1    0.0000
      3 O3         0.4490    8.3668   11.3665 O.2       1 RES1    0.0000
      4 O4         4.9311    4.0147   14.2958 O.2       1 RES1    0.0000
      5 O5         5.5722    2.9970   12.4972 O.2       1 RES1    0.0000
      6 N1        -0.6281    8.0744    9.3683 N.am      1 RES1    0.0000
      7 N2         1.0259    6.5728   10.0638 N.am      1 RES1    0.0000
      8 H1         0.8357    6.1969    9.2911 H         1 RES1    0.0000
      9 N3         4.8578    3.8041   13.0690 N.pl3     1 RES1    0.0000
     10 C1         0.3586    7.7177   10.3561 C.2       1 RES1    0.0000
     11 C2         1.9840    5.9226   10.8522 C.ar      1 RES1    0.0000
     12 C3         2.3120    6.3358   12.1461 C.ar      1 RES1    0.0000
     13 H2         1.8884    7.0957   12.5271 H         1 RES1    0.0000
     14 C4         3.2526    5.6343   12.8633 C.ar      1 RES1    0.0000
     15 H3         3.4720    5.9035   13.7481 H         1 RES1    0.0000
     16 C5         3.8708    4.5517   12.3097 C.ar      1 RES1    0.0000
     17 C6         3.5676    4.1329   11.0248 C.ar      1 RES1    0.0000
     18 H4         4.0007    3.3766   10.6476 H         1 RES1    0.0000
     19 C7         2.6277    4.8327   10.3037 C.ar      1 RES1    0.0000
     20 H5         2.4189    4.5620    9.4177 H         1 RES1    0.0000
     21 C8        -1.9770    9.9051    9.7475 C.3       1 RES1    0.0000
     22 H6        -2.0231   10.8844    9.7488 H         1 RES1    0.0000
     23 H7        -2.1306    9.5700   10.6553 H         1 RES1    0.0000
     24 H8        -2.6636    9.5463    9.1466 H         1 RES1    0.0000
     25 C9        -1.3633    7.4528    7.2659 C.3       1 RES1    0.0000
     26 H9        -1.0877    7.1194    6.3863 H         1 RES1    0.0000
     27 H10       -1.8224    8.3117    7.1598 H         1 RES1    0.0000
     28 H11       -1.9710    6.8074    7.6840 H         1 RES1    0.0000
@<TRIPOS>BOND
     1    1    6 1
     2    2    6 1
     3    3   10 2
     4    4    9 2
     5    5    9 2
     6    6   10 1
     7    7    8 1
     8    9   16 1
     9   10    7 1
    10   11    7 1
    11   12   11 ar
    12   13   12 1
    13   14   12 ar
    14   15   14 1
    15   16   14 ar
    16   17   16 ar
    17   18   17 1
    18   19   11 ar
    19   20   19 1
    20   21    1 1
    21   22   21 1
    22   23   21 1
    23   24   21 1
    24   25    2 1
    25   26   25 1
    26   27   25 1
    27   28   25 1
    28   17   19 ar
@<TRIPOS>SUBSTRUCTURE
     1 RES1 1

@<TRIPOS>CRYSIN
   4.8371   16.9591   12.7986  90.0000  92.6090  90.0000  14 1

