# MOL2 file generated by ConQuest
# Please check atom types

@<TRIPOS>MOLECULE
EQOCET
    39    41     1
SMALL
NO_CHARGES
****
Generated from CSD

@<TRIPOS>ATOM
      1 O1         3.3803    1.4075    4.9121 O.2       1 RES1    0.0000
      2 O2         1.5939    3.3981    6.5469 O.3       1 RES1    0.0000
      3 O3         0.7738    1.3409    7.0215 O.2       1 RES1    0.0000
      4 O4         3.5981   -0.1176    3.3805 O.2       1 RES1    0.0000
      5 O5         1.0773    5.5486    3.5038 O.2       1 RES1    0.0000
      6 O6         1.6067   -1.3966   -2.2573 O.2       1 RES1    0.0000
      7 N1         1.7295    3.3856    1.7873 N.3       1 RES1    0.0000
      8 H1         1.6835    4.1983    1.5084 H         1 RES1    0.0000
      9 N2         0.7213    3.4107    4.0153 N.am      1 RES1    0.0000
     10 N3         3.0583    0.8433    3.8505 N.pl3     1 RES1    0.0000
     11 N4         1.5825   -1.4036   -1.0154 N.pl3     1 RES1    0.0000
     12 C1         0.2464    2.2923    4.8612 C.3       1 RES1    0.0000
     13 H2        -0.7255    2.3597    4.9691 H         1 RES1    0.0000
     14 C2         0.9137    2.2727    6.2541 C.2       1 RES1    0.0000
     15 C3         1.6609    2.3103    0.9630 C.ar      1 RES1    0.0000
     16 C4         1.8109    1.4240    3.1741 C.3       1 RES1    0.0000
     17 C5         1.6808   -0.1309    1.0739 C.ar      1 RES1    0.0000
     18 H3         1.7104   -0.9318    1.5454 H         1 RES1    0.0000
     19 C6         1.5747   -0.0995   -0.2820 C.ar      1 RES1    0.0000
     20 C7         0.5805    1.0345    4.0431 C.3       1 RES1    0.0000
     21 H4        -0.1695    0.7821    3.4807 H         1 RES1    0.0000
     22 H5         0.7959    0.2915    4.6286 H         1 RES1    0.0000
     23 C8         1.6139    2.2618   -0.4191 C.ar      1 RES1    0.0000
     24 H6         1.6089    3.0533   -0.9075 H         1 RES1    0.0000
     25 C9         2.1437    3.4373    7.8982 C.3       1 RES1    0.0000
     26 H7         2.6095    4.2665    8.0291 H         1 RES1    0.0000
     27 H8         2.7534    2.7053    8.0168 H         1 RES1    0.0000
     28 H9         1.4302    3.3668    8.5361 H         1 RES1    0.0000
     29 C10        1.7421    1.1050    1.7195 C.ar      1 RES1    0.0000
     30 C11       -0.7933    5.0580    4.9352 C.3       1 RES1    0.0000
     31 H10       -0.5738    4.9969    5.8674 H         1 RES1    0.0000
     32 H11       -1.4890    4.4295    4.7287 H         1 RES1    0.0000
     33 H12       -1.0959    5.9475    4.7349 H         1 RES1    0.0000
     34 C12        1.5757    1.0760   -1.0662 C.ar      1 RES1    0.0000
     35 H13        1.5502    1.0353   -1.9938 H         1 RES1    0.0000
     36 C13        1.8868    3.0282    3.1802 C.3       1 RES1    0.0000
     37 H14        2.7317    3.3566    3.5516 H         1 RES1    0.0000
     38 C14        0.4004    4.7524    4.1263 C.2       1 RES1    0.0000
     39 O7         1.5091   -2.4632   -0.3328 O.2       1 RES1    0.0000
@<TRIPOS>BOND
     1    1   10 2
     2    2   14 1
     3    3   14 2
     4    4   10 2
     5    5   38 2
     6    6   11 2
     7    7    8 1
     8    9   12 1
     9   10   16 1
    10   11   19 1
    11   12   13 1
    12   14   12 1
    13   15    7 1
    14   16   20 1
    15   17   18 1
    16   19   17 ar
    17   20   12 1
    18   21   20 1
    19   22   20 1
    20   23   15 ar
    21   24   23 1
    22   25    2 1
    23   26   25 1
    24   27   25 1
    25   28   25 1
    26   29   15 ar
    27   30   31 1
    28   32   30 1
    29   33   30 1
    30   34   19 ar
    31   35   34 1
    32   36    7 1
    33   37   36 1
    34   38    9 1
    35   39   11 2
    36    9   36 1
    37   16   29 1
    38   16   36 1
    39   17   29 ar
    40   23   34 ar
    41   30   38 1
@<TRIPOS>SUBSTRUCTURE
     1 RES1 1

@<TRIPOS>CRYSIN
   6.3831    7.8370   15.4100  90.0000  90.9100  90.0000   4 1

