# MOL2 file generated by ConQuest
# Please check atom types

@<TRIPOS>MOLECULE
EQUMEK
    70    78     1
SMALL
NO_CHARGES
****
Generated from CSD

@<TRIPOS>ATOM
      1 C1         3.2922    9.2573    4.6669 C.3       1 RES1    0.0000
      2 H1         2.7859    9.3876    5.5198 H         1 RES1    0.0000
      3 C2         3.3880   10.5994    3.8340 C.3       1 RES1    0.0000
      4 C3         4.3816   10.2957    2.6981 C.ar      1 RES1    0.0000
      5 C4         3.8149    9.3479    1.8729 C.ar      1 RES1    0.0000
      6 C5         2.4002    9.0187    2.3701 C.3       1 RES1    0.0000
      7 C6         2.5813    8.2454    3.7256 C.3       1 RES1    0.0000
      8 H2         1.6983    7.9628    4.1000 H         1 RES1    0.0000
      9 C7         2.1017   10.4132    2.9872 C.2       1 RES1    0.0000
     10 C8         5.7455   10.7257    2.5421 C.ar      1 RES1    0.0000
     11 C9         6.4045   11.5820    3.4661 C.ar      1 RES1    0.0000
     12 H3         5.9219   11.9221    4.2105 H         1 RES1    0.0000
     13 C10        7.7177   11.9265    3.3063 C.ar      1 RES1    0.0000
     14 H4         8.1425   12.4937    3.9396 H         1 RES1    0.0000
     15 C11        8.4367   11.4390    2.2036 C.ar      1 RES1    0.0000
     16 H5         9.3433   11.6963    2.0815 H         1 RES1    0.0000
     17 C12        7.8427   10.5967    1.3031 C.ar      1 RES1    0.0000
     18 H6         8.3467   10.2730    0.5655 H         1 RES1    0.0000
     19 C13        6.4828   10.1956    1.4485 C.ar      1 RES1    0.0000
     20 C14        5.8850    9.1878    0.5793 C.ar      1 RES1    0.0000
     21 C15        6.6177    8.5768   -0.4713 C.ar      1 RES1    0.0000
     22 H7         7.4787    8.9141   -0.6903 H         1 RES1    0.0000
     23 C16        6.1198    7.5174   -1.1765 C.ar      1 RES1    0.0000
     24 H8         6.6358    7.1302   -1.8736 H         1 RES1    0.0000
     25 C17        4.8532    6.9992   -0.8763 C.ar      1 RES1    0.0000
     26 H9         4.5279    6.2368   -1.3401 H         1 RES1    0.0000
     27 C18        4.0846    7.5968    0.0908 C.ar      1 RES1    0.0000
     28 H10        3.2147    7.2599    0.2709 H         1 RES1    0.0000
     29 C19        4.5695    8.7088    0.8255 C.ar      1 RES1    0.0000
     30 C20        3.4743   11.9019    4.5947 C.ar      1 RES1    0.0000
     31 C21        3.7542   11.9748    5.9494 C.ar      1 RES1    0.0000
     32 H11        3.8753   11.1748    6.4477 H         1 RES1    0.0000
     33 C22        3.8599   13.2063    6.5875 C.ar      1 RES1    0.0000
     34 H12        4.0769   13.2472    7.5110 H         1 RES1    0.0000
     35 C23        3.6461   14.3813    5.8640 C.ar      1 RES1    0.0000
     36 H13        3.7065   15.2232    6.2991 H         1 RES1    0.0000
     37 C24        3.3452   14.3220    4.5117 C.ar      1 RES1    0.0000
     38 H14        3.1892   15.1212    4.0216 H         1 RES1    0.0000
     39 C25        3.2736   13.0928    3.8795 C.ar      1 RES1    0.0000
     40 H15        3.0855   13.0544    2.9488 H         1 RES1    0.0000
     41 C26        1.3702    8.5395    1.3818 C.ar      1 RES1    0.0000
     42 C27        1.1966    9.2646    0.1997 C.ar      1 RES1    0.0000
     43 H16        1.6979   10.0591    0.0606 H         1 RES1    0.0000
     44 C28        0.3078    8.8430   -0.7690 C.ar      1 RES1    0.0000
     45 H17        0.2277    9.3276   -1.5825 H         1 RES1    0.0000
     46 C29       -0.4701    7.7101   -0.5573 C.ar      1 RES1    0.0000
     47 H18       -1.0854    7.4203   -1.2201 H         1 RES1    0.0000
     48 C30       -0.3399    7.0110    0.6258 C.ar      1 RES1    0.0000
     49 H19       -0.8883    6.2513    0.7853 H         1 RES1    0.0000
     50 C31        0.5862    7.4067    1.5894 C.ar      1 RES1    0.0000
     51 H20        0.6824    6.9028    2.3892 H         1 RES1    0.0000
     52 C32        4.6623    8.6624    4.9158 C.2       1 RES1    0.0000
     53 C33        3.5274    7.0694    3.6077 C.2       1 RES1    0.0000
     54 C34        5.9246    6.6290    4.1638 C.ar      1 RES1    0.0000
     55 C35        5.8948    5.2621    4.4109 C.ar      1 RES1    0.0000
     56 H21        5.0794    4.8380    4.6489 H         1 RES1    0.0000
     57 C36        7.0647    4.5199    4.3078 C.ar      1 RES1    0.0000
     58 H22        7.0611    3.5825    4.4624 H         1 RES1    0.0000
     59 C37        8.2334    5.1757    3.9747 C.ar      1 RES1    0.0000
     60 C38        8.2729    6.5368    3.7036 C.ar      1 RES1    0.0000
     61 H23        9.0898    6.9574    3.4620 H         1 RES1    0.0000
     62 C39        7.1059    7.2691    3.7905 C.ar      1 RES1    0.0000
     63 H24        7.1071    8.1996    3.5987 H         1 RES1    0.0000
     64 O1         1.1488   11.1283    2.8496 O.2       1 RES1    0.0000
     65 O2         5.5825    9.1507    5.5303 O.2       1 RES1    0.0000
     66 O3         3.3306    6.0252    3.0261 O.2       1 RES1    0.0000
     67 O4        10.5443    5.0354    3.8810 O.2       1 RES1    0.0000
     68 O5         9.4406    3.1816    3.9442 O.2       1 RES1    0.0000
     69 N1         4.7224    7.4090    4.2652 N.am      1 RES1    0.0000
     70 N2         9.4910    4.4061    3.9218 N.pl3     1 RES1    0.0000
@<TRIPOS>BOND
     1    1    2 1
     2    3    1 1
     3    4    3 1
     4    5    4 ar
     5    6    5 1
     6    7    1 1
     7    8    7 1
     8    9    3 1
     9   10    4 ar
    10   11   10 ar
    11   12   11 1
    12   13   11 ar
    13   14   13 1
    14   15   13 ar
    15   16   15 1
    16   17   15 ar
    17   18   17 1
    18   19   10 ar
    19   20   19 ar
    20   21   20 ar
    21   22   21 1
    22   23   21 ar
    23   24   23 1
    24   25   23 ar
    25   26   25 1
    26   27   25 ar
    27   28   27 1
    28   29    5 ar
    29   30    3 1
    30   31   30 ar
    31   32   31 1
    32   33   31 ar
    33   34   33 1
    34   35   33 ar
    35   36   35 1
    36   37   35 ar
    37   38   37 1
    38   39   30 ar
    39   40   39 1
    40   41    6 1
    41   42   41 ar
    42   43   42 1
    43   44   42 ar
    44   45   44 1
    45   46   44 ar
    46   47   46 1
    47   48   46 ar
    48   49   48 1
    49   50   41 ar
    50   51   50 1
    51   52    1 1
    52   53    7 1
    53   54   55 ar
    54   55   56 1
    55   57   55 ar
    56   58   57 1
    57   59   57 ar
    58   60   59 ar
    59   61   60 1
    60   62   54 ar
    61   63   62 1
    62   64    9 2
    63   65   52 2
    64   66   53 2
    65   67   70 2
    66   68   70 2
    67   69   52 1
    68   70   59 1
    69    6    7 1
    70    6    9 1
    71   17   19 ar
    72   20   29 ar
    73   27   29 ar
    74   37   39 ar
    75   48   50 ar
    76   53   69 1
    77   54   69 1
    78   60   62 ar
@<TRIPOS>SUBSTRUCTURE
     1 RES1 1

@<TRIPOS>CRYSIN
  10.6718   11.3171   12.0634  89.6300  80.0180  86.6300   2 1

