# MOL2 file generated by ConQuest
# Please check atom types

@<TRIPOS>MOLECULE
EQURUF
    48    49     1
SMALL
NO_CHARGES
****
Generated from CSD

@<TRIPOS>ATOM
      1 N1         2.0111    3.5352    9.6248 N.am      1 RES1    0.0000
      2 N2         9.6212    5.1144    2.3658 N.3       1 RES1    0.0000
      3 O1         0.6706    5.3013    9.4349 O.2       1 RES1    0.0000
      4 O2         5.5706    3.8805    5.3030 O.3       1 RES1    0.0000
      5 O3         6.1640    6.0174    5.6870 O.2       1 RES1    0.0000
      6 O4        10.5938    5.1175    1.5304 O.2       1 RES1    0.0000
      7 C1         8.4453    5.9715    2.0112 C.3       1 RES1    0.0000
      8 C2         7.5453    6.1193    3.2176 C.3       1 RES1    0.0000
      9 C3         7.2229    4.7898    3.9042 C.3       1 RES1    0.0000
     10 C4         8.9967    7.3627    1.6349 C.3       1 RES1    0.0000
     11 C5         3.5508    4.6865    6.3943 C.ar      1 RES1    0.0000
     12 C6         4.6652    3.8854    6.3915 C.ar      1 RES1    0.0000
     13 C7         6.2880    5.0043    5.0513 C.2       1 RES1    0.0000
     14 C8         8.5375    4.1807    4.3995 C.3       1 RES1    0.0000
     15 C9         7.7222    5.3756    0.7917 C.3       1 RES1    0.0000
     16 C10        2.8725    3.7066    8.4703 C.ar      1 RES1    0.0000
     17 C11        2.6580    4.6072    7.4323 C.ar      1 RES1    0.0000
     18 C12        3.9787    2.8930    8.4315 C.ar      1 RES1    0.0000
     19 C13        9.5455    3.9301    3.2758 C.3       1 RES1    0.0000
     20 C14        4.8841    2.9647    7.3967 C.ar      1 RES1    0.0000
     21 C15       10.9469    3.7634    3.9012 C.3       1 RES1    0.0000
     22 C16        9.2045    2.6796    2.4708 C.3       1 RES1    0.0000
     23 C17        0.3821    3.7955   11.3293 C.3       1 RES1    0.0000
     24 C18        1.0569    4.2832   10.0267 C.2       1 RES1    0.0000
     25 H1         7.9827    6.6768    3.8517 H         1 RES1    0.0000
     26 H2         6.7307    6.5260    2.9461 H         1 RES1    0.0000
     27 H3         6.8178    4.2053    3.2741 H         1 RES1    0.0000
     28 H4         8.2825    7.9432    1.3966 H         1 RES1    0.0000
     29 H5         9.4599    7.7206    2.3827 H         1 RES1    0.0000
     30 H6         9.5955    7.2798    0.9015 H         1 RES1    0.0000
     31 H7         3.4089    5.2996    5.6830 H         1 RES1    0.0000
     32 H8         8.9265    4.7719    5.0330 H         1 RES1    0.0000
     33 H9         8.3511    3.3477    4.8156 H         1 RES1    0.0000
     34 H10        6.9773    5.9221    0.5695 H         1 RES1    0.0000
     35 H11        8.3142    5.3288    0.0503 H         1 RES1    0.0000
     36 H12        7.4196    4.5023    1.0102 H         1 RES1    0.0000
     37 H13        1.8725    5.1426    7.4358 H         1 RES1    0.0000
     38 H14        4.1011    2.2631    9.1322 H         1 RES1    0.0000
     39 H15        5.6419    2.3926    7.3673 H         1 RES1    0.0000
     40 H16       10.9378    3.0160    4.4876 H         1 RES1    0.0000
     41 H17       11.1664    4.5476    4.3910 H         1 RES1    0.0000
     42 H18       11.5948    3.6226    3.2198 H         1 RES1    0.0000
     43 H19        9.1486    1.9377    3.0608 H         1 RES1    0.0000
     44 H20        9.8908    2.5247    1.8333 H         1 RES1    0.0000
     45 H21        8.3743    2.7908    2.0224 H         1 RES1    0.0000
     46 H22       -0.3100    4.4110   11.5410 H         1 RES1    0.0000
     47 H23        1.0165    3.7778   12.0361 H         1 RES1    0.0000
     48 H24        0.0101    2.9291   11.2150 H         1 RES1    0.0000
@<TRIPOS>BOND
     1    1   16 1
     2    2    6 1
     3    3   24 2
     4    4   12 1
     5    5   13 2
     6    7    2 1
     7    8    7 1
     8    9    8 1
     9   10    7 1
    10   11   12 ar
    11   12   20 ar
    12   13    4 1
    13   14    9 1
    14   15    7 1
    15   16   17 ar
    16   17   11 ar
    17   18   16 ar
    18   19    2 1
    19   20   18 ar
    20   21   19 1
    21   22   19 1
    22   23   24 1
    23   24    1 1
    24   25    8 1
    25   26    8 1
    26   27    9 1
    27   28   10 1
    28   29   10 1
    29   30   10 1
    30   31   11 1
    31   32   14 1
    32   33   14 1
    33   34   15 1
    34   35   15 1
    35   36   15 1
    36   37   17 1
    37   38   18 1
    38   39   20 1
    39   40   21 1
    40   41   21 1
    41   42   21 1
    42   43   22 1
    43   44   22 1
    44   45   22 1
    45   46   23 1
    46   47   23 1
    47   48   23 1
    48    9   13 1
    49   14   19 1
@<TRIPOS>SUBSTRUCTURE
     1 RES1 1

@<TRIPOS>CRYSIN
  10.0822    8.8681   20.2511  90.0000  96.4270  90.0000  14 2

