# MOL2 file generated by ConQuest
# Please check atom types

@<TRIPOS>MOLECULE
EQURIT
    43    44     1
SMALL
NO_CHARGES
****
Generated from CSD

@<TRIPOS>ATOM
      1 N1         5.0662    5.1449   10.6442 N.3       1 RES1    0.0000
      2 O1         7.6105   -0.6930    6.1358 O.3       1 RES1    0.0000
      3 O2         7.1204    1.3038    7.7460 O.2       1 RES1    0.0000
      4 O3         5.1588    1.3426    8.8549 O.3       1 RES1    0.0000
      5 O4         5.0823    6.3036   11.2076 O.2       1 RES1    0.0000
      6 C1         5.5355   -0.4347    7.3625 C.ar      1 RES1    0.0000
      7 C2         5.1163    3.9668   11.5652 C.3       1 RES1    0.0000
      8 C3         5.5642    2.5890    9.5026 C.3       1 RES1    0.0000
      9 C4         5.2040    3.7505    8.5953 C.3       1 RES1    0.0000
     10 C5         4.7688    2.6918   10.7859 C.3       1 RES1    0.0000
     11 C6         6.0222    0.8110    7.9865 C.2       1 RES1    0.0000
     12 C7         5.5182    5.1135    9.2177 C.3       1 RES1    0.0000
     13 C8         3.8335   -2.1353    7.0878 C.ar      1 RES1    0.0000
     14 C9         4.2667   -0.9449    7.6509 C.ar      1 RES1    0.0000
     15 C10        6.3732   -1.1298    6.4732 C.ar      1 RES1    0.0000
     16 C11        5.9323   -2.3309    5.9070 C.ar      1 RES1    0.0000
     17 C12        6.5135    3.8904   12.1996 C.3       1 RES1    0.0000
     18 C13        7.0181    5.4217    9.1423 C.3       1 RES1    0.0000
     19 C14        4.6830   -2.8232    6.2243 C.ar      1 RES1    0.0000
     20 C15        4.0721    4.1957   12.6573 C.3       1 RES1    0.0000
     21 C16        4.7406    6.1897    8.4576 C.3       1 RES1    0.0000
     22 H1         6.4961    2.5867    9.6894 H         1 RES1    0.0000
     23 H2         5.6933    3.6655    7.7851 H         1 RES1    0.0000
     24 H3         4.2735    3.7069    8.4090 H         1 RES1    0.0000
     25 H4         4.9544    1.9344   11.3286 H         1 RES1    0.0000
     26 H5         3.8434    2.7060   10.5692 H         1 RES1    0.0000
     27 H6         2.9701   -2.4768    7.2873 H         1 RES1    0.0000
     28 H7         3.6953   -0.4679    8.2412 H         1 RES1    0.0000
     29 H8         6.4951   -2.8088    5.3089 H         1 RES1    0.0000
     30 H9         6.5568    3.1456   12.7872 H         1 RES1    0.0000
     31 H10        6.6858    4.6876   12.6865 H         1 RES1    0.0000
     32 H11        7.1630    3.7908   11.5138 H         1 RES1    0.0000
     33 H12        7.3047    5.4014    8.2365 H         1 RES1    0.0000
     34 H13        7.1813    6.2829    9.5076 H         1 RES1    0.0000
     35 H14        7.4984    4.7704    9.6407 H         1 RES1    0.0000
     36 H15        4.3971   -3.6454    5.8449 H         1 RES1    0.0000
     37 H16        4.0771    3.4623   13.2607 H         1 RES1    0.0000
     38 H17        4.2799    4.9937   13.1287 H         1 RES1    0.0000
     39 H18        3.2110    4.2752   12.2628 H         1 RES1    0.0000
     40 H19        5.0037    6.1907    7.5454 H         1 RES1    0.0000
     41 H20        4.9250    7.0391    8.8408 H         1 RES1    0.0000
     42 H21        3.8104    6.0099    8.5178 H         1 RES1    0.0000
     43 H22        7.8090    0.0484    6.5128 H         1 RES1    0.0000
@<TRIPOS>BOND
     1    1    5 1
     2    2   15 1
     3    3   11 2
     4    4    8 1
     5    6   11 1
     6    7    1 1
     7    8    9 1
     8    9   12 1
     9   10    7 1
    10   11    4 1
    11   12    1 1
    12   13   14 ar
    13   14    6 ar
    14   15    6 ar
    15   16   15 ar
    16   17    7 1
    17   18   12 1
    18   19   13 ar
    19   20    7 1
    20   21   12 1
    21   22    8 1
    22   23    9 1
    23   24    9 1
    24   25   10 1
    25   26   10 1
    26   27   13 1
    27   28   14 1
    28   29   16 1
    29   30   17 1
    30   31   17 1
    31   32   17 1
    32   33   18 1
    33   34   18 1
    34   35   18 1
    35   36   19 1
    36   37   20 1
    37   38   20 1
    38   39   20 1
    39   40   21 1
    40   41   21 1
    41   42   21 1
    42   43    2 1
    43    8   10 1
    44   16   19 ar
@<TRIPOS>SUBSTRUCTURE
     1 RES1 1

@<TRIPOS>CRYSIN
  11.4549   11.8166   11.8892  90.0000 103.1741  90.0000  14 2

