# MOL2 file generated by ConQuest
# Please check atom types

@<TRIPOS>MOLECULE
EQUZIZ01
    42    43     1
SMALL
NO_CHARGES
****
Generated from CSD

@<TRIPOS>ATOM
      1 O1         5.8243    4.9401    1.7077 O.3       1 RES1    0.0000
      2 O2        -1.2685    4.9502    1.5604 O.3       1 RES1    0.0000
      3 O3        -0.1502    5.1258   -0.3504 O.2       1 RES1    0.0000
      4 C1         2.2886    5.0146    1.0022 C.ar      1 RES1    0.0000
      5 C2         1.0775    4.9862    1.6679 C.ar      1 RES1    0.0000
      6 C3        -0.1950    5.0282    0.8980 C.2       1 RES1    0.0000
      7 O4         4.7458    5.0919   -0.2310 O.2       1 RES1    0.0000
      8 C4         4.7676    4.9957    1.0135 C.2       1 RES1    0.0000
      9 C5         1.0450    4.8933    3.0511 C.ar      1 RES1    0.0000
     10 N1         1.9977    4.0723    9.4647 N.3       1 RES1    0.0000
     11 C6         2.9839    3.6215    7.3083 C.ar      1 RES1    0.0000
     12 C7         3.4622    4.9347    1.7321 C.ar      1 RES1    0.0000
     13 C8         3.4268    4.8180    3.1125 C.ar      1 RES1    0.0000
     14 C9         2.2116    4.7903    3.8050 C.ar      1 RES1    0.0000
     15 C10        1.7689    5.1055   10.5218 C.3       1 RES1    0.0000
     16 C11        3.0522    3.7978    5.9480 C.ar      1 RES1    0.0000
     17 C12        2.1610    4.6289    5.2719 C.ar      1 RES1    0.0000
     18 C13        2.0411    4.2994    8.0596 C.ar      1 RES1    0.0000
     19 C14        1.1950    5.2479    6.0395 C.ar      1 RES1    0.0000
     20 O5         2.2213    2.8805    9.8508 O.2       1 RES1    0.0000
     21 C15        1.1349    5.1089    7.4090 C.ar      1 RES1    0.0000
     22 C16        2.1281    6.5054   10.0179 C.3       1 RES1    0.0000
     23 C17        0.3026    5.0431   10.9192 C.3       1 RES1    0.0000
     24 C18        2.6494    4.7570   11.7007 C.3       1 RES1    0.0000
     25 H1         6.4780    4.9821    1.2145 H         1 RES1    0.0000
     26 H2        -1.9077    4.9835    1.0482 H         1 RES1    0.0000
     27 H3         2.3156    5.0872    0.0742 H         1 RES1    0.0000
     28 H4         0.2237    4.9001    3.4861 H         1 RES1    0.0000
     29 H5         3.5770    3.0412    7.7294 H         1 RES1    0.0000
     30 H6         4.2249    4.7577    3.5871 H         1 RES1    0.0000
     31 H7         3.7102    3.3517    5.4667 H         1 RES1    0.0000
     32 H8         0.5608    5.7794    5.6152 H         1 RES1    0.0000
     33 H9         0.4835    5.5617    7.8957 H         1 RES1    0.0000
     34 H10        1.5607    6.7346    9.2794 H         1 RES1    0.0000
     35 H11        3.0441    6.5183    9.7338 H         1 RES1    0.0000
     36 H12        2.0031    7.1420   10.7255 H         1 RES1    0.0000
     37 H13       -0.2434    5.2790   10.1673 H         1 RES1    0.0000
     38 H14        0.1398    5.6580   11.6372 H         1 RES1    0.0000
     39 H15        0.0855    4.1523   11.2036 H         1 RES1    0.0000
     40 H16        3.5720    4.8079   11.4382 H         1 RES1    0.0000
     41 H17        2.4504    3.8662   11.9965 H         1 RES1    0.0000
     42 H18        2.4866    5.3767   12.4151 H         1 RES1    0.0000
@<TRIPOS>BOND
     1    1    8 1
     2    2    6 1
     3    3    6 2
     4    4    5 ar
     5    5    6 1
     6    7    8 2
     7    8   12 1
     8    9    5 ar
     9   10   15 1
    10   11   16 ar
    11   12    4 ar
    12   13   12 ar
    13   14    9 ar
    14   15   22 1
    15   16   17 ar
    16   17   14 1
    17   18   10 1
    18   19   17 ar
    19   20   10 1
    20   21   18 ar
    21   22   34 1
    22   23   15 1
    23   24   15 1
    24   25    1 1
    25   26    2 1
    26   27    4 1
    27   28    9 1
    28   29   11 1
    29   30   13 1
    30   31   16 1
    31   32   19 1
    32   33   21 1
    33   35   22 1
    34   36   22 1
    35   37   23 1
    36   38   23 1
    37   39   23 1
    38   40   24 1
    39   41   24 1
    40   42   24 1
    41   11   18 ar
    42   13   14 ar
    43   19   21 ar
@<TRIPOS>SUBSTRUCTURE
     1 RES1 1

@<TRIPOS>CRYSIN
  16.4458    6.7793   29.6942  90.0000  90.0000  90.0000  61 1

