# MOL2 file generated by ConQuest
# Please check atom types

@<TRIPOS>MOLECULE
EREMOE
    29    31     1
SMALL
NO_CHARGES
****
Generated from CSD

@<TRIPOS>ATOM
      1 O1         3.3191    4.5523    0.7534 O.3       1 RES1    0.0000
      2 C1         5.6761    4.8898    2.0088 C.ar      1 RES1    0.0000
      3 H1         5.4424    5.4069    1.2726 H         1 RES1    0.0000
      4 N1         3.5823    3.6019    1.8257 N.3       1 RES1    0.0000
      5 C2         5.1597    3.1681    3.6092 C.ar      1 RES1    0.0000
      6 H2         4.5747    2.5311    3.9513 H         1 RES1    0.0000
      7 C3         4.7922    3.9259    2.4906 C.ar      1 RES1    0.0000
      8 C4         6.9004    5.0782    2.6232 C.ar      1 RES1    0.0000
      9 H3         7.4810    5.7274    2.2981 H         1 RES1    0.0000
     10 C5         2.3669    3.4624    2.6671 C.3       1 RES1    0.0000
     11 H4         2.4804    2.7172    3.2940 H         1 RES1    0.0000
     12 C6         2.1106    4.7537    3.4408 C.3       1 RES1    0.0000
     13 H5         2.7705    4.8600    4.1439 H         1 RES1    0.0000
     14 H6         1.2304    4.7336    3.8457 H         1 RES1    0.0000
     15 C7         2.2093    5.9173    2.4369 C.3       1 RES1    0.0000
     16 H7         1.4797    6.5409    2.5784 H         1 RES1    0.0000
     17 H8         3.0458    6.3926    2.5596 H         1 RES1    0.0000
     18 C8         6.3895    3.3654    4.2066 C.ar      1 RES1    0.0000
     19 H9         6.6268    2.8551    4.9472 H         1 RES1    0.0000
     20 C9         7.2752    4.3140    3.7167 C.ar      1 RES1    0.0000
     21 H10        8.1061    4.4349    4.1152 H         1 RES1    0.0000
     22 C10        2.1382    5.3457    1.0335 C.3       1 RES1    0.0000
     23 H11        2.0778    6.0790    0.3860 H         1 RES1    0.0000
     24 C11        0.9340    4.4288    0.8741 C.3       1 RES1    0.0000
     25 H12        0.8157    4.1867   -0.0573 H         1 RES1    0.0000
     26 H13        0.1291    4.8738    1.1813 H         1 RES1    0.0000
     27 C12        1.2077    3.1716    1.7249 C.3       1 RES1    0.0000
     28 H14        0.4164    2.9390    2.2354 H         1 RES1    0.0000
     29 H15        1.4290    2.4242    1.1481 H         1 RES1    0.0000
@<TRIPOS>BOND
     1    1    4 1
     2    2    3 1
     3    4    7 1
     4    5    6 1
     5    7    2 ar
     6    8    2 ar
     7    9    8 1
     8   10    4 1
     9   11   10 1
    10   12   10 1
    11   13   12 1
    12   14   12 1
    13   15   12 1
    14   16   15 1
    15   17   15 1
    16   18    5 ar
    17   19   18 1
    18   20    8 ar
    19   21   20 1
    20   22    1 1
    21   23   22 1
    22   24   22 1
    23   25   24 1
    24   26   24 1
    25   27   10 1
    26   28   27 1
    27   29   27 1
    28    5    7 ar
    29   15   22 1
    30   18   20 ar
    31   24   27 1
@<TRIPOS>SUBSTRUCTURE
     1 RES1 1

@<TRIPOS>CRYSIN
   9.5075   11.4893    9.2650  90.0000 104.8420  90.0000  14 1

