# MOL2 file generated by ConQuest
# Please check atom types

@<TRIPOS>MOLECULE
ERIKIB
    43    45     1
SMALL
NO_CHARGES
****
Generated from CSD

@<TRIPOS>ATOM
      1 O1         4.0141    7.8632    8.5560 O.3       1 RES1    0.0000
      2 O2         5.1369    8.7919    6.7960 O.3       1 RES1    0.0000
      3 O3        -0.5920    8.5168    3.6857 O.2       1 RES1    0.0000
      4 O4        -2.1506    9.2317    2.3740 O.2       1 RES1    0.0000
      5 O5        -1.8580   13.3062    0.0423 O.2       1 RES1    0.0000
      6 O6        -0.0236   14.4493    0.0672 O.2       1 RES1    0.0000
      7 N1         2.5466   10.3986    5.0116 N.2       1 RES1    0.0000
      8 N2         1.3709   10.0832    4.3579 N.pl3     1 RES1    0.0000
      9 H1         0.9403    9.3448    4.5674 H         1 RES1    0.0000
     10 N3        -1.0733    9.3769    2.9253 N.pl3     1 RES1    0.0000
     11 N4        -0.7344   13.5270    0.4605 N.pl3     1 RES1    0.0000
     12 C1         2.9103    5.7570    6.9027 C.3       1 RES1    0.0000
     13 H2         3.6542    5.0908    6.9654 H         1 RES1    0.0000
     14 C2         2.4256    6.0236    8.3299 C.3       1 RES1    0.0000
     15 H3         1.6469    6.6339    8.3077 H         1 RES1    0.0000
     16 H4         2.1381    5.1724    8.7473 H         1 RES1    0.0000
     17 C3         3.5367    6.6458    9.1557 C.3       1 RES1    0.0000
     18 H5         3.2005    6.8390   10.0664 H         1 RES1    0.0000
     19 H6         4.2856    6.0045    9.2358 H         1 RES1    0.0000
     20 C4         4.5518    7.6061    7.2725 C.3       1 RES1    0.0000
     21 H7         5.2752    6.9229    7.3714 H         1 RES1    0.0000
     22 C5         4.1983    9.8588    6.6121 C.3       1 RES1    0.0000
     23 H8         4.6609   10.6221    6.1858 H         1 RES1    0.0000
     24 H9         3.8749   10.1583    7.4990 H         1 RES1    0.0000
     25 C6         3.0149    9.4720    5.7669 C.2       1 RES1    0.0000
     26 C7         2.4439    8.0996    5.9775 C.3       1 RES1    0.0000
     27 H10        1.9643    7.8203    5.1568 H         1 RES1    0.0000
     28 H11        1.7846    8.1350    6.7160 H         1 RES1    0.0000
     29 C8         3.5095    7.0530    6.3113 C.3       1 RES1    0.0000
     30 H12        3.9766    6.8110    5.4607 H         1 RES1    0.0000
     31 C9         1.8324    5.1400    6.0175 C.3       1 RES1    0.0000
     32 H13        1.5561    4.2773    6.3923 H         1 RES1    0.0000
     33 H14        2.1890    5.0045    5.1150 H         1 RES1    0.0000
     34 H15        1.0593    5.7411    5.9770 H         1 RES1    0.0000
     35 C10        0.8757   10.8965    3.4003 C.ar      1 RES1    0.0000
     36 C11        1.5364   12.1028    3.0488 C.ar      1 RES1    0.0000
     37 H16        2.3472   12.3331    3.4873 H         1 RES1    0.0000
     38 C12        1.0315   12.9435    2.0908 C.ar      1 RES1    0.0000
     39 H17        1.4997   13.7340    1.8527 H         1 RES1    0.0000
     40 C13       -0.1779   12.6263    1.4681 C.ar      1 RES1    0.0000
     41 C14       -0.8626   11.4743    1.7634 C.ar      1 RES1    0.0000
     42 H18       -1.6841   11.2748    1.3307 H         1 RES1    0.0000
     43 C15       -0.3296   10.6047    2.7104 C.ar      1 RES1    0.0000
@<TRIPOS>BOND
     1    1   17 1
     2    2   20 1
     3    3   10 2
     4    4   10 2
     5    5   11 2
     6    6   11 2
     7    7    8 1
     8    8    9 1
     9   10   43 1
    10   11   40 1
    11   12   13 1
    12   14   12 1
    13   15   14 1
    14   16   14 1
    15   17   14 1
    16   18   17 1
    17   19   17 1
    18   20    1 1
    19   21   20 1
    20   22    2 1
    21   23   22 1
    22   24   22 1
    23   25    7 2
    24   26   25 1
    25   27   26 1
    26   28   26 1
    27   29   12 1
    28   30   29 1
    29   31   12 1
    30   32   31 1
    31   33   31 1
    32   34   31 1
    33   35    8 1
    34   36   35 ar
    35   37   36 1
    36   38   36 ar
    37   39   38 1
    38   40   38 ar
    39   41   40 ar
    40   42   41 1
    41   43   35 ar
    42   20   29 1
    43   22   25 1
    44   26   29 1
    45   41   43 ar
@<TRIPOS>SUBSTRUCTURE
     1 RES1 1

@<TRIPOS>CRYSIN
   5.7625   23.3095   11.9536  90.0000 103.9460  90.0000  14 1

