# MOL2 file generated by ConQuest
# Please check atom types

@<TRIPOS>MOLECULE
ERILOI
    44    46     1
SMALL
NO_CHARGES
****
Generated from CSD

@<TRIPOS>ATOM
      1 O1         6.2179    4.7456    0.4784 O.3       1 RES1    0.0000
      2 C1         6.5621    3.7248    1.3389 C.2       1 RES1    0.0000
      3 C2         6.0865    2.0816   -0.4279 C.2       1 RES1    0.0000
      4 O2         6.0149    0.8912   -0.7952 O.2       1 RES1    0.0000
      5 O3         6.8812    1.4157    1.7289 O.3       1 RES1    0.0000
      6 H1         7.0254    0.7392    1.2893 H         1 RES1    0.0000
      7 C3         6.5189    2.4278    0.8980 C.2       1 RES1    0.0000
      8 C4         5.7730    3.2021   -1.3026 C.ar      1 RES1    0.0000
      9 C5         5.1784    4.1210   -3.4249 C.ar      1 RES1    0.0000
     10 C6         5.8712    4.4979   -0.8128 C.ar      1 RES1    0.0000
     11 C7         6.9490    4.2282    2.6416 C.ar      1 RES1    0.0000
     12 C8         5.4130    3.0257   -2.6472 C.ar      1 RES1    0.0000
     13 H2         5.3344    2.1705   -3.0050 H         1 RES1    0.0000
     14 C9         5.2847    5.4201   -2.9283 C.ar      1 RES1    0.0000
     15 H3         5.1255    6.1488   -3.4831 H         1 RES1    0.0000
     16 C10        7.2094    5.5913    2.8374 C.ar      1 RES1    0.0000
     17 H4         7.1058    6.1756    2.1212 H         1 RES1    0.0000
     18 N1         4.8258    3.9357   -4.8383 N.pl3     1 RES1    0.0000
     19 C11        7.6107    6.0922    4.0449 C.ar      1 RES1    0.0000
     20 H5         7.7941    7.0010    4.1199 H         1 RES1    0.0000
     21 C12        7.0953    3.4042    3.7670 C.ar      1 RES1    0.0000
     22 H6         6.9365    2.4922    3.6815 H         1 RES1    0.0000
     23 C13        5.6275    5.6129   -1.6104 C.ar      1 RES1    0.0000
     24 H7         5.6948    6.4710   -1.2582 H         1 RES1    0.0000
     25 C14        7.7546    5.2688    5.1769 C.ar      1 RES1    0.0000
     26 N2         8.1576    5.7567    6.3884 N.3       1 RES1    0.0000
     27 O4         4.5850    4.9257   -5.5076 O.2       1 RES1    0.0000
     28 O5         4.7715    2.7987   -5.2772 O.2       1 RES1    0.0000
     29 C15        7.4654    3.9025    4.9921 C.ar      1 RES1    0.0000
     30 H8         7.5263    3.3237    5.7165 H         1 RES1    0.0000
     31 C16        8.3013    4.8624    7.5393 C.3       1 RES1    0.0000
     32 H9         8.9309    5.2524    8.1657 H         1 RES1    0.0000
     33 H10        8.6685    4.0164    7.2388 H         1 RES1    0.0000
     34 C17        8.6082    7.1552    6.5633 C.3       1 RES1    0.0000
     35 H11        8.5021    7.4071    7.4943 H         1 RES1    0.0000
     36 H12        8.0440    7.7382    6.0323 H         1 RES1    0.0000
     37 C18       10.0389    7.3620    6.1618 C.3       1 RES1    0.0000
     38 H13       10.1312    7.2129    5.2177 H         1 RES1    0.0000
     39 H14       10.5980    6.7449    6.6399 H         1 RES1    0.0000
     40 H15       10.3036    8.2609    6.3706 H         1 RES1    0.0000
     41 C19        7.0064    4.6093    8.2437 C.3       1 RES1    0.0000
     42 H16        6.3610    4.2755    7.6168 H         1 RES1    0.0000
     43 H17        6.6857    5.4289    8.6282 H         1 RES1    0.0000
     44 H18        7.1416    3.9623    8.9389 H         1 RES1    0.0000
@<TRIPOS>BOND
     1    1    2 1
     2    2    7 2
     3    3    4 2
     4    5    6 1
     5    7    3 1
     6    8    3 1
     7    9   12 ar
     8   10    1 1
     9   11    2 1
    10   12    8 ar
    11   13   12 1
    12   14    9 ar
    13   15   14 1
    14   16   11 ar
    15   17   16 1
    16   18    9 1
    17   19   16 ar
    18   20   19 1
    19   21   11 ar
    20   22   21 1
    21   23   10 ar
    22   24   23 1
    23   25   19 ar
    24   26   25 1
    25   27   18 2
    26   28   18 2
    27   29   21 ar
    28   30   29 1
    29   31   26 1
    30   32   31 1
    31   33   31 1
    32   34   26 1
    33   35   34 1
    34   36   34 1
    35   37   34 1
    36   38   37 1
    37   39   37 1
    38   40   37 1
    39   41   31 1
    40   42   41 1
    41   43   41 1
    42   44   41 1
    43    5    7 1
    44    8   10 ar
    45   14   23 ar
    46   25   29 ar
@<TRIPOS>SUBSTRUCTURE
     1 RES1 1

@<TRIPOS>CRYSIN
   7.0399    7.3275   17.4123  89.6580  82.5610  76.1680   2 1

