# MOL2 file generated by ConQuest
# Please check atom types

@<TRIPOS>MOLECULE
EROBAO
    53    56     1
SMALL
NO_CHARGES
****
Generated from CSD

@<TRIPOS>ATOM
      1 O1         1.3277   -4.8105    1.1220 O.3       1 RES1    0.0000
      2 N1         1.7655   -3.6296    1.6517 N.2       1 RES1    0.0000
      3 N2         6.9661   -2.0596    0.4558 N.pl3     1 RES1    0.0000
      4 N3         8.7069   -1.5971   -0.8347 N.2       1 RES1    0.0000
      5 C1         3.0964   -3.4325    1.4389 C.ar      1 RES1    0.0000
      6 C2         3.9882   -4.2699    0.6875 C.ar      1 RES1    0.0000
      7 C3         5.2545   -3.7891    0.4032 C.ar      1 RES1    0.0000
      8 C4         5.6743   -2.5362    0.8324 C.ar      1 RES1    0.0000
      9 C5         4.8413   -1.7528    1.6216 C.ar      1 RES1    0.0000
     10 C6         3.5683   -2.1764    1.9461 C.ar      1 RES1    0.0000
     11 C7         3.6438   -5.6508    0.2134 C.ar      1 RES1    0.0000
     12 C8         3.5596   -6.6975    1.1155 C.ar      1 RES1    0.0000
     13 C9         3.2461   -7.9788    0.6988 C.ar      1 RES1    0.0000
     14 C10        3.0191   -8.2304   -0.6166 C.ar      1 RES1    0.0000
     15 C11        3.1105   -7.2127   -1.5276 C.ar      1 RES1    0.0000
     16 C12        3.4384   -5.9227   -1.1191 C.ar      1 RES1    0.0000
     17 C13        7.5579   -2.2161   -0.7591 C.2       1 RES1    0.0000
     18 C14        8.8596   -1.0127    0.3890 C.2       1 RES1    0.0000
     19 C15        7.8106   -1.2700    1.1989 C.2       1 RES1    0.0000
     20 C16        2.6708   -1.3002    2.7495 C.ar      1 RES1    0.0000
     21 C17        2.5008    0.0248    2.3907 C.ar      1 RES1    0.0000
     22 C18        1.6343    0.8394    3.1125 C.ar      1 RES1    0.0000
     23 C19        0.9615    0.3343    4.1973 C.ar      1 RES1    0.0000
     24 C20        1.1451   -0.9558    4.5869 C.ar      1 RES1    0.0000
     25 C21        1.9954   -1.7694    3.8674 C.ar      1 RES1    0.0000
     26 C22       -0.1367   -4.9293    1.2249 C.3       1 RES1    0.0000
     27 C23       -0.3663   -6.3164    0.6698 C.3       1 RES1    0.0000
     28 C24       -0.5569   -4.8060    2.6674 C.3       1 RES1    0.0000
     29 C25       -0.7628   -3.8577    0.3778 C.3       1 RES1    0.0000
     30 H1         5.1581   -0.9137    1.9408 H         1 RES1    0.0000
     31 H2         5.8565   -4.3356   -0.0851 H         1 RES1    0.0000
     32 H3         2.1406   -2.6494    4.1577 H         1 RES1    0.0000
     33 H4         3.7005   -6.5293    2.0378 H         1 RES1    0.0000
     34 H5         3.1815   -8.6860    1.3449 H         1 RES1    0.0000
     35 H6         3.5287   -5.2319   -1.7723 H         1 RES1    0.0000
     36 H7         2.8014   -9.1168   -0.9234 H         1 RES1    0.0000
     37 H8         2.9706    0.3912    1.6470 H         1 RES1    0.0000
     38 H9         0.6628   -1.3074    5.3276 H         1 RES1    0.0000
     39 H10        1.5085    1.7407    2.8701 H         1 RES1    0.0000
     40 H11        2.9610   -7.3935   -2.4498 H         1 RES1    0.0000
     41 H12        0.3882    0.8914    4.7039 H         1 RES1    0.0000
     42 H13        7.6799   -0.9582    2.0856 H         1 RES1    0.0000
     43 H14        7.1872   -2.7261   -1.4738 H         1 RES1    0.0000
     44 H15        9.6183   -0.4952    0.6592 H         1 RES1    0.0000
     45 H16        0.1151   -6.9527    1.1977 H         1 RES1    0.0000
     46 H17       -1.2878   -6.5244    0.6905 H         1 RES1    0.0000
     47 H18       -0.0463   -6.3560   -0.2246 H         1 RES1    0.0000
     48 H19       -0.4821   -3.9790   -0.5155 H         1 RES1    0.0000
     49 H20       -1.6945   -3.9122    0.4505 H         1 RES1    0.0000
     50 H21       -0.4575   -3.0109    0.6964 H         1 RES1    0.0000
     51 H22       -0.2652   -3.9493    3.0073 H         1 RES1    0.0000
     52 H23       -1.4882   -4.8679    2.7466 H         1 RES1    0.0000
     53 H24       -0.1346   -5.4845    3.1858 H         1 RES1    0.0000
@<TRIPOS>BOND
     1    1    2 1
     2    2    5 1
     3    3    8 1
     4    4   17 2
     5    5    6 ar
     6    6    7 ar
     7    7    8 ar
     8    8    9 ar
     9    9   10 ar
    10   10    5 ar
    11   11    6 1
    12   12   11 ar
    13   13   12 ar
    14   14   13 ar
    15   15   14 ar
    16   16   11 ar
    17   17    3 1
    18   18    4 1
    19   19    3 1
    20   20   10 1
    21   21   20 ar
    22   22   21 ar
    23   23   22 ar
    24   24   23 ar
    25   25   20 ar
    26   26    1 1
    27   27   26 1
    28   28   26 1
    29   29   26 1
    30   30    9 1
    31   31    7 1
    32   32   25 1
    33   33   12 1
    34   34   13 1
    35   35   16 1
    36   36   14 1
    37   37   21 1
    38   38   24 1
    39   39   22 1
    40   40   15 1
    41   41   23 1
    42   42   19 1
    43   43   17 1
    44   44   18 1
    45   45   27 1
    46   46   27 1
    47   47   27 1
    48   48   29 1
    49   49   29 1
    50   50   29 1
    51   51   28 1
    52   52   28 1
    53   53   28 1
    54   15   16 ar
    55   18   19 2
    56   24   25 ar
@<TRIPOS>SUBSTRUCTURE
     1 RES1 1

@<TRIPOS>CRYSIN
  14.4575   24.7605    5.9936  90.0000  99.4830  90.0000 231 1

