# MOL2 file generated by ConQuest
# Please check atom types

@<TRIPOS>MOLECULE
EROCUK
    48    50     1
SMALL
USER_CHARGES
****
Generated from CSD

@<TRIPOS>ATOM
      1 O1         0.9333    5.0392    5.3329 O.2       1 RES1   -1.0000
      2 O2         3.2048   -0.7972    1.7406 O.3       1 RES1    0.0000
      3 O3         1.4064   -2.2392    2.8919 O.3       1 RES1    0.0000
      4 O4         2.5803    2.8213    6.8437 O.2       1 RES1    0.0000
      5 O5         0.9728    1.6787    7.8853 O.3       1 RES1    0.0000
      6 O6         1.0887    3.5868    1.1873 O.3       1 RES1    0.0000
      7 N1         0.9336    3.7864    4.9880 N.pl3     1 RES1    1.0000
      8 C1         1.5216    3.2861    3.9179 C.2       1 RES1    0.0000
      9 C2         1.4772    1.8404    3.6818 C.ar      1 RES1    0.0000
     10 C3         2.3882    1.2385    2.7933 C.ar      1 RES1    0.0000
     11 H1         3.0347    1.7731    2.3479 H         1 RES1    0.0000
     12 C4         2.3495   -0.1228    2.5644 C.ar      1 RES1    0.0000
     13 C5         1.3745   -0.9191    3.2011 C.ar      1 RES1    0.0000
     14 C6         0.4914   -0.3240    4.0884 C.ar      1 RES1    0.0000
     15 H2        -0.1566   -0.8579    4.5324 H         1 RES1    0.0000
     16 C7         0.5400    1.0467    4.3390 C.ar      1 RES1    0.0000
     17 C8        -0.3963    1.7225    5.2973 C.3       1 RES1    0.0000
     18 H3        -0.6994    1.0735    5.9798 H         1 RES1    0.0000
     19 H4        -1.1925    2.0503    4.8096 H         1 RES1    0.0000
     20 C9         0.3036    2.8882    5.9757 C.3       1 RES1    0.0000
     21 H5        -0.3733    3.4098    6.4952 H         1 RES1    0.0000
     22 C10        1.4495    2.4715    6.9304 C.2       1 RES1    0.0000
     23 C11        1.9981    1.3322    8.8776 C.3       1 RES1    0.0000
     24 H6         1.6068    0.7501    9.5622 H         1 RES1    0.0000
     25 H7         2.3348    2.1514    9.2985 H         1 RES1    0.0000
     26 H8         2.7370    0.8645    8.4340 H         1 RES1    0.0000
     27 C12        2.3504    4.1841    3.0760 C.ar      1 RES1    0.0000
     28 C13        3.4117    4.8676    3.6536 C.ar      1 RES1    0.0000
     29 H9         3.5459    4.8132    4.5923 H         1 RES1    0.0000
     30 C14        4.2798    5.6296    2.8844 C.ar      1 RES1    0.0000
     31 H10        5.0033    6.0936    3.2888 H         1 RES1    0.0000
     32 C15        4.0725    5.6993    1.5223 C.ar      1 RES1    0.0000
     33 H11        4.6706    6.2101    0.9889 H         1 RES1    0.0000
     34 C16        3.0188    5.0471    0.9131 C.ar      1 RES1    0.0000
     35 H12        2.8873    5.1212   -0.0255 H         1 RES1    0.0000
     36 C17        2.1499    4.2791    1.6868 C.ar      1 RES1    0.0000
     37 C18        0.8389    3.6810   -0.2246 C.3       1 RES1    0.0000
     38 H13        0.0543    3.1414   -0.4540 H         1 RES1    0.0000
     39 H14        1.6186    3.3504   -0.7177 H         1 RES1    0.0000
     40 H15        0.6726    4.6153   -0.4660 H         1 RES1    0.0000
     41 C19        4.1667   -0.0202    1.0239 C.3       1 RES1    0.0000
     42 H16        4.7146   -0.6116    0.4660 H         1 RES1    0.0000
     43 H17        4.7422    0.4554    1.6601 H         1 RES1    0.0000
     44 H18        3.7037    0.6292    0.4540 H         1 RES1    0.0000
     45 C20        0.3715   -3.0675    3.4431 C.3       1 RES1    0.0000
     46 H19        0.4998   -3.9927    3.1465 H         1 RES1    0.0000
     47 H20       -0.5025   -2.7454    3.1375 H         1 RES1    0.0000
     48 H21        0.4101   -3.0314    4.4215 H         1 RES1    0.0000
@<TRIPOS>BOND
     1    1    7 1
     2    2   12 1
     3    3   13 1
     4    4   22 2
     5    5   22 1
     6    6   36 1
     7    7    8 2
     8    8    9 1
     9    9   10 ar
    10   10   11 1
    11   12   10 ar
    12   13   12 ar
    13   14   13 ar
    14   15   14 1
    15   16    9 ar
    16   17   16 1
    17   18   17 1
    18   19   17 1
    19   20    7 1
    20   21   20 1
    21   22   20 1
    22   23    5 1
    23   24   23 1
    24   25   23 1
    25   26   23 1
    26   27    8 1
    27   28   27 ar
    28   29   28 1
    29   30   28 ar
    30   31   30 1
    31   32   30 ar
    32   33   32 1
    33   34   32 ar
    34   35   34 1
    35   36   27 ar
    36   37    6 1
    37   38   37 1
    38   39   37 1
    39   40   37 1
    40   41    2 1
    41   42   41 1
    42   43   41 1
    43   44   41 1
    44   45    3 1
    45   46   45 1
    46   47   45 1
    47   48   45 1
    48   14   16 ar
    49   17   20 1
    50   34   36 ar
@<TRIPOS>SUBSTRUCTURE
     1 RES1 1

@<TRIPOS>CRYSIN
   5.4765   21.9984   15.0007  90.0000  92.7740  90.0000 231 1

