# MOL2 file generated by ConQuest
# Please check atom types

@<TRIPOS>MOLECULE
EROFEX
    18    18     1
SMALL
NO_CHARGES
****
Generated from CSD

@<TRIPOS>ATOM
      1 O1         1.5269    2.7457    0.4395 O.2       1 RES1    0.0000
      2 O2         3.3338    3.7542    1.0256 O.2       1 RES1    0.0000
      3 N1        -1.4831    3.2745    4.5130 N.pl3     1 RES1    0.0000
      4 H1        -1.5854    3.3304    5.3920 H         1 RES1    0.0000
      5 H2        -1.7190    2.4340    4.2825 H         1 RES1    0.0000
      6 N2        -0.5473    2.6962    2.0202 N.pl3     1 RES1    0.0000
      7 H3        -1.3700    2.4828    2.2506 H         1 RES1    0.0000
      8 H4        -0.2781    2.4865    1.2110 H         1 RES1    0.0000
      9 N3         2.1896    3.3754    1.2801 N.pl3     1 RES1    0.0000
     10 C1        -0.1401    3.5850    4.1960 C.ar      1 RES1    0.0000
     11 C2         0.3077    3.2902    2.8738 C.ar      1 RES1    0.0000
     12 C3         1.6341    3.6540    2.5694 C.ar      1 RES1    0.0000
     13 C4         2.4725    4.2863    3.5017 C.ar      1 RES1    0.0000
     14 H5         3.3617    4.5230    3.2640 H         1 RES1    0.0000
     15 C5         1.9988    4.5575    4.7512 C.ar      1 RES1    0.0000
     16 H6         2.5566    4.9839    5.3907 H         1 RES1    0.0000
     17 C6         0.6896    4.2057    5.0892 C.ar      1 RES1    0.0000
     18 H7         0.3666    4.4026    5.9613 H         1 RES1    0.0000
@<TRIPOS>BOND
     1    1    9 2
     2    2    9 2
     3    3    4 1
     4    5    3 1
     5    6    7 1
     6    8    6 1
     7    9   12 1
     8   10    3 1
     9   11    6 1
    10   12   11 ar
    11   13   12 ar
    12   14   13 1
    13   15   13 ar
    14   16   15 1
    15   17   10 ar
    16   18   17 1
    17   10   11 ar
    18   15   17 ar
@<TRIPOS>SUBSTRUCTURE
     1 RES1 1

@<TRIPOS>CRYSIN
  13.2854    3.7504   16.3309  90.0000 126.2080  90.0000  14 1

