# MOL2 file generated by ConQuest
# Please check atom types

@<TRIPOS>MOLECULE
EROHUP
    34    35     1
SMALL
NO_CHARGES
****
Generated from CSD

@<TRIPOS>ATOM
      1 N1         0.5814   -2.4337   12.7877 N.pl3     1 RES1    0.0000
      2 O1         0.5288    0.8497    7.3753 O.3       1 RES1    0.0000
      3 O2         0.7940    3.3754    7.5483 O.3       1 RES1    0.0000
      4 O3         0.4232   -0.0553    2.1874 O.2       1 RES1    0.0000
      5 O4         0.5041   -1.6002   13.6909 O.2       1 RES1    0.0000
      6 O5         0.6491   -3.6438   12.9823 O.2       1 RES1    0.0000
      7 C1         0.4276    1.7197    3.7819 C.ar      1 RES1    0.0000
      8 C2         0.4259    0.9108    4.9376 C.ar      1 RES1    0.0000
      9 H1         0.3629   -0.0144    4.8621 H         1 RES1    0.0000
     10 C3         0.5198    1.5001    6.1759 C.ar      1 RES1    0.0000
     11 C4         0.6491    2.9030    6.2858 C.ar      1 RES1    0.0000
     12 C5         0.6231    3.6949    5.1506 C.ar      1 RES1    0.0000
     13 H2         0.6816    4.6201    5.2241 H         1 RES1    0.0000
     14 C6         0.5103    3.0973    3.9007 C.ar      1 RES1    0.0000
     15 H3         0.4893    3.6270    3.1364 H         1 RES1    0.0000
     16 C7         0.3915    1.1312    2.4426 C.2       1 RES1    0.0000
     17 H4         0.3401    1.7175    1.7224 H         1 RES1    0.0000
     18 C8         1.1745    4.7506    7.6861 C.3       1 RES1    0.0000
     19 H5         1.9325    4.9307    7.1251 H         1 RES1    0.0000
     20 H6         1.4032    4.9295    8.6008 H         1 RES1    0.0000
     21 H7         0.4417    5.3133    7.4238 H         1 RES1    0.0000
     22 C9         0.4305   -0.5732    7.3784 C.3       1 RES1    0.0000
     23 H8         1.1582   -0.9595    6.8654 H         1 RES1    0.0000
     24 H9        -0.4082   -0.8504    6.9774 H         1 RES1    0.0000
     25 C10        0.4996   -1.0382    8.8060 C.ar      1 RES1    0.0000
     26 C11        0.3477   -2.3970    9.0771 C.ar      1 RES1    0.0000
     27 H10        0.2210   -2.9937    8.3751 H         1 RES1    0.0000
     28 C12        0.3845   -2.8676   10.3782 C.ar      1 RES1    0.0000
     29 H11        0.2820   -3.7733   10.5602 H         1 RES1    0.0000
     30 C13        0.5778   -1.9549   11.3998 C.ar      1 RES1    0.0000
     31 C14        0.7510   -0.6047   11.1657 C.ar      1 RES1    0.0000
     32 H12        0.8904   -0.0132   11.8703 H         1 RES1    0.0000
     33 C15        0.7113   -0.1514    9.8566 C.ar      1 RES1    0.0000
     34 H13        0.8276    0.7544    9.6787 H         1 RES1    0.0000
@<TRIPOS>BOND
     1    1    5 2
     2    2   10 1
     3    3   11 1
     4    4   16 2
     5    6    1 2
     6    7    8 ar
     7    8    9 1
     8   10    8 ar
     9   11   10 ar
    10   12   11 ar
    11   13   12 1
    12   14    7 ar
    13   15   14 1
    14   16    7 1
    15   17   16 1
    16   18    3 1
    17   19   18 1
    18   20   18 1
    19   21   18 1
    20   22    2 1
    21   23   22 1
    22   24   22 1
    23   25   22 1
    24   26   25 ar
    25   27   26 1
    26   28   26 ar
    27   29   28 1
    28   30    1 1
    29   31   30 ar
    30   32   31 1
    31   33   25 ar
    32   34   33 1
    33   12   14 ar
    34   28   30 ar
    35   31   33 ar
@<TRIPOS>SUBSTRUCTURE
     1 RES1 1

@<TRIPOS>CRYSIN
   6.8530   11.9940   16.4050  90.0000  98.2800  90.0000  14 1

