# MOL2 file generated by ConQuest
# Please check atom types

@<TRIPOS>MOLECULE
EROLON
    49    51     1
SMALL
NO_CHARGES
****
Generated from CSD

@<TRIPOS>ATOM
      1 O1         7.2167    9.3882    6.1357 O.3       1 RES1    0.0000
      2 N1         7.2630   10.9947    4.6151 N.3       1 RES1    0.0000
      3 H1         7.6673   11.4545    4.0111 H         1 RES1    0.0000
      4 N2        10.0104   10.3615    4.0303 N.pl3     1 RES1    0.0000
      5 C1         9.2812    9.7241    5.0095 C.2       1 RES1    0.0000
      6 C2        10.0235    8.7669    5.9060 C.3       1 RES1    0.0000
      7 H2        10.6177    8.2235    5.3477 H         1 RES1    0.0000
      8 O2        11.2103   10.0503    3.8809 O.2       1 RES1    0.0000
      9 C3         7.9493   10.0543    5.2197 C.2       1 RES1    0.0000
     10 O3         9.4866   11.2485    3.3007 O.2       1 RES1    0.0000
     11 C4         9.0360    7.8457    6.5807 C.ar      1 RES1    0.0000
     12 C5        10.8763    9.4968    6.9383 C.ar      1 RES1    0.0000
     13 C6        12.2545    9.4556    6.9225 C.ar      1 RES1    0.0000
     14 H3        12.6843    8.9591    6.2643 H         1 RES1    0.0000
     15 C7         7.7106    8.2001    6.6929 C.ar      1 RES1    0.0000
     16 C8        12.4223   10.8739    8.8730 C.ar      1 RES1    0.0000
     17 C9         9.4309    6.6495    7.1681 C.ar      1 RES1    0.0000
     18 H4        10.3163    6.3753    7.0961 H         1 RES1    0.0000
     19 C10       10.2792   10.2433    7.9417 C.ar      1 RES1    0.0000
     20 H5         9.3505   10.2924    7.9756 H         1 RES1    0.0000
     21 C11       13.0164   10.1307    7.8549 C.ar      1 RES1    0.0000
     22 H6        13.9439   10.0893    7.8031 H         1 RES1    0.0000
     23 C12       11.0174   10.9103    8.8868 C.ar      1 RES1    0.0000
     24 H7        10.5797   11.3955    9.5483 H         1 RES1    0.0000
     25 C13        5.8727   11.3195    4.8863 C.3       1 RES1    0.0000
     26 H8         5.3407   10.5228    4.8260 H         1 RES1    0.0000
     27 H9         5.5631   11.9603    4.2428 H         1 RES1    0.0000
     28 H10        5.7972   11.6893    5.7690 H         1 RES1    0.0000
     29 N3        13.1665   11.5587    9.8075 N.3       1 RES1    0.0000
     30 C14        6.7901    7.4295    7.3723 C.ar      1 RES1    0.0000
     31 H11        5.9006    7.6947    7.4305 H         1 RES1    0.0000
     32 C15        7.2147    6.2607    7.9618 C.ar      1 RES1    0.0000
     33 H12        6.6115    5.7348    8.4360 H         1 RES1    0.0000
     34 C16        8.5362    5.8647    7.8507 C.ar      1 RES1    0.0000
     35 H13        8.8169    5.0670    8.2380 H         1 RES1    0.0000
     36 C17       14.6047   11.8534    9.5694 C.3       1 RES1    0.0000
     37 H14       14.7513   11.9328    8.6148 H         1 RES1    0.0000
     38 H15       14.8167   12.7106    9.9705 H         1 RES1    0.0000
     39 C18       12.5885   11.9223   11.1040 C.3       1 RES1    0.0000
     40 H16       11.8578   11.3185   11.3083 H         1 RES1    0.0000
     41 H17       13.2626   11.8201   11.7940 H         1 RES1    0.0000
     42 C19       12.0956   13.2918   11.1156 C.3       1 RES1    0.0000
     43 H18       12.8127   13.8920   10.8987 H         1 RES1    0.0000
     44 H19       11.7544   13.5015   11.9877 H         1 RES1    0.0000
     45 H20       11.3938   13.3839   10.4669 H         1 RES1    0.0000
     46 C20       15.5221   10.8499   10.1018 C.3       1 RES1    0.0000
     47 H21       15.3648   10.7386   11.0416 H         1 RES1    0.0000
     48 H22       16.4269   11.1373    9.9599 H         1 RES1    0.0000
     49 H23       15.3780   10.0143    9.6520 H         1 RES1    0.0000
@<TRIPOS>BOND
     1    1    9 1
     2    2    3 1
     3    4    5 1
     4    5    6 1
     5    6    7 1
     6    8    4 2
     7    9    2 1
     8   10    4 2
     9   11    6 1
    10   12    6 1
    11   13   12 ar
    12   14   13 1
    13   15    1 1
    14   16   21 ar
    15   17   11 ar
    16   18   17 1
    17   19   12 ar
    18   20   19 1
    19   21   13 ar
    20   22   21 1
    21   23   16 ar
    22   24   23 1
    23   25    2 1
    24   26   25 1
    25   27   25 1
    26   28   25 1
    27   29   16 1
    28   30   15 ar
    29   31   30 1
    30   32   30 ar
    31   33   32 1
    32   34   17 ar
    33   35   34 1
    34   36   29 1
    35   37   36 1
    36   38   36 1
    37   39   29 1
    38   40   39 1
    39   41   39 1
    40   42   39 1
    41   43   42 1
    42   44   42 1
    43   45   42 1
    44   46   36 1
    45   47   46 1
    46   48   46 1
    47   49   46 1
    48    5    9 2
    49   11   15 ar
    50   19   23 ar
    51   32   34 ar
@<TRIPOS>SUBSTRUCTURE
     1 RES1 1

@<TRIPOS>CRYSIN
   8.9199   10.4333   11.6697  65.1000  82.3880  69.5130   2 1

