# MOL2 file generated by ConQuest
# Please check atom types

@<TRIPOS>MOLECULE
EROXEP
    59    60     1
SMALL
NO_CHARGES
****
Generated from CSD

@<TRIPOS>ATOM
      1 N1        13.9135    9.8035    0.4228 N.pl3     1 RES1    0.0000
      2 O1        10.2456    9.4782    1.4095 O.2       1 RES1    0.0000
      3 C1         8.4499   16.0038    3.2319 C.3       1 RES1    0.0000
      4 H1         7.8817   15.6608    2.5379 H         1 RES1    0.0000
      5 H2         9.3288   16.1613    2.8775 H         1 RES1    0.0000
      6 H3         8.0881   16.8263    3.5671 H         1 RES1    0.0000
      7 O2        15.0553    9.7685    0.8844 O.2       1 RES1    0.0000
      8 C2         9.4801   15.7238    5.3976 C.3       1 RES1    0.0000
      9 H4         9.1019   16.5637    5.6656 H         1 RES1    0.0000
     10 H5        10.3488   15.8725    5.0142 H         1 RES1    0.0000
     11 H6         9.5639   15.1515    6.1636 H         1 RES1    0.0000
     12 O3        13.4495   10.7538   -0.1257 O.2       1 RES1    0.0000
     13 C3         7.2194   14.8838    5.0105 C.3       1 RES1    0.0000
     14 H7         6.5837   14.4848    4.4139 H         1 RES1    0.0000
     15 H8         6.9026   15.7483    5.2854 H         1 RES1    0.0000
     16 H9         7.3277   14.3238    5.7840 H         1 RES1    0.0000
     17 C4         8.5317   15.0307    4.3153 C.3       1 RES1    0.0000
     18 C5         9.0917   13.7060    3.8537 C.ar      1 RES1    0.0000
     19 C6        10.1137   13.0463    4.5354 C.ar      1 RES1    0.0000
     20 H10       10.4305   13.4050    5.3322 H         1 RES1    0.0000
     21 C7        10.6615   11.8860    4.0645 C.ar      1 RES1    0.0000
     22 H11       11.3483   11.4800    4.5415 H         1 RES1    0.0000
     23 C8        10.2088   11.2998    2.8855 C.ar      1 RES1    0.0000
     24 C9         9.1551   11.9192    2.2255 C.ar      1 RES1    0.0000
     25 H12        8.8015   11.5395    1.4532 H         1 RES1    0.0000
     26 C10        8.6339   13.0883    2.7117 C.ar      1 RES1    0.0000
     27 H13        7.9348   13.4873    2.2458 H         1 RES1    0.0000
     28 C11       10.8332   10.0835    2.2822 C.2       1 RES1    0.0000
     29 C12       12.1618    9.6460    2.7801 C.3       1 RES1    0.0000
     30 H14       12.0984    9.4850    3.7342 H         1 RES1    0.0000
     31 H15       12.7954   10.3688    2.6470 H         1 RES1    0.0000
     32 C13       12.7096    8.3808    2.1040 C.3       1 RES1    0.0000
     33 H16       11.9738    7.7350    2.1028 H         1 RES1    0.0000
     34 C14       13.0714    8.6065    0.6379 C.3       1 RES1    0.0000
     35 H17       13.5435    7.8260    0.3063 H         1 RES1    0.0000
     36 H18       12.2558    8.6993    0.1226 H         1 RES1    0.0000
     37 C15       13.8338    7.7298    2.8917 C.ar      1 RES1    0.0000
     38 C16       14.7209    8.4403    3.6787 C.ar      1 RES1    0.0000
     39 H19       14.6596    9.3660    3.7138 H         1 RES1    0.0000
     40 C17       15.6996    7.7910    4.4170 C.ar      1 RES1    0.0000
     41 H20       16.2907    8.2985    4.9236 H         1 RES1    0.0000
     42 C18       15.8267    6.4190    4.4269 C.ar      1 RES1    0.0000
     43 C19       14.9519    5.7155    3.6035 C.ar      1 RES1    0.0000
     44 H21       15.0398    4.7933    3.5326 H         1 RES1    0.0000
     45 C20       13.9667    6.3525    2.8948 C.ar      1 RES1    0.0000
     46 H22       13.3678    5.8415    2.3993 H         1 RES1    0.0000
     47 C21       16.8977    5.7103    5.2540 C.3       1 RES1    0.0000
     48 C22       18.0383    5.3060    4.3123 C.3       1 RES1    0.0000
     49 H23       18.7169    4.8475    4.8115 H         1 RES1    0.0000
     50 H24       18.4124    6.0918    3.9086 H         1 RES1    0.0000
     51 H25       17.6970    4.7250    3.6275 H         1 RES1    0.0000
     52 C23       17.4415    6.5923    6.3664 C.3       1 RES1    0.0000
     53 H26       16.7261    6.8442    6.9549 H         1 RES1    0.0000
     54 H27       17.8339    7.3815    5.9861 H         1 RES1    0.0000
     55 H28       18.1078    6.1093    6.8613 H         1 RES1    0.0000
     56 C24       16.2927    4.4835    5.9448 C.3       1 RES1    0.0000
     57 H29       15.5957    4.7635    6.5433 H         1 RES1    0.0000
     58 H30       16.9754    4.0250    6.4403 H         1 RES1    0.0000
     59 H31       15.9248    3.8920    5.2829 H         1 RES1    0.0000
@<TRIPOS>BOND
     1    1    7 2
     2    2   28 2
     3    3    4 1
     4    5    3 1
     5    6    3 1
     6    8    9 1
     7   10    8 1
     8   11    8 1
     9   12    1 2
    10   13   14 1
    11   15   13 1
    12   16   13 1
    13   17    3 1
    14   18   17 1
    15   19   18 ar
    16   20   19 1
    17   21   19 ar
    18   22   21 1
    19   23   21 ar
    20   24   23 ar
    21   25   24 1
    22   26   18 ar
    23   27   26 1
    24   28   23 1
    25   29   28 1
    26   30   29 1
    27   31   29 1
    28   32   29 1
    29   33   32 1
    30   34    1 1
    31   35   34 1
    32   36   34 1
    33   37   32 1
    34   38   37 ar
    35   39   38 1
    36   40   38 ar
    37   41   40 1
    38   42   40 ar
    39   43   42 ar
    40   44   43 1
    41   45   37 ar
    42   46   45 1
    43   47   42 1
    44   48   47 1
    45   49   48 1
    46   50   48 1
    47   51   48 1
    48   52   47 1
    49   53   52 1
    50   54   52 1
    51   55   52 1
    52   56   47 1
    53   57   56 1
    54   58   56 1
    55   59   56 1
    56    8   17 1
    57   13   17 1
    58   24   26 ar
    59   32   34 1
    60   43   45 ar
@<TRIPOS>SUBSTRUCTURE
     1 RES1 1

@<TRIPOS>CRYSIN
  20.4400   17.5000    6.1630  90.0000  90.0000  90.0000  33 1

