# MOL2 file generated by ConQuest
# Please check atom types

@<TRIPOS>MOLECULE
EROYIU
    27    28     1
SMALL
NO_CHARGES
****
Generated from CSD

@<TRIPOS>ATOM
      1 O1         3.9436    5.5199    4.9712 O.2       1 RES1    0.0000
      2 O2         4.7272    5.5694    2.9809 O.2       1 RES1    0.0000
      3 O3         2.3942    2.7135    0.7900 O.2       1 RES1    0.0000
      4 N1         4.3745    4.9572    3.9812 N.pl3     1 RES1    0.0000
      5 N2         5.3382    2.4371    0.4417 N.pl3     1 RES1    0.0000
      6 C1         4.4931    3.4877    4.0044 C.ar      1 RES1    0.0000
      7 C2         4.1971    2.8828    5.2181 C.ar      1 RES1    0.0000
      8 H1         3.9282    3.4080    5.9621 H         1 RES1    0.0000
      9 C3         4.2972    1.5126    5.3343 C.ar      1 RES1    0.0000
     10 H2         4.0926    1.0863    6.1583 H         1 RES1    0.0000
     11 C4         4.6979    0.7617    4.2433 C.ar      1 RES1    0.0000
     12 H3         4.7841   -0.1814    4.3237 H         1 RES1    0.0000
     13 C5         4.9734    1.3801    3.0332 C.ar      1 RES1    0.0000
     14 H4         5.2388    0.8460    2.2937 H         1 RES1    0.0000
     15 C6         4.8735    2.7636    2.8682 C.ar      1 RES1    0.0000
     16 C7         5.1676    3.4053    1.5212 C.3       1 RES1    0.0000
     17 H5         4.4244    4.0170    1.2885 H         1 RES1    0.0000
     18 H6         5.9916    3.9481    1.5984 H         1 RES1    0.0000
     19 C8         6.5323    2.0256   -0.0550 C.2       1 RES1    0.0000
     20 H7         7.3855    2.2932    0.2664 H         1 RES1    0.0000
     21 C9         6.3071    1.1587   -1.0981 C.2       1 RES1    0.0000
     22 H8         6.9708    0.7281   -1.6242 H         1 RES1    0.0000
     23 C10        4.9257    1.0275   -1.2434 C.2       1 RES1    0.0000
     24 H9         4.4785    0.4888   -1.8861 H         1 RES1    0.0000
     25 C11        4.3237    1.8223   -0.2844 C.2       1 RES1    0.0000
     26 C12        2.9194    2.0019   -0.0591 C.2       1 RES1    0.0000
     27 H10        2.3328    1.5181   -0.6287 H         1 RES1    0.0000
@<TRIPOS>BOND
     1    1    4 2
     2    2    4 2
     3    3   26 2
     4    4    6 1
     5    5   16 1
     6    6    7 ar
     7    7    8 1
     8    9    7 ar
     9   10    9 1
    10   11    9 ar
    11   12   11 1
    12   13   11 ar
    13   14   13 1
    14   15    6 ar
    15   16   15 1
    16   17   16 1
    17   18   16 1
    18   19    5 1
    19   20   19 1
    20   21   19 2
    21   22   21 1
    22   23   21 1
    23   24   23 1
    24   25    5 1
    25   26   25 1
    26   27   26 1
    27   13   15 ar
    28   23   25 2
@<TRIPOS>SUBSTRUCTURE
     1 RES1 1

@<TRIPOS>CRYSIN
   7.2643    8.3072    9.2570 104.1000  96.4630  96.9200   2 1

