# MOL2 file generated by ConQuest
# Please check atom types

@<TRIPOS>MOLECULE
ERSTNA
    66    69     1
SMALL
NO_CHARGES
****
Generated from CSD

@<TRIPOS>ATOM
      1 C1         7.7592   -0.9167    7.6875 C.3       1 RES1    0.0000
      2 H1         8.0155   -0.3833    8.5008 H         1 RES1    0.0000
      3 H2         6.9337   -1.2137    8.1068 H         1 RES1    0.0000
      4 H3         8.4384   -1.3734    7.4065 H         1 RES1    0.0000
      5 O1         7.3834    0.1262    6.7893 O.3       1 RES1    0.0000
      6 C2         6.6028    1.1371    7.3145 C.ar      1 RES1    0.0000
      7 C3         5.2313    0.9630    7.4467 C.ar      1 RES1    0.0000
      8 C4         4.5234   -0.2475    7.0361 C.2       1 RES1    0.0000
      9 H4         5.0367   -0.8943    6.6361 H         1 RES1    0.0000
     10 C5         3.2397   -0.3865    7.3040 C.2       1 RES1    0.0000
     11 H5         2.7374   -1.2616    6.9950 H         1 RES1    0.0000
     12 C6         2.5242    0.6212    8.1471 C.3       1 RES1    0.0000
     13 C7         2.6445    0.2795    9.6205 C.3       1 RES1    0.0000
     14 H6         2.0723    0.9103   10.1905 H         1 RES1    0.0000
     15 H7         2.1850   -0.5909    9.8753 H         1 RES1    0.0000
     16 H8         3.6524    0.2236    9.9103 H         1 RES1    0.0000
     17 C8         1.0977    0.7969    7.7260 C.3       1 RES1    0.0000
     18 H9         0.6245    0.0319    7.8705 H         1 RES1    0.0000
     19 H10        0.6849    1.4852    8.2032 H         1 RES1    0.0000
     20 H11        1.0123    1.1019    6.7061 H         1 RES1    0.0000
     21 O2         3.1078    1.9467    7.9598 O.3       1 RES1    0.0000
     22 C9         4.4654    2.0458    7.8731 C.ar      1 RES1    0.0000
     23 C10        5.0099    3.3058    8.1139 C.ar      1 RES1    0.0000
     24 C11        4.1282    4.4668    8.4991 C.3       1 RES1    0.0000
     25 H12        4.5893    5.2701    8.2119 H         1 RES1    0.0000
     26 C12        3.8880    4.5562    9.9909 C.3       1 RES1    0.0000
     27 H13        3.6886    3.7210   10.3393 H         1 RES1    0.0000
     28 C13        2.7234    5.4330   10.3507 C.3       1 RES1    0.0000
     29 H14        1.7971    5.1104    9.9016 H         1 RES1    0.0000
     30 O3         3.0252    6.7936    9.8893 O.3       1 RES1    0.0000
     31 C14        2.0039    7.6209    9.8630 C.2       1 RES1    0.0000
     32 O4         0.8879    7.3462   10.1800 O.2       1 RES1    0.0000
     33 C15        2.3820    8.9943    9.3850 C.ar      1 RES1    0.0000
     34 C16        1.3530    9.8966    9.2056 C.ar      1 RES1    0.0000
     35 H15        0.4153    9.6299    9.3238 H         1 RES1    0.0000
     36 C17        1.6708   11.1822    8.7722 C.ar      1 RES1    0.0000
     37 N1         0.5760   12.1372    8.5954 N.pl3     1 RES1    0.0000
     38 O5        -0.5683   11.7667    8.7459 O.2       1 RES1    0.0000
     39 O6         0.8794   13.2902    8.2942 O.2       1 RES1    0.0000
     40 C18        2.9575   11.5687    8.5209 C.ar      1 RES1    0.0000
     41 H16        3.1399   12.4566    8.2032 H         1 RES1    0.0000
     42 C19        7.2186    2.3652    7.5982 C.ar      1 RES1    0.0000
     43 C20        8.6380    2.6287    7.4354 C.2       1 RES1    0.0000
     44 H17        9.1957    1.9803    6.9600 H         1 RES1    0.0000
     45 C21        9.1468    3.7657    7.8460 C.2       1 RES1    0.0000
     46 H18       10.0629    3.9606    7.7742 H         1 RES1    0.0000
     47 C22        8.3207    4.7654    8.5822 C.3       1 RES1    0.0000
     48 C23        8.3738    4.4956   10.0854 C.3       1 RES1    0.0000
     49 H19        9.3306    4.5035   10.3918 H         1 RES1    0.0000
     50 H20        7.7212    5.1104   10.4881 H         1 RES1    0.0000
     51 H21        7.9305    3.5773   10.1730 H         1 RES1    0.0000
     52 C24        8.7169    6.2027    8.2793 C.3       1 RES1    0.0000
     53 H22        7.9913    6.8352    8.5971 H         1 RES1    0.0000
     54 H23        9.6758    6.3401    8.5446 H         1 RES1    0.0000
     55 H24        8.7522    6.3241    7.3189 H         1 RES1    0.0000
     56 O7         6.9211    4.6840    8.1638 O.3       1 RES1    0.0000
     57 C25        6.3964    3.4272    7.9895 C.ar      1 RES1    0.0000
     58 H25        3.2068    4.4077    8.0281 H         1 RES1    0.0000
     59 H26        4.7280    4.9507   10.4268 H         1 RES1    0.0000
     60 H27        2.5598    5.4458   11.2498 H         1 RES1    0.0000
     61 C26        3.6803    9.3520    9.1329 C.ar      1 RES1    0.0000
     62 H28        4.4181    8.7835    9.2975 H         1 RES1    0.0000
     63 C27        3.9494   10.6472    8.7065 C.ar      1 RES1    0.0000
     64 N2         5.3384   11.0369    8.4579 N.pl3     1 RES1    0.0000
     65 O8         6.2137   10.2160    8.6566 O.2       1 RES1    0.0000
     66 O9         5.5541   12.1707    8.0561 O.2       1 RES1    0.0000
@<TRIPOS>BOND
     1    1    2 1
     2    3    1 1
     3    4    1 1
     4    5    1 1
     5    6    5 1
     6    7    6 ar
     7    8    7 1
     8    9    8 1
     9   10    8 2
    10   11   10 1
    11   12   10 1
    12   13   12 1
    13   14   13 1
    14   15   13 1
    15   16   13 1
    16   17   12 1
    17   18   17 1
    18   19   17 1
    19   20   17 1
    20   21   12 1
    21   22    7 ar
    22   23   22 ar
    23   24   23 1
    24   25   24 1
    25   26   24 1
    26   27   26 1
    27   28   26 1
    28   29   28 1
    29   30   28 1
    30   31   30 1
    31   32   31 2
    32   33   31 1
    33   34   33 ar
    34   35   34 1
    35   36   34 ar
    36   37   36 1
    37   38   37 2
    38   39   37 2
    39   40   36 ar
    40   41   40 1
    41   42    6 ar
    42   43   42 1
    43   44   43 1
    44   45   43 2
    45   46   45 1
    46   47   45 1
    47   48   47 1
    48   49   48 1
    49   50   48 1
    50   51   48 1
    51   52   47 1
    52   53   52 1
    53   54   52 1
    54   55   52 1
    55   56   47 1
    56   57   23 ar
    57   58   24 1
    58   59   26 1
    59   60   28 1
    60   61   33 ar
    61   62   61 1
    62   63   40 ar
    63   64   63 1
    64   65   64 2
    65   66   64 2
    66   21   22 1
    67   42   57 ar
    68   56   57 1
    69   61   63 ar
@<TRIPOS>SUBSTRUCTURE
     1 RES1 1

@<TRIPOS>CRYSIN
  19.3310   15.9700    8.7660  90.0000  92.9100  90.0000 231 1

