# MOL2 file generated by ConQuest
# Please check atom types

@<TRIPOS>MOLECULE
ERSTNC
    70    73     1
SMALL
NO_CHARGES
****
Generated from CSD

@<TRIPOS>ATOM
      1 C1         4.9096    2.7397   11.4834 C.3       1 RES1    0.0000
      2 H1         4.7859    1.7988   11.4971 H         1 RES1    0.0000
      3 H2         5.9018    2.6290   11.2686 H         1 RES1    0.0000
      4 H3         4.7313    3.0244   12.2057 H         1 RES1    0.0000
      5 O1         4.1496    3.4217   10.4914 O.3       1 RES1    0.0000
      6 C2         4.2797    2.8702    9.2206 C.ar      1 RES1    0.0000
      7 C3         5.1499    3.5047    8.3611 C.ar      1 RES1    0.0000
      8 C4         6.0218    4.6769    8.7657 C.3       1 RES1    0.0000
      9 H4         5.3672    5.3964    8.7314 H         1 RES1    0.0000
     10 H5         6.5428    4.5069    9.6229 H         1 RES1    0.0000
     11 C5         7.1308    4.8864    7.7486 C.3       1 RES1    0.0000
     12 H6         7.7763    5.5743    7.7943 H         1 RES1    0.0000
     13 H7         7.8826    4.2301    7.9314 H         1 RES1    0.0000
     14 C6         6.6325    4.8251    6.3314 C.3       1 RES1    0.0000
     15 C7         5.5576    5.8471    6.0137 C.3       1 RES1    0.0000
     16 H8         5.9900    6.5824    6.0343 H         1 RES1    0.0000
     17 H9         5.3771    5.6929    4.8914 H         1 RES1    0.0000
     18 H10        4.6467    5.6534    6.5600 H         1 RES1    0.0000
     19 C8         7.7849    4.9437    5.3349 C.3       1 RES1    0.0000
     20 H11        7.3280    4.9615    4.3657 H         1 RES1    0.0000
     21 H12        8.2670    5.9103    5.3714 H         1 RES1    0.0000
     22 H13        8.3882    4.4080    5.9200 H         1 RES1    0.0000
     23 O2         6.0753    3.4988    6.1029 O.3       1 RES1    0.0000
     24 C9         5.2346    2.9868    7.0583 C.ar      1 RES1    0.0000
     25 C10        4.5151    1.8561    6.6606 C.ar      1 RES1    0.0000
     26 C11        4.7134    1.2513    5.2869 C.3       1 RES1    0.0000
     27 H14        5.7638    1.3046    5.0286 H         1 RES1    0.0000
     28 C12        3.8746    1.8502    4.1943 C.3       1 RES1    0.0000
     29 H15        3.9193    2.7871    4.2514 H         1 RES1    0.0000
     30 C13        2.6057    1.4035    4.1417 C.3       1 RES1    0.0000
     31 H16        2.5336    0.4349    4.1143 H         1 RES1    0.0000
     32 O3         1.7874    2.0597    3.0560 O.3       1 RES1    0.0000
     33 C14        1.7727    1.5280    1.8674 C.2       1 RES1    0.0000
     34 O4         2.4255    0.6148    1.4331 O.2       1 RES1    0.0000
     35 C15        0.7147    2.1309    0.9737 C.ar      1 RES1    0.0000
     36 C16        0.5155    1.6782   -0.2834 C.ar      1 RES1    0.0000
     37 H17        1.1652    1.1465   -0.6400 H         1 RES1    0.0000
     38 C17       -0.5081    2.1684   -1.0469 C.ar      1 RES1    0.0000
     39 N1        -0.7188    1.6861   -2.4434 N.pl3     1 RES1    0.0000
     40 O5         0.0584    0.8579   -2.8777 O.2       1 RES1    0.0000
     41 O6        -1.6519    2.1368   -3.0560 O.2       1 RES1    0.0000
     42 C18       -1.4094    3.1093   -0.5874 C.ar      1 RES1    0.0000
     43 H18       -2.2113    3.3999   -1.0971 H         1 RES1    0.0000
     44 C19        3.4875    1.7830    8.8800 C.ar      1 RES1    0.0000
     45 C20        2.4601    1.2038    9.8400 C.3       1 RES1    0.0000
     46 H19        2.9537    0.6721   10.5600 H         1 RES1    0.0000
     47 H20        1.9607    1.9965   10.3314 H         1 RES1    0.0000
     48 C21        1.4615    0.3696    9.0926 C.3       1 RES1    0.0000
     49 H21        0.9333   -0.2767    9.7143 H         1 RES1    0.0000
     50 H22        0.9297    0.9093    8.5486 H         1 RES1    0.0000
     51 C22        2.1510   -0.5614    8.0823 C.3       1 RES1    0.0000
     52 C23        1.1433   -1.3244    7.2183 C.3       1 RES1    0.0000
     53 H23        1.7737   -1.8383    6.4686 H         1 RES1    0.0000
     54 H24        0.5346   -1.9174    7.8400 H         1 RES1    0.0000
     55 H25        0.5478   -0.6918    7.0629 H         1 RES1    0.0000
     56 C24        3.1231   -1.5260    8.7497 C.3       1 RES1    0.0000
     57 H26        3.3707   -2.0558    9.3943 H         1 RES1    0.0000
     58 H27        3.4362   -2.1941    8.0914 H         1 RES1    0.0000
     59 H28        3.7371   -0.9883    9.1886 H         1 RES1    0.0000
     60 O7         2.8917    0.2412    7.1223 O.3       1 RES1    0.0000
     61 C25        3.6407    1.2987    7.5909 C.ar      1 RES1    0.0000
     62 H29        4.5474    0.1779    5.3486 H         1 RES1    0.0000
     63 H30        4.2994    1.5814    3.3371 H         1 RES1    0.0000
     64 H31        2.1634    1.6209    5.0514 H         1 RES1    0.0000
     65 C26       -0.1406    3.1034    1.4674 C.ar      1 RES1    0.0000
     66 H32       -0.0180    3.5383    2.3543 H         1 RES1    0.0000
     67 C27       -1.1697    3.5936    0.6834 C.ar      1 RES1    0.0000
     68 N2        -2.1003    4.5780    1.2366 N.pl3     1 RES1    0.0000
     69 O8        -1.7674    5.1414    2.2903 O.2       1 RES1    0.0000
     70 O9        -3.1501    4.7836    0.6674 O.2       1 RES1    0.0000
@<TRIPOS>BOND
     1    1    2 1
     2    3    1 1
     3    4    1 1
     4    5    1 1
     5    6    5 1
     6    7    6 ar
     7    8    7 1
     8    9    8 1
     9   10    8 1
    10   11    8 1
    11   12   11 1
    12   13   11 1
    13   14   11 1
    14   15   14 1
    15   16   15 1
    16   17   15 1
    17   18   15 1
    18   19   14 1
    19   20   19 1
    20   21   19 1
    21   22   19 1
    22   23   14 1
    23   24    7 ar
    24   25   24 ar
    25   26   25 1
    26   27   26 1
    27   28   26 1
    28   29   28 1
    29   30   28 1
    30   31   30 1
    31   32   30 1
    32   33   32 1
    33   34   33 2
    34   35   33 1
    35   36   35 ar
    36   37   36 1
    37   38   36 ar
    38   39   38 1
    39   40   39 2
    40   41   39 2
    41   42   38 ar
    42   43   42 1
    43   44    6 ar
    44   45   44 1
    45   46   45 1
    46   47   45 1
    47   48   45 1
    48   49   48 1
    49   50   48 1
    50   51   48 1
    51   52   51 1
    52   53   52 1
    53   54   52 1
    54   55   52 1
    55   56   51 1
    56   57   56 1
    57   58   56 1
    58   59   56 1
    59   60   51 1
    60   61   25 ar
    61   62   26 1
    62   63   28 1
    63   64   30 1
    64   65   35 ar
    65   66   65 1
    66   67   42 ar
    67   68   67 1
    68   69   68 2
    69   70   68 2
    70   23   24 1
    71   44   61 ar
    72   60   61 1
    73   65   67 ar
@<TRIPOS>SUBSTRUCTURE
     1 RES1 1

@<TRIPOS>CRYSIN
   5.8420   19.7670   22.9250  90.0000  94.4100  90.0000  14 1

