# MOL2 file generated by ConQuest
# Please check atom types

@<TRIPOS>MOLECULE
ERSTND
    66    69     1
SMALL
NO_CHARGES
****
Generated from CSD

@<TRIPOS>ATOM
      1 C1         6.8537    4.6190    5.8521 C.3       1 RES1    0.0000
      2 H1         7.0218    5.4568    5.2053 H         1 RES1    0.0000
      3 H2         6.1211    4.8440    6.4767 H         1 RES1    0.0000
      4 H3         7.6195    4.4167    6.3201 H         1 RES1    0.0000
      5 O1         6.4935    3.4941    5.0570 O.3       1 RES1    0.0000
      6 C2         5.4068    3.7060    4.2094 C.ar      1 RES1    0.0000
      7 C3         3.2939    4.0192    2.4341 C.ar      1 RES1    0.0000
      8 C4         2.1465    4.1149    1.5690 C.2       1 RES1    0.0000
      9 H4         2.2647    4.3981    0.7463 H         1 RES1    0.0000
     10 C5         0.9350    3.8508    2.0103 C.2       1 RES1    0.0000
     11 H5         0.1667    3.8990    1.4280 H         1 RES1    0.0000
     12 C6         0.6717    3.4407    3.4254 C.3       1 RES1    0.0000
     13 C7         0.1663    4.5972    4.2490 C.3       1 RES1    0.0000
     14 H6         0.8294    5.3298    4.2656 H         1 RES1    0.0000
     15 H7        -0.6772    4.8900    3.8602 H         1 RES1    0.0000
     16 H8         0.0317    4.2414    5.1961 H         1 RES1    0.0000
     17 C8        -0.2571    2.2521    3.4880 C.3       1 RES1    0.0000
     18 H9        -1.1226    2.5082    3.1785 H         1 RES1    0.0000
     19 H10        0.1315    1.5067    3.0126 H         1 RES1    0.0000
     20 H11       -0.3221    1.9467    4.4591 H         1 RES1    0.0000
     21 O2         1.8984    2.9455    4.0592 O.3       1 RES1    0.0000
     22 C9         3.1202    3.4521    3.6972 C.ar      1 RES1    0.0000
     23 C10        4.1440    3.2998    4.6222 C.ar      1 RES1    0.0000
     24 C11        3.8759    2.7243    5.9967 C.3       1 RES1    0.0000
     25 H12        3.4738    1.8717    5.8963 H         1 RES1    0.0000
     26 C12        3.0752    3.6833    6.8858 C.3       1 RES1    0.0000
     27 H13        3.6117    4.4940    6.9742 H         1 RES1    0.0000
     28 C13        2.8256    3.1533    8.2650 C.3       1 RES1    0.0000
     29 H14        2.2206    3.7384    8.7431 H         1 RES1    0.0000
     30 O3         4.1200    3.1330    8.9430 O.3       1 RES1    0.0000
     31 C14        4.1141    2.6491   10.1702 C.2       1 RES1    0.0000
     32 O4         3.1398    2.2377   10.7423 O.2       1 RES1    0.0000
     33 C15        5.4884    2.6219   10.7681 C.ar      1 RES1    0.0000
     34 C16        5.6428    2.0222   11.9935 C.ar      1 RES1    0.0000
     35 H15        4.9272    1.6247   12.4191 H         1 RES1    0.0000
     36 C17        6.8929    1.9291   12.5398 C.ar      1 RES1    0.0000
     37 N1         7.0362    1.2723   13.8508 N.pl3     1 RES1    0.0000
     38 O5         6.1373    0.5341   14.2046 O.2       1 RES1    0.0000
     39 O6         8.0404    1.4721   14.4819 O.2       1 RES1    0.0000
     40 C18        8.0250    2.4046   11.9253 C.ar      1 RES1    0.0000
     41 H16        8.9072    2.3415   12.3086 H         1 RES1    0.0000
     42 C19        5.6601    4.2537    2.9528 C.ar      1 RES1    0.0000
     43 C20        6.9741    4.6286    2.4562 C.2       1 RES1    0.0000
     44 H17        7.7077    4.3703    2.9297 H         1 RES1    0.0000
     45 C21        7.0954    5.2858    1.3129 C.2       1 RES1    0.0000
     46 H18        7.9655    5.5097    0.9674 H         1 RES1    0.0000
     47 C22        5.9067    5.6981    0.5040 C.3       1 RES1    0.0000
     48 C23        5.4933    7.1120    0.8402 C.3       1 RES1    0.0000
     49 H19        5.2608    7.2038    1.8518 H         1 RES1    0.0000
     50 H20        6.2217    7.7058    0.6173 H         1 RES1    0.0000
     51 H21        4.7459    7.3705    0.2395 H         1 RES1    0.0000
     52 C24        6.1491    5.5217   -0.9701 C.3       1 RES1    0.0000
     53 H22        6.9231    6.0525   -1.2069 H         1 RES1    0.0000
     54 H23        6.3894    4.6118   -1.1608 H         1 RES1    0.0000
     55 H24        5.3612    5.7342   -1.4557 H         1 RES1    0.0000
     56 O7         4.7677    4.8295    0.7951 O.3       1 RES1    0.0000
     57 C25        4.5868    4.4027    2.0877 C.ar      1 RES1    0.0000
     58 H25        4.7247    2.5181    6.3938 H         1 RES1    0.0000
     59 H26        2.2563    3.8709    6.5412 H         1 RES1    0.0000
     60 H27        2.5398    2.1632    8.1443 H         1 RES1    0.0000
     61 C26        6.5939    3.1169   10.1048 C.ar      1 RES1    0.0000
     62 H28        6.5167    3.4928    9.2683 H         1 RES1    0.0000
     63 C27        7.8412    2.9898   10.6917 C.ar      1 RES1    0.0000
     64 N2         9.0318    3.4439    9.9463 N.pl3     1 RES1    0.0000
     65 O8         8.8604    4.0064    8.8786 O.2       1 RES1    0.0000
     66 O9        10.1339    3.1823   10.4042 O.2       1 RES1    0.0000
@<TRIPOS>BOND
     1    1    2 1
     2    3    1 1
     3    4    1 1
     4    5    1 1
     5    6    5 1
     6    7    8 1
     7    8    9 1
     8   10    8 2
     9   11   10 1
    10   12   10 1
    11   13   12 1
    12   14   13 1
    13   15   13 1
    14   16   13 1
    15   17   12 1
    16   18   17 1
    17   19   17 1
    18   20   17 1
    19   21   12 1
    20   22    7 ar
    21   23    6 ar
    22   24   23 1
    23   25   24 1
    24   26   24 1
    25   27   26 1
    26   28   26 1
    27   29   28 1
    28   30   28 1
    29   31   30 1
    30   32   31 2
    31   33   31 1
    32   34   33 ar
    33   35   34 1
    34   36   34 ar
    35   37   36 1
    36   38   37 2
    37   39   37 2
    38   40   36 ar
    39   41   40 1
    40   42    6 ar
    41   43   42 1
    42   44   43 1
    43   45   43 2
    44   46   45 1
    45   47   45 1
    46   48   47 1
    47   49   48 1
    48   50   48 1
    49   51   48 1
    50   52   47 1
    51   53   52 1
    52   54   52 1
    53   55   52 1
    54   56   47 1
    55   57    7 ar
    56   58   24 1
    57   59   26 1
    58   60   28 1
    59   61   33 ar
    60   62   61 1
    61   63   40 ar
    62   64   63 1
    63   65   64 2
    64   66   64 2
    65   21   22 1
    66   22   23 ar
    67   42   57 ar
    68   56   57 1
    69   61   63 ar
@<TRIPOS>SUBSTRUCTURE
     1 RES1 1

@<TRIPOS>CRYSIN
  14.5380   10.2250    9.5030  76.6100  82.0400  74.7700   2 1

