# MOL2 file generated by ConQuest
# Please check atom types

@<TRIPOS>MOLECULE
ERSTNB
    64    67     1
SMALL
NO_CHARGES
****
Generated from CSD

@<TRIPOS>ATOM
      1 C1         8.4545    1.6046    5.7347 C.3       1 RES1    0.0000
      2 H1         8.3737    1.3356    4.7825 H         1 RES1    0.0000
      3 H2         8.8363    2.4041    6.0869 H         1 RES1    0.0000
      4 H3         8.9587    0.8968    6.1738 H         1 RES1    0.0000
      5 O1         7.1339    1.6638    6.2782 O.3       1 RES1    0.0000
      6 C2         6.3248    2.6197    5.6456 C.ar      1 RES1    0.0000
      7 C3         6.1799    3.8542    6.2368 C.ar      1 RES1    0.0000
      8 C4         6.8093    4.2567    7.4781 C.2       1 RES1    0.0000
      9 H4         7.2980    3.6824    7.9129 H         1 RES1    0.0000
     10 C5         6.5293    5.4378    8.0151 C.2       1 RES1    0.0000
     11 H5         6.8775    5.7240    8.8694 H         1 RES1    0.0000
     12 C6         5.5353    6.3823    7.4107 C.3       1 RES1    0.0000
     13 C7         4.1978    6.3059    8.1107 C.3       1 RES1    0.0000
     14 H6         4.2670    6.5254    9.0216 H         1 RES1    0.0000
     15 H7         3.4980    6.8688    7.6738 H         1 RES1    0.0000
     16 H8         3.8085    5.3042    7.9781 H         1 RES1    0.0000
     17 C8         6.0797    7.8171    7.3825 C.3       1 RES1    0.0000
     18 H9         5.3558    8.4906    6.9999 H         1 RES1    0.0000
     19 H10        6.1706    7.9564    8.2825 H         1 RES1    0.0000
     20 H11        6.9969    7.7465    6.8694 H         1 RES1    0.0000
     21 O2         5.2967    6.0808    6.0042 O.3       1 RES1    0.0000
     22 C9         5.3939    4.7795    5.5456 C.ar      1 RES1    0.0000
     23 C10        4.7476    4.5296    4.3369 C.ar      1 RES1    0.0000
     24 C11        3.8963    5.5561    3.6217 C.3       1 RES1    0.0000
     25 H12        4.3562    6.2964    3.5217 H         1 RES1    0.0000
     26 C12        2.5726    5.8022    4.3021 C.3       1 RES1    0.0000
     27 H13        2.1154    4.9799    4.5651 H         1 RES1    0.0000
     28 C13        1.5850    6.5616    3.4412 C.3       1 RES1    0.0000
     29 H14        1.4871    6.1056    2.7391 H         1 RES1    0.0000
     30 O3         2.2314    7.8056    3.0347 O.3       1 RES1    0.0000
     31 C14        1.5180    8.5822    2.2195 C.2       1 RES1    0.0000
     32 O4         0.4013    8.3208    1.8717 O.2       1 RES1    0.0000
     33 C15        2.2518    9.7938    1.7739 C.ar      1 RES1    0.0000
     34 C16        3.5158   10.0838    2.2652 C.ar      1 RES1    0.0000
     35 H15        3.9470    9.4446    2.9130 H         1 RES1    0.0000
     36 C17        4.1936   11.2038    1.8021 C.ar      1 RES1    0.0000
     37 H16        5.0409   11.6006    2.1521 H         1 RES1    0.0000
     38 C18        3.5679   12.0051    0.8761 C.ar      1 RES1    0.0000
     39 N1         4.3039   13.1976    0.4000 N.pl3     1 RES1    0.0000
     40 O5         5.4701   13.3503    0.7391 O.2       1 RES1    0.0000
     41 C19        5.7113    2.2724    4.4456 C.ar      1 RES1    0.0000
     42 C20        5.7872    0.9426    3.8195 C.2       1 RES1    0.0000
     43 H17        6.1337    0.2099    4.4564 H         1 RES1    0.0000
     44 C21        5.3560    0.7918    2.5847 C.2       1 RES1    0.0000
     45 H18        5.3833   -0.1336    2.0869 H         1 RES1    0.0000
     46 C22        4.8441    1.9481    1.7695 C.3       1 RES1    0.0000
     47 C23        3.7252    1.5493    0.8543 C.3       1 RES1    0.0000
     48 H19        3.3416    2.2896    0.4348 H         1 RES1    0.0000
     49 H20        4.1277    0.8395    0.1087 H         1 RES1    0.0000
     50 H21        3.0859    1.2211    1.4782 H         1 RES1    0.0000
     51 C24        5.9512    2.6273    1.0000 C.3       1 RES1    0.0000
     52 H22        6.4244    2.0034    0.3913 H         1 RES1    0.0000
     53 H23        5.6176    3.4916    0.6522 H         1 RES1    0.0000
     54 H24        6.7222    2.9002    1.6087 H         1 RES1    0.0000
     55 O6         4.2491    2.9307    2.6739 O.3       1 RES1    0.0000
     56 C25        4.9407    3.2570    3.8282 C.ar      1 RES1    0.0000
     57 H25        3.8521    5.2661    2.6521 H         1 RES1    0.0000
     58 H26        2.7013    6.2773    5.1521 H         1 RES1    0.0000
     59 H27        0.7682    6.8879    3.9565 H         1 RES1    0.0000
     60 C26        1.6671   10.6199    0.8282 C.ar      1 RES1    0.0000
     61 H28        0.8386   10.2841    0.5000 H         1 RES1    0.0000
     62 C27        2.3429   11.7323    0.3804 C.ar      1 RES1    0.0000
     63 H29        1.9371   12.2494   -0.3478 H         1 RES1    0.0000
     64 O7         3.7052   13.9971   -0.2956 O.2       1 RES1    0.0000
@<TRIPOS>BOND
     1    1    2 1
     2    3    1 1
     3    4    1 1
     4    5    1 1
     5    6    5 1
     6    7    6 ar
     7    8    7 1
     8    9    8 1
     9   10    8 2
    10   11   10 1
    11   12   10 1
    12   13   12 1
    13   14   13 1
    14   15   13 1
    15   16   13 1
    16   17   12 1
    17   18   17 1
    18   19   17 1
    19   20   17 1
    20   21   12 1
    21   22    7 ar
    22   23   22 ar
    23   24   23 1
    24   25   24 1
    25   26   24 1
    26   27   26 1
    27   28   26 1
    28   29   28 1
    29   30   28 1
    30   31   30 1
    31   32   31 2
    32   33   31 1
    33   34   33 ar
    34   35   34 1
    35   36   34 ar
    36   37   36 1
    37   38   36 ar
    38   39   38 1
    39   40   39 2
    40   41    6 ar
    41   42   41 1
    42   43   42 1
    43   44   42 2
    44   45   44 1
    45   46   44 1
    46   47   46 1
    47   48   47 1
    48   49   47 1
    49   50   47 1
    50   51   46 1
    51   52   51 1
    52   53   51 1
    53   54   51 1
    54   55   46 1
    55   56   23 ar
    56   57   24 1
    57   58   26 1
    58   59   28 1
    59   60   33 ar
    60   61   60 1
    61   62   38 ar
    62   63   62 1
    63   64   39 2
    64   21   22 1
    65   41   56 ar
    66   55   56 1
    67   60   62 ar
@<TRIPOS>SUBSTRUCTURE
     1 RES1 1

@<TRIPOS>CRYSIN
   6.0520   19.0800   21.7700  90.0000  93.0700  90.0000 231 1

