# MOL2 file generated by ConQuest
# Please check atom types

@<TRIPOS>MOLECULE
ERUMAH
    55    58     1
SMALL
NO_CHARGES
****
Generated from CSD

@<TRIPOS>ATOM
      1 N1        13.2693    9.0565    0.4474 N.ar      1 RES1    0.0000
      2 N2        13.0546    5.9380    0.3452 N.am      1 RES1    0.0000
      3 O1        11.3231    7.9418    0.9637 O.3       1 RES1    0.0000
      4 O2        12.9835    6.4932   -1.8143 O.2       1 RES1    0.0000
      5 O3        14.1759    5.1393    0.1641 O.3       1 RES1    0.0000
      6 C1        12.3038    8.8255    1.2823 C.ar      1 RES1    0.0000
      7 C2        12.1622    9.4317    2.5674 C.ar      1 RES1    0.0000
      8 C3        11.1368    9.1286    3.4716 C.ar      1 RES1    0.0000
      9 H1        10.4878    8.5021    3.2424 H         1 RES1    0.0000
     10 C4        11.0814    9.7446    4.6813 C.ar      1 RES1    0.0000
     11 H2        10.3950    9.5404    5.2770 H         1 RES1    0.0000
     12 C5        12.0531   10.6845    5.0294 C.ar      1 RES1    0.0000
     13 H3        12.0101   11.1063    5.8572 H         1 RES1    0.0000
     14 C6        13.0533   10.9860    4.1814 C.ar      1 RES1    0.0000
     15 H4        13.6922   11.6133    4.4318 H         1 RES1    0.0000
     16 C7        13.1469   10.3634    2.9126 C.ar      1 RES1    0.0000
     17 C8        14.1811   10.6277    1.9853 C.ar      1 RES1    0.0000
     18 H5        14.8321   11.2607    2.1903 H         1 RES1    0.0000
     19 C9        14.2367    9.9648    0.7929 C.ar      1 RES1    0.0000
     20 C10       11.2809    7.3705   -0.3791 C.3       1 RES1    0.0000
     21 C11       12.5382    6.5783   -0.6788 C.2       1 RES1    0.0000
     22 C12       15.3555    5.9368    0.2563 C.3       1 RES1    0.0000
     23 H6        15.4421    6.3015    1.1507 H         1 RES1    0.0000
     24 H7        15.3131    6.6735   -0.3723 H         1 RES1    0.0000
     25 C13       16.5146    5.0650   -0.0580 C.ar      1 RES1    0.0000
     26 C14       16.4757    4.1994   -1.1208 C.ar      1 RES1    0.0000
     27 H8        15.7169    4.1641   -1.6584 H         1 RES1    0.0000
     28 C15       17.5355    3.3921   -1.3964 C.ar      1 RES1    0.0000
     29 H9        17.4937    2.8073   -2.1187 H         1 RES1    0.0000
     30 C16       18.6489    3.4322   -0.6295 C.ar      1 RES1    0.0000
     31 H10       19.3703    2.8814   -0.8326 H         1 RES1    0.0000
     32 C17       18.7199    4.2662    0.4303 C.ar      1 RES1    0.0000
     33 H11       19.4850    4.2906    0.9583 H         1 RES1    0.0000
     34 C18       17.6490    5.0820    0.7214 C.ar      1 RES1    0.0000
     35 H12       17.6932    5.6510    1.4554 H         1 RES1    0.0000
     36 C19       10.0894    6.4170   -0.2998 C.3       1 RES1    0.0000
     37 H13       10.2415    5.7690    0.3916 H         1 RES1    0.0000
     38 H14        9.9832    5.9671   -1.1420 H         1 RES1    0.0000
     39 H15        9.2925    6.9155   -0.1006 H         1 RES1    0.0000
     40 C20       11.0290    8.4486   -1.4263 C.3       1 RES1    0.0000
     41 H16       10.2908    8.9945   -1.1517 H         1 RES1    0.0000
     42 H17       10.8278    8.0352   -2.2686 H         1 RES1    0.0000
     43 H18       11.8132    8.9945   -1.5182 H         1 RES1    0.0000
     44 C21       15.2946   10.1692   -0.2166 C.ar      1 RES1    0.0000
     45 C22       15.2102    9.5562   -1.4670 C.ar      1 RES1    0.0000
     46 H19       14.4865    9.0042   -1.6575 H         1 RES1    0.0000
     47 C23       16.1796    9.7544   -2.4262 C.ar      1 RES1    0.0000
     48 H20       16.1007    9.3361   -3.2530 H         1 RES1    0.0000
     49 C24       17.2548   10.5592   -2.1729 C.ar      1 RES1    0.0000
     50 H21       17.9101   10.6869   -2.8198 H         1 RES1    0.0000
     51 C25       17.3547   11.1768   -0.9564 C.ar      1 RES1    0.0000
     52 H22       18.0811   11.7300   -0.7784 H         1 RES1    0.0000
     53 C26       16.3894   10.9860    0.0077 C.ar      1 RES1    0.0000
     54 H23       16.4736   11.4151    0.8278 H         1 RES1    0.0000
     55 H24       12.7227    5.9453    1.1314 H         1 RES1    0.0000
@<TRIPOS>BOND
     1    1    6 ar
     2    2    5 1
     3    3    6 1
     4    4   21 2
     5    5   22 1
     6    6    7 ar
     7    7    8 ar
     8    8    9 1
     9   10    8 ar
    10   11   10 1
    11   12   10 ar
    12   13   12 1
    13   14   12 ar
    14   15   14 1
    15   16    7 ar
    16   17   16 ar
    17   18   17 1
    18   19    1 ar
    19   20    3 1
    20   21    2 1
    21   22   23 1
    22   24   22 1
    23   25   22 1
    24   26   25 ar
    25   27   26 1
    26   28   26 ar
    27   29   28 1
    28   30   28 ar
    29   31   30 1
    30   32   30 ar
    31   33   32 1
    32   34   25 ar
    33   35   34 1
    34   36   20 1
    35   37   36 1
    36   38   36 1
    37   39   36 1
    38   40   20 1
    39   41   40 1
    40   42   40 1
    41   43   40 1
    42   44   19 1
    43   45   44 ar
    44   46   45 1
    45   47   45 ar
    46   48   47 1
    47   49   47 ar
    48   50   49 1
    49   51   49 ar
    50   52   51 1
    51   53   44 ar
    52   54   53 1
    53   55    2 1
    54   14   16 ar
    55   17   19 ar
    56   20   21 1
    57   32   34 ar
    58   51   53 ar
@<TRIPOS>SUBSTRUCTURE
     1 RES1 1

@<TRIPOS>CRYSIN
  38.3270   12.1580    9.7150  90.0000  95.5100  90.0000  15 1

