# MOL2 file generated by ConQuest
# Please check atom types

@<TRIPOS>MOLECULE
ESANIX
    34    35     1
SMALL
NO_CHARGES
****
Generated from CSD

@<TRIPOS>ATOM
      1 C1         5.4125    8.6986    5.5746 C.ar      1 RES1    0.0000
      2 C2         4.7769    9.7419    4.8273 C.ar      1 RES1    0.0000
      3 C3         5.4031   10.2342    3.6951 C.ar      1 RES1    0.0000
      4 H1         4.9984   10.9155    3.2076 H         1 RES1    0.0000
      5 C4         6.6162    9.7320    3.2772 C.ar      1 RES1    0.0000
      6 H2         7.0268   10.0702    2.5146 H         1 RES1    0.0000
      7 C5         7.2241    8.7068    4.0103 C.ar      1 RES1    0.0000
      8 C6         6.6343    8.1961    5.1354 C.ar      1 RES1    0.0000
      9 H3         7.0504    7.5109    5.6065 H         1 RES1    0.0000
     10 C7         4.7937    8.1843    6.7457 C.2       1 RES1    0.0000
     11 H4         5.2147    7.4967    7.2096 H         1 RES1    0.0000
     12 C8         3.0032    8.1867    8.3583 C.ar      1 RES1    0.0000
     13 C9         3.5052    7.1901    9.1918 C.ar      1 RES1    0.0000
     14 H5         4.3317    6.8139    8.9923 H         1 RES1    0.0000
     15 C10        2.8201    6.7388   10.3074 C.ar      1 RES1    0.0000
     16 C11        1.5683    7.3140   10.6167 C.ar      1 RES1    0.0000
     17 C12        1.0746    8.3210    9.7774 C.ar      1 RES1    0.0000
     18 H6         0.2515    8.7074    9.9733 H         1 RES1    0.0000
     19 C13        1.7692    8.7578    8.6688 C.ar      1 RES1    0.0000
     20 H7         1.4171    9.4298    8.1317 H         1 RES1    0.0000
     21 C14        3.3927    5.6449   11.1869 C.3       1 RES1    0.0000
     22 H8         4.2417    5.3646   10.8375 H         1 RES1    0.0000
     23 H9         2.7900    4.8983   11.2023 H         1 RES1    0.0000
     24 H10        3.5100    5.9807   12.0794 H         1 RES1    0.0000
     25 C15        0.7578    6.8769   11.7985 C.3       1 RES1    0.0000
     26 H11       -0.0415    7.4057   11.8516 H         1 RES1    0.0000
     27 H12        1.2724    6.9936   12.6001 H         1 RES1    0.0000
     28 H13        0.5233    5.9512   11.7005 H         1 RES1    0.0000
     29 N1         3.6695    8.6359    7.1884 N.2       1 RES1    0.0000
     30 N2         8.4849    8.1535    3.5369 N.pl3     1 RES1    0.0000
     31 O1         3.6073   10.2462    5.2027 O.3       1 RES1    0.0000
     32 O2         8.9664    8.5871    2.4957 O.2       1 RES1    0.0000
     33 O3         9.0234    7.2804    4.2087 O.2       1 RES1    0.0000
     34 H14        3.3836    9.8633    5.9972 H         1 RES1    0.0000
@<TRIPOS>BOND
     1    1    2 ar
     2    2    3 ar
     3    3    4 1
     4    5    3 ar
     5    6    5 1
     6    7    5 ar
     7    8    1 ar
     8    9    8 1
     9   10    1 1
    10   11   10 1
    11   12   13 ar
    12   13   14 1
    13   15   13 ar
    14   16   15 ar
    15   17   16 ar
    16   18   17 1
    17   19   12 ar
    18   20   19 1
    19   21   15 1
    20   22   21 1
    21   23   21 1
    22   24   21 1
    23   25   16 1
    24   26   25 1
    25   27   25 1
    26   28   25 1
    27   29   10 2
    28   30    7 1
    29   31    2 1
    30   32   30 2
    31   33   30 2
    32   34   31 1
    33    7    8 ar
    34   12   29 1
    35   17   19 ar
@<TRIPOS>SUBSTRUCTURE
     1 RES1 1

@<TRIPOS>CRYSIN
   6.3403    8.9712   12.5882  70.0800  82.9950  80.4460   2 1

