# MOL2 file generated by ConQuest
# Please check atom types

@<TRIPOS>MOLECULE
ESEMUK
    57    61     1
SMALL
NO_CHARGES
****
Generated from CSD

@<TRIPOS>ATOM
      1 O1         9.7843    1.7390   15.9793 O.3       1 RES1    0.0000
      2 O2         9.8375    3.7358   14.9846 O.2       1 RES1    0.0000
      3 O3         5.4191   -0.2402   17.2690 O.3       1 RES1    0.0000
      4 N1         7.8880    2.5311   15.1641 N.am      1 RES1    0.0000
      5 N2         3.7159    3.5539   16.3939 N.3       1 RES1    0.0000
      6 N3         6.5439    0.3935   17.9391 N.3       1 RES1    0.0000
      7 C1         9.2004    2.7608   15.3313 C.2       1 RES1    0.0000
      8 C2         8.8219    0.6664   16.0862 C.3       1 RES1    0.0000
      9 C3         7.4711    1.3340   15.9007 C.3       1 RES1    0.0000
     10 C4         6.7904    1.6728   17.2419 C.3       1 RES1    0.0000
     11 C5         4.4493    2.3981   16.4172 C.2       1 RES1    0.0000
     12 C6         5.6238    2.6002   17.0873 C.2       1 RES1    0.0000
     13 C7         5.6106    3.9743   17.4984 C.ar      1 RES1    0.0000
     14 C8         6.5248    4.7987   18.1861 C.ar      1 RES1    0.0000
     15 C9         6.1895    6.1101   18.3881 C.ar      1 RES1    0.0000
     16 C10        4.9983    6.6422   17.9259 C.ar      1 RES1    0.0000
     17 C11        4.0867    5.8742   17.2593 C.ar      1 RES1    0.0000
     18 C12        4.4111    4.5365   17.0450 C.ar      1 RES1    0.0000
     19 C13        6.1118    0.6187   19.3181 C.3       1 RES1    0.0000
     20 C14        6.0326   -0.6463   20.1300 C.ar      1 RES1    0.0000
     21 C15        6.7593   -1.7794   19.8311 C.ar      1 RES1    0.0000
     22 C16        6.6755   -2.9026   20.6257 C.ar      1 RES1    0.0000
     23 C17        5.8706   -2.9151   21.7304 C.ar      1 RES1    0.0000
     24 C18        5.1442   -1.7995   22.0449 C.ar      1 RES1    0.0000
     25 C19        5.2192   -0.6726   21.2508 C.ar      1 RES1    0.0000
     26 C20        7.0500    3.4560   14.4183 C.3       1 RES1    0.0000
     27 C21        6.3108    2.8612   13.2578 C.ar      1 RES1    0.0000
     28 C22        6.7367    1.7280   12.6053 C.ar      1 RES1    0.0000
     29 C23        6.0759    1.2750   11.4683 C.ar      1 RES1    0.0000
     30 C24        5.0140    1.9501   10.9710 C.ar      1 RES1    0.0000
     31 C25        4.5570    3.0582   11.6190 C.ar      1 RES1    0.0000
     32 C26        5.1882    3.5162   12.7768 C.ar      1 RES1    0.0000
     33 H1         5.7534   -0.9939   16.9579 H         1 RES1    0.0000
     34 H2         2.8630    3.6568   15.9900 H         1 RES1    0.0000
     35 H3         8.9691    0.0176   15.4101 H         1 RES1    0.0000
     36 H4         8.8761    0.2522   16.9394 H         1 RES1    0.0000
     37 H5         6.9020    0.7944   15.3647 H         1 RES1    0.0000
     38 H6         4.1813    1.5762   16.0251 H         1 RES1    0.0000
     39 H7         7.3506    4.4536   18.5016 H         1 RES1    0.0000
     40 H8         6.7932    6.6723   18.8607 H         1 RES1    0.0000
     41 H9         4.8113    7.5620   18.0744 H         1 RES1    0.0000
     42 H10        3.2640    6.2381   16.9518 H         1 RES1    0.0000
     43 H11        6.7298    1.2085   19.7358 H         1 RES1    0.0000
     44 H12        5.2518    1.0215   19.3024 H         1 RES1    0.0000
     45 H13        7.3253   -1.7845   19.0671 H         1 RES1    0.0000
     46 H14        7.1806   -3.6756   20.4024 H         1 RES1    0.0000
     47 H15        5.8164   -3.6907   22.2763 H         1 RES1    0.0000
     48 H16        4.5858   -1.8008   22.8128 H         1 RES1    0.0000
     49 H17        4.7062    0.0941   21.4755 H         1 RES1    0.0000
     50 H18        6.4093    3.8199   15.0180 H         1 RES1    0.0000
     51 H19        7.6046    4.1537   14.0873 H         1 RES1    0.0000
     52 H20        7.4889    1.2499   12.9336 H         1 RES1    0.0000
     53 H21        6.3740    0.4844   11.0349 H         1 RES1    0.0000
     54 H22        4.5882    1.6527   10.1764 H         1 RES1    0.0000
     55 H23        3.8018    3.5238   11.2785 H         1 RES1    0.0000
     56 H24        4.8483    4.2767   13.2329 H         1 RES1    0.0000
     57 H25        7.4359    2.1383   17.7587 H         1 RES1    0.0000
@<TRIPOS>BOND
     1    1    7 1
     2    2    7 2
     3    3    6 1
     4    4    7 1
     5    5   11 1
     6    6   10 1
     7    8    1 1
     8    9    4 1
     9   10    9 1
    10   11   12 2
    11   12   10 1
    12   13   12 1
    13   14   13 ar
    14   15   14 ar
    15   16   15 ar
    16   17   16 ar
    17   18    5 1
    18   19    6 1
    19   20   19 1
    20   21   20 ar
    21   22   21 ar
    22   23   22 ar
    23   24   23 ar
    24   25   20 ar
    25   26    4 1
    26   27   26 1
    27   28   27 ar
    28   29   28 ar
    29   30   29 ar
    30   31   30 ar
    31   32   27 ar
    32   33    3 1
    33   34    5 1
    34   35    8 1
    35   36    8 1
    36   37    9 1
    37   38   11 1
    38   39   14 1
    39   40   15 1
    40   41   16 1
    41   42   17 1
    42   43   19 1
    43   44   19 1
    44   45   21 1
    45   46   22 1
    46   47   23 1
    47   48   24 1
    48   49   25 1
    49   50   26 1
    50   51   26 1
    51   52   28 1
    52   53   29 1
    53   54   30 1
    54   55   31 1
    55   56   32 1
    56   57   10 1
    57    8    9 1
    58   13   18 ar
    59   17   18 ar
    60   24   25 ar
    61   31   32 ar
@<TRIPOS>SUBSTRUCTURE
     1 RES1 1

@<TRIPOS>CRYSIN
   8.7110   12.5490   20.6530  90.0000  92.2100  90.0000  14 1

