# MOL2 file generated by ConQuest
# Please check atom types

@<TRIPOS>MOLECULE
ESEQOK
    57    62     1
SMALL
NO_CHARGES
****
Generated from CSD

@<TRIPOS>ATOM
      1 C1         2.7037    2.9192    3.3239 C.2       1 RES1    0.0000
      2 C2         2.2850    2.6628    4.7514 C.3       1 RES1    0.0000
      3 H1         2.4951    1.7210    5.0118 H         1 RES1    0.0000
      4 C3         0.7502    2.8573    4.6201 C.3       1 RES1    0.0000
      5 C4         0.6087    3.8906    3.4404 C.3       1 RES1    0.0000
      6 H2         0.7160    4.8091    3.8237 H         1 RES1    0.0000
      7 C5         1.8312    3.5953    2.6040 C.2       1 RES1    0.0000
      8 C6         1.9685    4.0967    1.1989 C.3       1 RES1    0.0000
      9 H3         2.6135    3.5259    0.7105 H         1 RES1    0.0000
     10 H4         2.3293    5.0187    1.2153 H         1 RES1    0.0000
     11 C7         0.6291    4.0927    0.4571 C.3       1 RES1    0.0000
     12 H5         0.7137    4.6158   -0.3788 H         1 RES1    0.0000
     13 H6         0.3884    3.1626    0.2148 H         1 RES1    0.0000
     14 C8        -0.4723    4.6929    1.3239 C.3       1 RES1    0.0000
     15 H7        -1.3187    4.7136    0.8111 H         1 RES1    0.0000
     16 H8        -0.2338    5.6242    1.5597 H         1 RES1    0.0000
     17 C9        -0.6735    3.8801    2.6040 C.3       1 RES1    0.0000
     18 H9        -0.9123    2.9483    2.3718 H         1 RES1    0.0000
     19 H10       -1.4174    4.2665    3.1304 H         1 RES1    0.0000
     20 C10        0.0051    1.5284    4.3486 C.3       1 RES1    0.0000
     21 H11        0.4646    0.7755    4.7988 H         1 RES1    0.0000
     22 H12       -0.0287    1.3438    3.3769 H         1 RES1    0.0000
     23 C11       -1.4249    1.7061    4.9150 C.3       1 RES1    0.0000
     24 H13       -2.0743    1.8375    4.1798 H         1 RES1    0.0000
     25 H14       -1.6931    0.9083    5.4342 H         1 RES1    0.0000
     26 C12       -1.3820    2.9549    5.8278 C.3       1 RES1    0.0000
     27 H15       -1.9394    3.6819    5.4532 H         1 RES1    0.0000
     28 H16       -1.7088    2.7364    6.7365 H         1 RES1    0.0000
     29 C13        0.0698    3.3587    5.8651 C.2       1 RES1    0.0000
     30 C14        0.7227    4.0231    6.8144 C.2       1 RES1    0.0000
     31 H17        0.2493    4.3224    7.5812 H         1 RES1    0.0000
     32 C15        2.1596    4.3030    6.7023 C.ar      1 RES1    0.0000
     33 C16        2.7667    5.2173    7.5695 C.ar      1 RES1    0.0000
     34 H18        2.2410    5.6661    8.2201 H         1 RES1    0.0000
     35 C17        4.1251    5.4749    7.4913 C.ar      1 RES1    0.0000
     36 H19        4.5225    6.1202    8.0642 H         1 RES1    0.0000
     37 C18        4.9036    4.7863    6.5721 C.ar      1 RES1    0.0000
     38 H20        5.8401    4.9372    6.5353 H         1 RES1    0.0000
     39 C19        4.3112    3.8727    5.7038 C.ar      1 RES1    0.0000
     40 H21        4.8530    3.3978    5.0843 H         1 RES1    0.0000
     41 C20        2.9364    3.6444    5.7292 C.ar      1 RES1    0.0000
     42 C21        4.1856    1.2904    2.5118 C.2       1 RES1    0.0000
     43 C22        5.3912    1.1165    1.6487 C.ar      1 RES1    0.0000
     44 C23        5.8786   -0.1786    1.4696 C.ar      1 RES1    0.0000
     45 H22        5.4798   -0.9036    1.9340 H         1 RES1    0.0000
     46 C24        6.9418   -0.4062    0.6164 C.ar      1 RES1    0.0000
     47 H23        7.3040   -1.2785    0.5112 H         1 RES1    0.0000
     48 C25        7.4651    0.6691   -0.0804 C.ar      1 RES1    0.0000
     49 C26        6.9930    1.9618    0.0569 C.ar      1 RES1    0.0000
     50 H24        7.3673    2.6759   -0.4459 H         1 RES1    0.0000
     51 C27        5.9541    2.1845    0.9535 C.ar      1 RES1    0.0000
     52 H25        5.6275    3.0648    1.0921 H         1 RES1    0.0000
     53 N1         8.5695    0.4192   -1.0244 N.pl3     1 RES1    0.0000
     54 O1         3.9769    2.5948    2.8107 O.3       1 RES1    0.0000
     55 O2         3.4640    0.3943    2.8588 O.2       1 RES1    0.0000
     56 O3         8.9775    1.3584   -1.6907 O.2       1 RES1    0.0000
     57 O4         9.0257   -0.7194   -1.0772 O.2       1 RES1    0.0000
@<TRIPOS>BOND
     1    1    2 1
     2    2    3 1
     3    4    2 1
     4    5    4 1
     5    6    5 1
     6    7    1 2
     7    8    7 1
     8    9    8 1
     9   10    8 1
    10   11    8 1
    11   12   11 1
    12   13   11 1
    13   14   11 1
    14   15   14 1
    15   16   14 1
    16   17    5 1
    17   18   17 1
    18   19   17 1
    19   20    4 1
    20   21   20 1
    21   22   20 1
    22   23   20 1
    23   24   23 1
    24   25   23 1
    25   26   23 1
    26   27   26 1
    27   28   26 1
    28   29    4 1
    29   30   29 2
    30   31   30 1
    31   32   30 1
    32   33   32 ar
    33   34   33 1
    34   35   33 ar
    35   36   35 1
    36   37   35 ar
    37   38   37 1
    38   39   37 ar
    39   40   39 1
    40   41    2 1
    41   42   43 1
    42   43   44 ar
    43   44   45 1
    44   46   44 ar
    45   47   46 1
    46   48   46 ar
    47   49   48 ar
    48   50   49 1
    49   51   43 ar
    50   52   51 1
    51   53   48 1
    52   54    1 1
    53   55   42 2
    54   56   53 2
    55   57   53 2
    56    5    7 1
    57   14   17 1
    58   26   29 1
    59   32   41 ar
    60   39   41 ar
    61   42   54 1
    62   49   51 ar
@<TRIPOS>SUBSTRUCTURE
     1 RES1 1

@<TRIPOS>CRYSIN
   9.7939   23.2886    9.5441  90.0000 108.2700  90.0000  14 1

