# MOL2 file generated by ConQuest
# Please check atom types

@<TRIPOS>MOLECULE
ESOMOO
    50    52     1
SMALL
NO_CHARGES
****
Generated from CSD

@<TRIPOS>ATOM
      1 O1         5.3125    7.1728    2.1018 O.3       1 RES1    0.0000
      2 O2         4.6452    7.4607    4.2314 O.2       1 RES1    0.0000
      3 C1         6.2131    6.1473    2.4973 C.ar      1 RES1    0.0000
      4 C2         3.5835    8.7123    2.5045 C.ar      1 RES1    0.0000
      5 C3         6.7734    3.8227    2.4506 C.ar      1 RES1    0.0000
      6 C4         4.5422    7.7264    3.0676 C.2       1 RES1    0.0000
      7 C5         5.8559    4.8406    2.2268 C.ar      1 RES1    0.0000
      8 C6         3.2995    8.7674    1.1460 C.ar      1 RES1    0.0000
      9 H1         3.7314    8.1679    0.5485 H         1 RES1    0.0000
     10 C7         2.0794   10.5501    2.8957 C.ar      1 RES1    0.0000
     11 H2         1.6694   11.1751    3.4808 H         1 RES1    0.0000
     12 C8         1.8138   10.5668    1.5476 C.ar      1 RES1    0.0000
     13 N1         0.8926   11.5963    1.0236 N.pl3     1 RES1    0.0000
     14 C9         7.4469    6.4907    3.0302 C.ar      1 RES1    0.0000
     15 C10        2.3934    9.6892    0.6592 C.ar      1 RES1    0.0000
     16 H3         2.1765    9.7164   -0.2657 H         1 RES1    0.0000
     17 C11        2.9611    9.5976    3.3776 C.ar      1 RES1    0.0000
     18 H4         3.1413    9.5487    4.3083 H         1 RES1    0.0000
     19 C12        4.7265    2.7746    1.8628 C.3       1 RES1    0.0000
     20 H5         4.2505    2.4950    2.6837 H         1 RES1    0.0000
     21 H6         4.3532    2.2724    1.0970 H         1 RES1    0.0000
     22 C13        8.3440    5.4463    3.2512 C.ar      1 RES1    0.0000
     23 H7         9.2016    5.6460    3.6099 H         1 RES1    0.0000
     24 C14        3.3104    4.8372    2.2830 C.2       1 RES1    0.0000
     25 H8         3.3024    4.8343    3.2322 H         1 RES1    0.0000
     26 C15        4.5532    4.3021    1.6375 C.3       1 RES1    0.0000
     27 H9         4.5269    4.4928    0.6567 H         1 RES1    0.0000
     28 O3         0.4424   12.4134    1.8051 O.2       1 RES1    0.0000
     29 O4         0.6320   11.5852   -0.1666 O.2       1 RES1    0.0000
     30 C16        8.0291    4.1274    2.9663 C.ar      1 RES1    0.0000
     31 H10        8.6635    3.4375    3.1221 H         1 RES1    0.0000
     32 C17        6.2278    2.4900    1.9997 C.3       1 RES1    0.0000
     33 H11        6.5929    2.2933    1.0894 H         1 RES1    0.0000
     34 C18        7.8059    7.9133    3.3573 C.3       1 RES1    0.0000
     35 H12        7.2496    8.2278    4.0995 H         1 RES1    0.0000
     36 H13        7.6531    8.4774    2.5717 H         1 RES1    0.0000
     37 H14        8.7512    7.9602    3.6137 H         1 RES1    0.0000
     38 C19        2.2209    5.3145    1.6988 C.2       1 RES1    0.0000
     39 C20        6.5486    1.3249    2.9000 C.3       1 RES1    0.0000
     40 H15        7.5194    1.2081    2.9494 H         1 RES1    0.0000
     41 H16        6.1387    0.5112    2.5394 H         1 RES1    0.0000
     42 H17        6.1944    1.4986    3.7978 H         1 RES1    0.0000
     43 C21        2.0240    5.4513    0.2179 C.3       1 RES1    0.0000
     44 H18        2.8851    5.3394   -0.2372 H         1 RES1    0.0000
     45 H19        1.6605    6.3398    0.0171 H         1 RES1    0.0000
     46 H20        1.3981    4.7654   -0.0930 H         1 RES1    0.0000
     47 C22        1.0349    5.7598    2.5174 C.3       1 RES1    0.0000
     48 H21        1.2255    5.6260    3.4694 H         1 RES1    0.0000
     49 H22        0.2479    5.2346    2.2642 H         1 RES1    0.0000
     50 H23        0.8606    6.7102    2.3496 H         1 RES1    0.0000
@<TRIPOS>BOND
     1    1    3 1
     2    2    6 2
     3    3    7 ar
     4    4    6 1
     5    5    7 ar
     6    6    1 1
     7    7   26 1
     8    8    4 ar
     9    9    8 1
    10   10   11 1
    11   12   10 ar
    12   13   12 1
    13   14    3 ar
    14   15    8 ar
    15   16   15 1
    16   17    4 ar
    17   18   17 1
    18   19   20 1
    19   21   19 1
    20   22   14 ar
    21   23   22 1
    22   24   25 1
    23   26   19 1
    24   27   26 1
    25   28   13 2
    26   29   13 2
    27   30    5 ar
    28   31   30 1
    29   32    5 1
    30   33   32 1
    31   34   14 1
    32   35   34 1
    33   36   34 1
    34   37   34 1
    35   38   24 2
    36   39   32 1
    37   40   39 1
    38   41   39 1
    39   42   39 1
    40   43   38 1
    41   44   43 1
    42   45   43 1
    43   46   43 1
    44   47   38 1
    45   48   47 1
    46   49   47 1
    47   50   47 1
    48   10   17 ar
    49   12   15 ar
    50   19   32 1
    51   22   30 ar
    52   24   26 1
@<TRIPOS>SUBSTRUCTURE
     1 RES1 1

@<TRIPOS>CRYSIN
  20.2580    9.9840   19.2070  90.0000  98.8300  90.0000  15 1

