# MOL2 file generated by ConQuest
# Please check atom types

@<TRIPOS>MOLECULE
ESUHEH
    42    45     1
SMALL
NO_CHARGES
****
Generated from CSD

@<TRIPOS>ATOM
      1 O1         4.6924    3.6724    7.6829 O.3       1 RES1    0.0000
      2 O2         5.1601   -0.4717    9.3330 O.2       1 RES1    0.0000
      3 O3         5.4197   -1.5401    7.4597 O.2       1 RES1    0.0000
      4 N1         2.2660    1.5288   10.2521 N.ar      1 RES1    0.0000
      5 N2         3.6178    1.7032    8.2525 N.ar      1 RES1    0.0000
      6 N3         2.2456    3.5948   11.5498 N.pl3     1 RES1    0.0000
      7 N4         4.7179   -1.0673    8.3603 N.pl3     1 RES1    0.0000
      8 C1         2.6228    2.8133   10.4893 C.ar      1 RES1    0.0000
      9 C2         3.9189    2.9708    8.5141 C.ar      1 RES1    0.0000
     10 C3         3.4271    3.6033    9.6690 C.ar      1 RES1    0.0000
     11 C4         1.4902   -2.7834    7.7489 C.ar      1 RES1    0.0000
     12 H1         1.1881   -3.5952    7.4126 H         1 RES1    0.0000
     13 C5         1.0613    1.9922   12.9670 C.ar      1 RES1    0.0000
     14 H2         1.2642    1.3092   12.3688 H         1 RES1    0.0000
     15 C6         2.3865   -0.3116    8.7293 C.ar      1 RES1    0.0000
     16 C7         1.1424    4.3164   13.5863 C.ar      1 RES1    0.0000
     17 H3         1.4064    5.1907   13.4089 H         1 RES1    0.0000
     18 N5         2.7954    4.8591   11.4309 N.2       1 RES1    0.0000
     19 C8         2.8016    1.0646    9.1310 C.ar      1 RES1    0.0000
     20 C9         0.4228    4.0218   14.7347 C.ar      1 RES1    0.0000
     21 H4         0.2007    4.7058   15.3242 H         1 RES1    0.0000
     22 C10        5.7871    4.0289    5.5911 C.3       1 RES1    0.0000
     23 H5         6.1151    3.6078    4.7933 H         1 RES1    0.0000
     24 H6         6.5164    4.4471    6.0540 H         1 RES1    0.0000
     25 H7         5.1335    4.6919    5.3582 H         1 RES1    0.0000
     26 C11        5.1556    2.9916    6.4822 C.3       1 RES1    0.0000
     27 H8         4.4107    2.5685    6.0282 H         1 RES1    0.0000
     28 H9         5.8042    2.3092    6.7137 H         1 RES1    0.0000
     29 C12        0.0300    2.7243   15.0164 C.ar      1 RES1    0.0000
     30 H10       -0.4441    2.5335   15.7932 H         1 RES1    0.0000
     31 C13        1.4657    3.2932   12.7013 C.ar      1 RES1    0.0000
     32 C14        2.8401   -2.5055    7.7730 C.ar      1 RES1    0.0000
     33 H11        3.4551   -3.1283    7.4600 H         1 RES1    0.0000
     34 C15        3.4875    4.8595   10.3142 C.2       1 RES1    0.0000
     35 H12        3.9574    5.5932    9.9897 H         1 RES1    0.0000
     36 C16        0.3541    1.7143   14.1236 C.ar      1 RES1    0.0000
     37 H13        0.0942    0.8400   14.3037 H         1 RES1    0.0000
     38 C17        3.2673   -1.2881    8.2690 C.ar      1 RES1    0.0000
     39 C18        0.5824   -1.8463    8.2283 C.ar      1 RES1    0.0000
     40 H14       -0.3277   -2.0406    8.2301 H         1 RES1    0.0000
     41 C19        1.0308   -0.6226    8.7052 C.ar      1 RES1    0.0000
     42 H15        0.4136    0.0009    9.0145 H         1 RES1    0.0000
@<TRIPOS>BOND
     1    1    9 1
     2    2    7 2
     3    3    7 2
     4    4    8 ar
     5    5    9 ar
     6    6    8 1
     7    7   38 1
     8    8   10 ar
     9    9   10 ar
    10   10   34 1
    11   11   12 1
    12   13   14 1
    13   15   19 1
    14   16   17 1
    15   18    6 1
    16   19    4 ar
    17   20   16 ar
    18   21   20 1
    19   22   23 1
    20   24   22 1
    21   25   22 1
    22   26    1 1
    23   27   26 1
    24   28   26 1
    25   29   20 ar
    26   30   29 1
    27   31    6 1
    28   32   11 ar
    29   33   32 1
    30   34   18 2
    31   35   34 1
    32   36   13 ar
    33   37   36 1
    34   38   15 ar
    35   39   11 ar
    36   40   39 1
    37   41   15 ar
    38   42   41 1
    39    5   19 ar
    40   13   31 ar
    41   16   31 ar
    42   22   26 1
    43   29   36 ar
    44   32   38 ar
    45   39   41 ar
@<TRIPOS>SUBSTRUCTURE
     1 RES1 1

@<TRIPOS>CRYSIN
   8.2325   10.3901   10.9502  70.3010  85.1730  73.1670   2 1

