# MOL2 file generated by ConQuest
# Please check atom types

@<TRIPOS>MOLECULE
ESUJAF
    48    40     2
SMALL
NO_CHARGES
****
Generated from CSD

@<TRIPOS>ATOM
      1 O1         7.9873    0.9059    5.0635 O.2       1 RES1    0.0000
      2 N1         7.9693    1.7164    4.1624 N.pl3     1 RES1    0.0000
      3 O2         7.7824    2.7386    0.8961 O.2       1 RES1    0.0000
      4 C1         9.1286    0.7033    2.2696 C.3       1 RES1    0.0000
      5 H1         9.3601   -0.0844    2.7853 H         1 RES1    0.0000
      6 H2         9.0515    0.4261    1.3424 H         1 RES1    0.0000
      7 N2         4.6638   -0.9824    3.6438 N.pl3     1 RES1    0.0000
      8 O3         8.1623    2.9015    4.2934 O.2       1 RES1    0.0000
      9 O4         6.0529    2.7991    2.3435 O.3       1 RES1    0.0000
     10 C2         7.1076   -2.3492   -0.1864 C.ar      1 RES1    0.0000
     11 H3         7.5466   -3.1458   -0.3822 H         1 RES1    0.0000
     12 O5         3.5465   -1.0569    3.2681 O.2       1 RES1    0.0000
     13 C3         5.8231    0.0149    0.4044 C.ar      1 RES1    0.0000
     14 H4         5.3815    0.8105    0.5962 H         1 RES1    0.0000
     15 C4         6.3521   -1.7224   -1.1503 C.ar      1 RES1    0.0000
     16 H5         6.2775   -2.0949   -1.9989 H         1 RES1    0.0000
     17 C5         5.7108   -0.5483   -0.8539 C.ar      1 RES1    0.0000
     18 H6         5.1963   -0.1262   -1.5033 H         1 RES1    0.0000
     19 C6         7.2465    2.3601    1.8881 C.2       1 RES1    0.0000
     20 C7         7.2139   -1.7919    1.0783 C.ar      1 RES1    0.0000
     21 H7         7.7129   -2.2290    1.7301 H         1 RES1    0.0000
     22 C8         6.7637   -0.0030    2.7716 C.3       1 RES1    0.0000
     23 H8         7.1865   -0.6963    3.3212 H         1 RES1    0.0000
     24 C9        10.2828    1.6886    2.3720 C.3       1 RES1    0.0000
     25 H9        10.4577    1.8813    3.2956 H         1 RES1    0.0000
     26 H10       10.0521    2.4992    1.9130 H         1 RES1    0.0000
     27 H11       11.0665    1.3052    1.9696 H         1 RES1    0.0000
     28 C10        7.7498    1.1880    2.7365 C.3       1 RES1    0.0000
     29 C11        5.4158    0.3079    3.4300 C.3       1 RES1    0.0000
     30 H12        5.5590    0.7509    4.2813 H         1 RES1    0.0000
     31 H13        4.9004    0.8999    2.8603 H         1 RES1    0.0000
     32 C12        5.3043    3.9067    1.7465 C.3       1 RES1    0.0000
     33 H14        5.4878    3.9583    0.7955 H         1 RES1    0.0000
     34 H15        4.3517    3.7686    1.8672 H         1 RES1    0.0000
     35 C13        6.5914   -0.6000    1.3842 C.ar      1 RES1    0.0000
     36 O6         5.2014   -1.8813    4.1880 O.2       1 RES1    0.0000
     37 C14        5.7176    5.1374    2.4031 C.3       1 RES1    0.0000
     38 H16        5.6945    5.0152    3.3559 H         1 RES1    0.0000
     39 H17        5.1208    5.8476    2.1580 H         1 RES1    0.0000
     40 H18        6.6111    5.3609    2.1306 H         1 RES1    0.0000
     41 C15        4.6981    4.6527    2.0995 Du        2 SUP2    0.0000
     42 H19        4.8619    4.9963    2.9810 Du        2 SUP2    0.0000
     43 H20        4.0661    3.9315    2.1507 Du        2 SUP2    0.0000
     44 H21        4.3422    5.3510    1.5454 Du        2 SUP2    0.0000
     45 O7         6.3633    3.1230    2.5640 Du        2 SUP2    0.0000
     46 C16        5.9714    4.1560    1.5161 Du        2 SUP2    0.0000
     47 H22        6.6334    4.8623    1.4429 Du        2 SUP2    0.0000
     48 H23        5.8342    3.7507    0.6456 Du        2 SUP2    0.0000
@<TRIPOS>BOND
     1    1    2 2
     2    2    8 2
     3    3   19 2
     4    4    5 1
     5    6    4 1
     6    7   12 2
     7    9   19 1
     8   10   11 1
     9   13   14 1
    10   15   10 ar
    11   16   15 1
    12   17   13 ar
    13   18   17 1
    14   19   28 1
    15   20   10 ar
    16   21   20 1
    17   22   23 1
    18   24    4 1
    19   25   24 1
    20   26   24 1
    21   27   24 1
    22   28    2 1
    23   29    7 1
    24   30   29 1
    25   31   29 1
    26   32    9 1
    27   33   32 1
    28   34   32 1
    29   35   13 ar
    30   36    7 2
    31   37   32 1
    32   38   37 1
    33   39   37 1
    34   40   37 1
    35    4   28 1
    36   15   17 ar
    37   20   35 ar
    38   22   28 1
    39   22   29 1
    40   22   35 1
@<TRIPOS>SUBSTRUCTURE
     1 RES1 1
     2 SUP2 41

@<TRIPOS>CRYSIN
   8.5747    9.9331   18.2883  90.0000  90.0000  90.0000  19 1

