# MOL2 file generated by ConQuest
# Please check atom types

@<TRIPOS>MOLECULE
ESUQOZ
    48    50     1
SMALL
NO_CHARGES
****
Generated from CSD

@<TRIPOS>ATOM
      1 O1         3.6706    2.6879    2.4266 O.3       1 RES1    0.0000
      2 N1         3.7042    2.9799    0.9871 N.3       1 RES1    0.0000
      3 C1         4.4453    4.2434    0.8217 C.3       1 RES1    0.0000
      4 H1         5.4028    4.0402    0.6165 H         1 RES1    0.0000
      5 C2         3.9064    5.2294   -0.2101 C.3       1 RES1    0.0000
      6 H2         2.9771    5.4913    0.0083 H         1 RES1    0.0000
      7 H3         3.9198    4.8301   -1.1157 H         1 RES1    0.0000
      8 C3         4.7328   -0.4142   -1.3012 C.ar      1 RES1    0.0000
      9 H4         4.9128   -1.1783   -1.8364 H         1 RES1    0.0000
     10 C4         4.3383   -0.5546    0.0243 C.ar      1 RES1    0.0000
     11 H5         4.2687   -1.4238    0.4000 H         1 RES1    0.0000
     12 C5         4.0434    0.5559    0.8111 C.ar      1 RES1    0.0000
     13 H6         3.7718    0.4391    1.7140 H         1 RES1    0.0000
     14 C6         4.1478    1.8475    0.2698 C.ar      1 RES1    0.0000
     15 C7         4.8452    6.4501   -0.1407 C.3       1 RES1    0.0000
     16 H7         5.7729    6.1006   -0.2694 H         1 RES1    0.0000
     17 C8         4.5836    7.4483   -1.3099 C.3       1 RES1    0.0000
     18 C9         3.1167    7.9570   -1.3636 C.3       1 RES1    0.0000
     19 H8         2.5108    7.1841   -1.4909 H         1 RES1    0.0000
     20 H9         2.8895    8.3806   -0.4975 H         1 RES1    0.0000
     21 C10        2.8929    8.9212   -2.4392 C.1       1 RES1    0.0000
     22 C11        2.7405    9.7167   -3.3180 C.1       1 RES1    0.0000
     23 H10        2.6197   10.3487   -4.0165 H         1 RES1    0.0000
     24 C12        5.5111    8.5978   -1.2030 C.1       1 RES1    0.0000
     25 N2         6.2435    9.4771   -1.1122 N.1       1 RES1    0.0000
     26 C13        4.9142    6.7564   -2.5732 C.1       1 RES1    0.0000
     27 N3         5.1792    6.1649   -3.5243 N.1       1 RES1    0.0000
     28 C14        4.8175    7.1117    1.2461 C.3       1 RES1    0.0000
     29 H11        3.9037    7.4400    1.4397 H         1 RES1    0.0000
     30 H12        5.4335    7.8869    1.2578 H         1 RES1    0.0000
     31 C15        5.2418    6.0974    2.3231 C.3       1 RES1    0.0000
     32 H13        6.1890    5.8408    2.1917 H         1 RES1    0.0000
     33 H14        5.1510    6.5020    3.2231 H         1 RES1    0.0000
     34 C16        4.3497    4.8683    2.2132 C.3       1 RES1    0.0000
     35 H15        3.4059    5.1757    2.3355 H         1 RES1    0.0000
     36 C17        4.5415    3.6388    3.0871 C.3       1 RES1    0.0000
     37 H16        4.1819    3.8298    4.0000 H         1 RES1    0.0000
     38 C18        5.9709    3.1272    3.2129 C.3       1 RES1    0.0000
     39 H17        6.5166    3.8038    3.6859 H         1 RES1    0.0000
     40 H18        6.3532    3.0087    2.3074 H         1 RES1    0.0000
     41 C19        6.0565    1.8026    3.9668 C.3       1 RES1    0.0000
     42 H19        5.5483    1.1185    3.4826 H         1 RES1    0.0000
     43 H20        5.6819    1.9136    4.8661 H         1 RES1    0.0000
     44 H21        6.9939    1.5252    4.0347 H         1 RES1    0.0000
     45 C20        4.5847    1.9917   -1.0550 C.ar      1 RES1    0.0000
     46 H22        4.6932    2.8593   -1.4248 H         1 RES1    0.0000
     47 C21        4.8593    0.8694   -1.8309 C.ar      1 RES1    0.0000
     48 H23        5.1365    0.9795   -2.7322 H         1 RES1    0.0000
@<TRIPOS>BOND
     1    1    2 1
     2    2    3 1
     3    3    4 1
     4    5    3 1
     5    6    5 1
     6    7    5 1
     7    8    9 1
     8   10    8 ar
     9   11   10 1
    10   12   10 ar
    11   13   12 1
    12   14    2 1
    13   15    5 1
    14   16   15 1
    15   17   15 1
    16   18   17 1
    17   19   18 1
    18   20   18 1
    19   21   18 1
    20   22   21 3
    21   23   22 1
    22   24   17 1
    23   25   24 3
    24   26   17 1
    25   27   26 3
    26   28   15 1
    27   29   28 1
    28   30   28 1
    29   31   28 1
    30   32   31 1
    31   33   31 1
    32   34    3 1
    33   35   34 1
    34   36    1 1
    35   37   36 1
    36   38   36 1
    37   39   38 1
    38   40   38 1
    39   41   38 1
    40   42   41 1
    41   43   41 1
    42   44   41 1
    43   45   14 ar
    44   46   45 1
    45   47    8 ar
    46   48   47 1
    47   12   14 ar
    48   31   34 1
    49   34   36 1
    50   45   47 ar
@<TRIPOS>SUBSTRUCTURE
     1 RES1 1

@<TRIPOS>CRYSIN
   8.5084   12.9911   16.5289  90.0000  90.0000  90.0000  19 1

