# MOL2 file generated by ConQuest
# Please check atom types

@<TRIPOS>MOLECULE
ETHBSD
    20    21     1
SMALL
USER_CHARGES
****
Generated from CSD

@<TRIPOS>ATOM
      1 C1         0.4523    1.9389    4.1948 C.2       1 RES1    0.0000
      2 C2         1.5796    2.2585    3.4336 C.2       1 RES1    0.0000
      3 C3         0.0731    0.7467    6.3715 C.3       1 RES1    0.0000
      4 H1         0.5445    0.9485    7.1478 H         1 RES1    0.0000
      5 H2        -0.4802    2.1289    4.1395 H         1 RES1    0.0000
      6 H3        -0.7759    1.1429    6.2998 H         1 RES1    0.0000
      7 N1         2.1746    1.0531    5.2895 N.2       1 RES1    0.0000
      8 N2         0.8820    1.2482    5.2480 N.pl3     1 RES1    1.0000
      9 O1         2.6356    1.6738    4.1521 O.3       1 RES1    0.0000
     10 O2         1.8128    2.8734    2.4132 O.2       1 RES1   -1.0000
     11 C3N       -0.0731   -0.7467    6.3715 C.3       1 RES1    0.0000
     12 H1N       -0.5445   -0.9485    7.1478 H         1 RES1    0.0000
     13 H3N        0.7759   -1.1429    6.2998 H         1 RES1    0.0000
     14 N2N       -0.8820   -1.2482    5.2480 N.pl3     1 RES1    1.0000
     15 C1N       -0.4523   -1.9389    4.1948 C.2       1 RES1    0.0000
     16 N1N       -2.1746   -1.0531    5.2895 N.2       1 RES1    0.0000
     17 C2N       -1.5796   -2.2585    3.4336 C.2       1 RES1    0.0000
     18 H2N        0.4802   -2.1289    4.1395 H         1 RES1    0.0000
     19 O1N       -2.6356   -1.6738    4.1521 O.3       1 RES1    0.0000
     20 O2N       -1.8128   -2.8734    2.4132 O.2       1 RES1   -1.0000
@<TRIPOS>BOND
     1    1    2 2
     2    2    9 1
     3    3    4 1
     4    5    1 1
     5    6    3 1
     6    7    8 2
     7    8    1 1
     8    9    7 1
     9   10    2 1
    10   11    3 1
    11   12   11 1
    12   13   11 1
    13   14   11 1
    14   15   14 2
    15   16   14 1
    16   17   15 1
    17   18   15 1
    18   19   16 1
    19   20   17 2
    20    3    8 1
    21   17   19 1
@<TRIPOS>SUBSTRUCTURE
     1 RES1 1

@<TRIPOS>CRYSIN
  17.3970    7.3640   12.5820  90.0000  90.0000  90.0000  43 1

