# MOL2 file generated by ConQuest
# Please check atom types

@<TRIPOS>MOLECULE
ETIKEX
    25    25     1
SMALL
NO_CHARGES
****
Generated from CSD

@<TRIPOS>ATOM
      1 O1         1.6711    0.0202   -9.8827 O.3       1 RES1    0.0000
      2 H1         1.2163   -0.6422  -10.0452 H         1 RES1    0.0000
      3 N1         5.4890    2.2116  -10.4804 N.2       1 RES1    0.0000
      4 C1         4.9798    1.0645  -10.8137 C.2       1 RES1    0.0000
      5 O2         6.7885    2.3472  -11.0040 O.3       1 RES1    0.0000
      6 H2         7.0962    3.0756  -10.7869 H         1 RES1    0.0000
      7 N2         2.9085   -0.1036  -10.5067 N.2       1 RES1    0.0000
      8 N3         5.6471    0.1500  -11.5308 N.3       1 RES1    0.0000
      9 H3         6.4723    0.3269  -11.6933 H         1 RES1    0.0000
     10 C2         6.2264   -1.7342  -12.9118 C.ar      1 RES1    0.0000
     11 C3         3.6329    0.8986  -10.3043 C.2       1 RES1    0.0000
     12 H4         3.2805    1.5874   -9.7885 H         1 RES1    0.0000
     13 C4         5.1453   -1.1069  -12.0679 C.3       1 RES1    0.0000
     14 H5         4.3557   -0.9452  -12.6073 H         1 RES1    0.0000
     15 H6         4.9026   -1.7035  -11.3426 H         1 RES1    0.0000
     16 C5         6.4940   -1.2721  -14.1831 C.ar      1 RES1    0.0000
     17 H7         5.9790   -0.5847  -14.5390 H         1 RES1    0.0000
     18 C6         6.9966   -2.7585  -12.4249 C.ar      1 RES1    0.0000
     19 H8         6.8315   -3.0907  -11.5725 H         1 RES1    0.0000
     20 C7         8.2653   -2.8152  -14.4320 C.ar      1 RES1    0.0000
     21 H9         8.9574   -3.1713  -14.9414 H         1 RES1    0.0000
     22 C8         7.5114   -1.8142  -14.9309 C.ar      1 RES1    0.0000
     23 H10        7.6805   -1.4891  -15.7846 H         1 RES1    0.0000
     24 C9         8.0164   -3.3042  -13.1861 C.ar      1 RES1    0.0000
     25 H11        8.5294   -4.0022  -12.8469 H         1 RES1    0.0000
@<TRIPOS>BOND
     1    1    2 1
     2    3    4 2
     3    4    8 1
     4    5    3 1
     5    6    5 1
     6    7    1 1
     7    8    9 1
     8   10   13 1
     9   11    4 1
    10   12   11 1
    11   13    8 1
    12   14   13 1
    13   15   13 1
    14   16   10 ar
    15   17   16 1
    16   18   10 ar
    17   19   18 1
    18   20   21 1
    19   22   16 ar
    20   23   22 1
    21   24   18 ar
    22   25   24 1
    23    7   11 2
    24   20   22 ar
    25   20   24 ar
@<TRIPOS>SUBSTRUCTURE
     1 RES1 1

@<TRIPOS>CRYSIN
  11.6618    8.8584   19.1630  90.0000  90.0000  90.0000  61 1

