# MOL2 file generated by ConQuest
# Please check atom types

@<TRIPOS>MOLECULE
ETIXIO
    38    39     1
SMALL
NO_CHARGES
****
Generated from CSD

@<TRIPOS>ATOM
      1 O1        -0.2719    0.7620    2.9808 O.3       1 RES1    0.0000
      2 O2        -2.0220   -2.4240    3.4109 O.3       1 RES1    0.0000
      3 O3        -1.0534   -1.8752    6.0756 O.3       1 RES1    0.0000
      4 O4        -0.9410    0.8911    5.7553 O.3       1 RES1    0.0000
      5 O5         0.2932   -1.3496    2.1463 O.3       1 RES1    0.0000
      6 O6         2.5169    1.7417    6.1618 O.2       1 RES1    0.0000
      7 O7         1.1324    1.7351    7.7918 O.2       1 RES1    0.0000
      8 N1         1.6385    1.2184    6.8228 N.pl3     1 RES1    0.0000
      9 C1        -0.7487   -0.5233    2.5897 C.3       1 RES1    0.0000
     10 C2        -1.4170   -1.1907    3.7661 C.3       1 RES1    0.0000
     11 C3        -0.4358   -1.3347    4.9321 C.3       1 RES1    0.0000
     12 C4         0.1094    0.0537    5.2873 C.3       1 RES1    0.0000
     13 C5         0.6855    0.6806    4.0350 C.3       1 RES1    0.0000
     14 C6         0.8824   -0.9182    0.9238 C.3       1 RES1    0.0000
     15 C7         2.0622   -1.7727    0.5830 C.ar      1 RES1    0.0000
     16 C8         2.3266   -2.9595    1.2615 C.ar      1 RES1    0.0000
     17 C9         3.4006   -3.7476    0.9012 C.ar      1 RES1    0.0000
     18 C10        4.2216   -3.3787   -0.1591 C.ar      1 RES1    0.0000
     19 C11        3.9633   -2.2069   -0.8294 C.ar      1 RES1    0.0000
     20 C12        2.8953   -1.4033   -0.4609 C.ar      1 RES1    0.0000
     21 C13        1.1476   -0.1241    6.3866 C.3       1 RES1    0.0000
     22 H1        -1.3774   -2.9789    3.2939 H         1 RES1    0.0000
     23 H2        -0.9804   -2.7197    5.9545 H         1 RES1    0.0000
     24 H3        -1.4805    0.4093    6.2162 H         1 RES1    0.0000
     25 H4        -1.3834   -0.4198    1.8897 H         1 RES1    0.0000
     26 H5        -2.1122   -0.6119    4.0555 H         1 RES1    0.0000
     27 H6         0.2833   -1.8962    4.6693 H         1 RES1    0.0000
     28 H7         0.9861    1.5578    4.2434 H         1 RES1    0.0000
     29 H8         1.4202    0.1556    3.7404 H         1 RES1    0.0000
     30 H9         1.1659   -0.0161    1.0141 H         1 RES1    0.0000
     31 H10        0.2403   -0.9802    0.2268 H         1 RES1    0.0000
     32 H11        1.7645   -3.2281    1.9790 H         1 RES1    0.0000
     33 H12        3.5797   -4.5484    1.3796 H         1 RES1    0.0000
     34 H13        4.9507   -3.9298   -0.4167 H         1 RES1    0.0000
     35 H14        4.5223   -1.9449   -1.5520 H         1 RES1    0.0000
     36 H15        2.7339   -0.5920   -0.9269 H         1 RES1    0.0000
     37 H16        0.7546   -0.5737    7.1256 H         1 RES1    0.0000
     38 H17        1.8759   -0.6369    6.0561 H         1 RES1    0.0000
@<TRIPOS>BOND
     1    1    9 1
     2    2   10 1
     3    3   11 1
     4    4   12 1
     5    5    9 1
     6    6    8 2
     7    7    8 2
     8    8   21 1
     9    9   10 1
    10   10   11 1
    11   11   12 1
    12   12   13 1
    13   13    1 1
    14   14    5 1
    15   15   14 1
    16   16   15 ar
    17   17   16 ar
    18   18   17 ar
    19   19   18 ar
    20   20   15 ar
    21   21   12 1
    22   22    2 1
    23   23    3 1
    24   24    4 1
    25   25    9 1
    26   26   10 1
    27   27   11 1
    28   28   13 1
    29   29   13 1
    30   30   14 1
    31   31   14 1
    32   32   16 1
    33   33   17 1
    34   34   18 1
    35   35   19 1
    36   36   20 1
    37   37   21 1
    38   38   21 1
    39   19   20 ar
@<TRIPOS>SUBSTRUCTURE
     1 RES1 1

@<TRIPOS>CRYSIN
  11.4970    5.5380   11.6030  90.0000 117.7920  90.0000   4 1

