# MOL2 file generated by ConQuest
# Please check atom types

@<TRIPOS>MOLECULE
ETIYUB
    47    50     1
SMALL
NO_CHARGES
****
Generated from CSD

@<TRIPOS>ATOM
      1 O1         9.3730    6.4459    3.3626 O.3       1 RES1    0.0000
      2 O2         9.9959   10.8286    1.0174 O.3       1 RES1    0.0000
      3 O3         8.7841   17.6914    4.2824 O.3       1 RES1    0.0000
      4 N1         9.4998    5.0900    3.7371 N.2       1 RES1    0.0000
      5 N2        10.1057   12.1928    1.3767 N.2       1 RES1    0.0000
      6 C1         8.7990   -1.3731    3.1699 C.3       1 RES1    0.0000
      7 C2         8.8240    0.1364    3.0513 C.ar      1 RES1    0.0000
      8 C3         9.7563    0.8901    3.7337 C.ar      1 RES1    0.0000
      9 C4         9.7793    2.2677    3.6403 C.ar      1 RES1    0.0000
     10 C5         8.8659    2.9476    2.8611 C.ar      1 RES1    0.0000
     11 C6         7.9266    2.1917    2.1635 C.ar      1 RES1    0.0000
     12 C7         7.9176    0.8118    2.2855 C.ar      1 RES1    0.0000
     13 C8         8.8869    4.4169    2.7887 C.2       1 RES1    0.0000
     14 C9         8.3768    5.2801    1.8075 C.2       1 RES1    0.0000
     15 C10        8.7082    6.5235    2.1946 C.2       1 RES1    0.0000
     16 C11        8.5156    7.8408    1.6199 C.2       1 RES1    0.0000
     17 C12        8.9737    8.9746    2.1197 C.2       1 RES1    0.0000
     18 C13        8.7332   10.2963    1.5012 C.3       1 RES1    0.0000
     19 C14        8.2171   11.3765    2.4530 C.3       1 RES1    0.0000
     20 C15        9.1474   12.5059    2.1576 C.2       1 RES1    0.0000
     21 C16        9.0356   13.8500    2.7239 C.ar      1 RES1    0.0000
     22 C17        9.8861   14.8876    2.3225 C.ar      1 RES1    0.0000
     23 C18        9.7653   16.1445    2.8561 C.ar      1 RES1    0.0000
     24 C19        8.8110   16.4039    3.8246 C.ar      1 RES1    0.0000
     25 C20        7.9725   15.4043    4.2445 C.ar      1 RES1    0.0000
     26 C21        8.0883   14.1407    3.6959 C.ar      1 RES1    0.0000
     27 C22        7.9087   17.9694    5.3822 C.3       1 RES1    0.0000
     28 H1         8.6623   -1.6035    4.1326 H         1 RES1    0.0000
     29 H2         8.0474   -1.7466    2.6272 H         1 RES1    0.0000
     30 H3         9.6645   -1.7600    2.8527 H         1 RES1    0.0000
     31 H4        10.4471    0.4160    4.2807 H         1 RES1    0.0000
     32 H5        10.4640    2.7977    4.1402 H         1 RES1    0.0000
     33 H6         7.2568    2.6747    1.5997 H         1 RES1    0.0000
     34 H7         7.2279    0.2773    1.7958 H         1 RES1    0.0000
     35 H8         7.8558    5.0162    0.9963 H         1 RES1    0.0000
     36 H9         7.9925    7.9012    0.7691 H         1 RES1    0.0000
     37 H10        9.5207    8.9299    2.9553 H         1 RES1    0.0000
     38 H11        8.0923   10.1979    0.7397 H         1 RES1    0.0000
     39 H12        7.2618   11.6292    2.2998 H         1 RES1    0.0000
     40 H13        8.3329   11.0679    3.3971 H         1 RES1    0.0000
     41 H14       10.5808   14.6976    1.6283 H         1 RES1    0.0000
     42 H15       10.3752   16.8758    2.5497 H         1 RES1    0.0000
     43 H16        7.2778   15.5966    4.9379 H         1 RES1    0.0000
     44 H17        7.4685   13.4094    3.9820 H         1 RES1    0.0000
     45 H18        7.9636   18.9378    5.6271 H         1 RES1    0.0000
     46 H19        6.9694   17.7458    5.1205 H         1 RES1    0.0000
     47 H20        8.1792   17.4103    6.1657 H         1 RES1    0.0000
@<TRIPOS>BOND
     1    1    4 1
     2    2    5 1
     3    3   24 1
     4    4   13 2
     5    5   20 2
     6    6    7 1
     7    7    8 ar
     8    8    9 ar
     9    9   10 ar
    10   10   11 ar
    11   11   12 ar
    12   12    7 ar
    13   13   10 1
    14   14   13 1
    15   15    1 1
    16   16   15 1
    17   17   16 2
    18   18    2 1
    19   19   18 1
    20   20   19 1
    21   21   20 1
    22   22   21 ar
    23   23   22 ar
    24   24   23 ar
    25   25   24 ar
    26   26   21 ar
    27   27    3 1
    28   28    6 1
    29   29    6 1
    30   30    6 1
    31   31    8 1
    32   32    9 1
    33   33   11 1
    34   34   12 1
    35   35   14 1
    36   36   16 1
    37   37   17 1
    38   38   18 1
    39   39   19 1
    40   40   19 1
    41   41   22 1
    42   42   23 1
    43   43   25 1
    44   44   26 1
    45   45   27 1
    46   46   27 1
    47   47   27 1
    48   14   15 2
    49   17   18 1
    50   25   26 ar
@<TRIPOS>SUBSTRUCTURE
     1 RES1 1

@<TRIPOS>CRYSIN
   9.9819   22.3639    8.4150  90.0000  90.0000  90.0000  29 1

