# MOL2 file generated by ConQuest
# Please check atom types

@<TRIPOS>MOLECULE
EVAWON
    24    27     1
SMALL
USER_CHARGES
****
Generated from CSD

@<TRIPOS>ATOM
      1 O1         7.7191    7.9829    2.7114 O.3       1 RES1    0.0000
      2 O2         6.8457    6.0757    1.8601 O.2       1 RES1   -1.0000
      3 N1         9.2601    8.4029    1.3061 N.pl3     1 RES1    1.0000
      4 N2         8.7198    8.8767    2.4257 N.2       1 RES1    0.0000
      5 N3         9.9586    5.9927   -2.2216 N.3       1 RES1    0.0000
      6 N4         9.9807    6.8742   -1.1487 N.2       1 RES1    0.0000
      7 C1         7.6604    6.9548    1.7610 C.2       1 RES1    0.0000
      8 C2         8.6955    7.2845    0.8397 C.2       1 RES1    0.0000
      9 C3         9.0364    6.5275   -0.3557 C.2       1 RES1    0.0000
     10 C4         8.2948    5.2820   -0.7464 C.3       1 RES1    0.0000
     11 C5         9.1992    4.7643   -1.8892 C.3       1 RES1    0.0000
     12 C6        10.1113    3.6288   -1.5277 C.ar      1 RES1    0.0000
     13 C7        10.7999    3.5629   -0.3149 C.ar      1 RES1    0.0000
     14 C8        11.6811    2.5470   -0.0525 C.ar      1 RES1    0.0000
     15 C9        11.9246    1.5531   -0.9796 C.ar      1 RES1    0.0000
     16 C10       11.2493    1.6117   -2.1808 C.ar      1 RES1    0.0000
     17 C11       10.3748    2.6154   -2.4490 C.ar      1 RES1    0.0000
     18 C12       10.3372    9.2063    0.7872 C.ar      1 RES1    0.0000
     19 C13       11.4652    9.3480    1.5277 C.ar      1 RES1    0.0000
     20 C14       12.4681   10.1856    1.0554 C.ar      1 RES1    0.0000
     21 C15       12.3419   10.8669   -0.1458 C.ar      1 RES1    0.0000
     22 C16       11.1896   10.6764   -0.8572 C.ar      1 RES1    0.0000
     23 C17       10.1689    9.8608   -0.4315 C.ar      1 RES1    0.0000
     24 C18       13.4534   11.7729   -0.6414 C.3       1 RES1    0.0000
@<TRIPOS>BOND
     1    1    4 1
     2    2    7 1
     3    3    4 2
     4    5    6 1
     5    6    9 2
     6    7    1 1
     7    8    3 1
     8    9    8 1
     9   10    9 1
    10   11    5 1
    11   12   11 1
    12   13   12 ar
    13   14   13 ar
    14   15   14 ar
    15   16   15 ar
    16   17   12 ar
    17   18    3 1
    18   19   18 ar
    19   20   19 ar
    20   21   20 ar
    21   22   21 ar
    22   23   18 ar
    23   24   21 1
    24    7    8 2
    25   10   11 1
    26   16   17 ar
    27   22   23 ar
@<TRIPOS>SUBSTRUCTURE
     1 RES1 1

@<TRIPOS>CRYSIN
  11.0700   24.4200    5.8310  90.0000  90.0000  90.0000  33 1

