# MOL2 file generated by ConQuest
# Please check atom types

@<TRIPOS>MOLECULE
EVAZIK
    34    36     1
SMALL
NO_CHARGES
****
Generated from CSD

@<TRIPOS>ATOM
      1 O1         5.2896    0.7150    7.6315 O.3       1 RES1    0.0000
      2 N1         4.7222    2.0683    7.8584 N.3       1 RES1    0.0000
      3 C1         5.5343    2.9715    6.9971 C.3       1 RES1    0.0000
      4 C2         5.8340    2.0462    5.7805 C.3       1 RES1    0.0000
      5 H1         4.9991    1.8614    5.3022 H         1 RES1    0.0000
      6 C3         6.2696    0.7772    6.5551 C.3       1 RES1    0.0000
      7 H2         6.2271   -0.0209    5.9878 H         1 RES1    0.0000
      8 C4         7.6521    0.9471    7.1721 C.3       1 RES1    0.0000
      9 H3         8.2954    1.1598    6.4779 H         1 RES1    0.0000
     10 H4         7.9264    0.1183    7.5944 H         1 RES1    0.0000
     11 C5         7.6259    2.0711    8.2114 C.3       1 RES1    0.0000
     12 H5         8.5370    2.3285    8.4226 H         1 RES1    0.0000
     13 H6         7.2139    1.7411    9.0254 H         1 RES1    0.0000
     14 C6         6.8555    3.3074    7.7268 C.3       1 RES1    0.0000
     15 H7         7.4240    3.8142    7.1264 H         1 RES1    0.0000
     16 H8         6.6562    3.8709    8.4903 H         1 RES1    0.0000
     17 C7         3.3043    1.9111    7.4644 C.3       1 RES1    0.0000
     18 H9         3.2688    1.4539    6.5984 H         1 RES1    0.0000
     19 C8         2.6340    3.2736    7.3234 C.3       1 RES1    0.0000
     20 H10        2.6610    3.7387    8.1736 H         1 RES1    0.0000
     21 H11        1.7033    3.1533    7.0752 H         1 RES1    0.0000
     22 C9         3.3457    4.1074    6.2588 C.3       1 RES1    0.0000
     23 H12        3.3012    3.6582    5.3999 H         1 RES1    0.0000
     24 H13        2.9166    4.9730    6.1737 H         1 RES1    0.0000
     25 C10        4.7986    4.2863    6.6772 C.3       1 RES1    0.0000
     26 H14        4.8277    4.8567    7.4605 H         1 RES1    0.0000
     27 H15        5.2730    4.7414    5.9641 H         1 RES1    0.0000
     28 C11        6.8308    2.5521    4.8326 C.1       1 RES1    0.0000
     29 N2         7.6031    2.9695    4.0832 N.1       1 RES1    0.0000
     30 C12        2.6183    1.0226    8.5171 C.3       1 RES1    0.0000
     31 H16        1.7006    0.8636    8.2484 H         1 RES1    0.0000
     32 H17        3.0705    0.1650    8.5518 H         1 RES1    0.0000
     33 C13        2.6303    1.6298    9.8606 C.1       1 RES1    0.0000
     34 N3         2.6217    2.0979   10.9094 N.1       1 RES1    0.0000
@<TRIPOS>BOND
     1    1    2 1
     2    2    3 1
     3    3    4 1
     4    4    5 1
     5    6    1 1
     6    7    6 1
     7    8    6 1
     8    9    8 1
     9   10    8 1
    10   11    8 1
    11   12   11 1
    12   13   11 1
    13   14    3 1
    14   15   14 1
    15   16   14 1
    16   17    2 1
    17   18   17 1
    18   19   17 1
    19   20   19 1
    20   21   19 1
    21   22   19 1
    22   23   22 1
    23   24   22 1
    24   25    3 1
    25   26   25 1
    26   27   25 1
    27   28    4 1
    28   29   28 3
    29   30   17 1
    30   31   30 1
    31   32   30 1
    32   33   30 1
    33   34   33 3
    34    4    6 1
    35   11   14 1
    36   22   25 1
@<TRIPOS>SUBSTRUCTURE
     1 RES1 1

@<TRIPOS>CRYSIN
  15.5630    9.9380    7.9430  90.0000  97.2400  90.0000   9 1

