# MOL2 file generated by ConQuest
# Please check atom types

@<TRIPOS>MOLECULE
EVEBOX
    41    44     1
SMALL
NO_CHARGES
****
Generated from CSD

@<TRIPOS>ATOM
      1 C1         1.1663    5.7257    5.4791 C.ar      1 RES1    0.0000
      2 C2         0.8179    6.7604    6.3293 C.ar      1 RES1    0.0000
      3 H1         1.1050    6.7519    7.2143 H         1 RES1    0.0000
      4 C3         0.0535    7.7927    5.8703 C.ar      1 RES1    0.0000
      5 H2        -0.1799    8.4847    6.4449 H         1 RES1    0.0000
      6 C4        -0.3761    7.8189    4.5631 C.ar      1 RES1    0.0000
      7 H3        -0.8972    8.5240    4.2536 H         1 RES1    0.0000
      8 C5        -0.0261    6.7873    3.7184 C.ar      1 RES1    0.0000
      9 H4        -0.3048    6.8135    2.8317 H         1 RES1    0.0000
     10 C6         0.7326    5.7108    4.1584 C.ar      1 RES1    0.0000
     11 C7         1.1572    4.6210    3.2154 C.3       1 RES1    0.0000
     12 H5         1.4554    5.0137    2.3691 H         1 RES1    0.0000
     13 C8         2.2722    3.7473    3.8020 C.3       1 RES1    0.0000
     14 C9         2.0032    3.5411    5.2911 C.3       1 RES1    0.0000
     15 H6         1.1469    3.0992    5.4028 H         1 RES1    0.0000
     16 H7         2.6881    2.9630    5.6634 H         1 RES1    0.0000
     17 C10        2.0664    2.3879    3.0464 C.3       1 RES1    0.0000
     18 H8         1.8126    1.7028    3.6985 H         1 RES1    0.0000
     19 C11       -0.9023    4.0068    2.0243 C.3       1 RES1    0.0000
     20 H9        -0.4986    4.3471    1.2223 H         1 RES1    0.0000
     21 H10       -1.4372    4.6927    2.4299 H         1 RES1    0.0000
     22 H11       -1.4583    3.2539    1.8091 H         1 RES1    0.0000
     23 C12        3.2342    1.8843    2.2532 C.ar      1 RES1    0.0000
     24 C13        3.5424    2.3679    0.9980 C.ar      1 RES1    0.0000
     25 H12        2.9942    3.0045    0.5990 H         1 RES1    0.0000
     26 C14        4.6587    1.9122    0.3316 C.ar      1 RES1    0.0000
     27 H13        4.8463    2.2424   -0.5162 H         1 RES1    0.0000
     28 C15        5.5023    0.9800    0.8921 C.ar      1 RES1    0.0000
     29 C16        5.1707    0.4827    2.1290 C.ar      1 RES1    0.0000
     30 H14        5.7149   -0.1617    2.5225 H         1 RES1    0.0000
     31 C17        4.0501    0.9176    2.7998 C.ar      1 RES1    0.0000
     32 H15        3.8417    0.5558    3.6303 H         1 RES1    0.0000
     33 C18        6.7490    0.5196    0.1770 C.3       1 RES1    0.0000
     34 H16        6.6299    0.6205   -0.7694 H         1 RES1    0.0000
     35 H17        6.9130   -0.4041    0.3823 H         1 RES1    0.0000
     36 H18        7.4959    1.0485    0.4650 H         1 RES1    0.0000
     37 C19        3.5699    4.3886    3.5957 C.1       1 RES1    0.0000
     38 N1         0.1409    3.5893    2.9539 N.3       1 RES1    0.0000
     39 N2         4.5507    4.9397    3.4591 N.1       1 RES1    0.0000
     40 O1         1.9916    4.7658    6.0011 O.3       1 RES1    0.0000
     41 O2         0.9561    2.6346    2.1904 O.3       1 RES1    0.0000
@<TRIPOS>BOND
     1    1    2 ar
     2    2    3 1
     3    4    2 ar
     4    5    4 1
     5    6    4 ar
     6    7    6 1
     7    8    6 ar
     8    9    8 1
     9   10    1 ar
    10   11   10 1
    11   12   11 1
    12   13   11 1
    13   14   13 1
    14   15   14 1
    15   16   14 1
    16   17   13 1
    17   18   17 1
    18   19   20 1
    19   21   19 1
    20   22   19 1
    21   23   17 1
    22   24   23 ar
    23   25   24 1
    24   26   24 ar
    25   27   26 1
    26   28   26 ar
    27   29   28 ar
    28   30   29 1
    29   31   23 ar
    30   32   31 1
    31   33   28 1
    32   34   33 1
    33   35   33 1
    34   36   33 1
    35   37   13 1
    36   38   11 1
    37   39   37 3
    38   40    1 1
    39   41   17 1
    40    8   10 ar
    41   14   40 1
    42   19   38 1
    43   29   31 ar
    44   38   41 1
@<TRIPOS>SUBSTRUCTURE
     1 RES1 1

@<TRIPOS>CRYSIN
   8.5344    7.6980   24.6017  90.0000  98.2340  90.0000  14 1

