# MOL2 file generated by ConQuest
# Please check atom types

@<TRIPOS>MOLECULE
EVIHAT
    70    68     2
SMALL
NO_CHARGES
****
Generated from CSD

@<TRIPOS>ATOM
      1 C1         6.1532   18.5937    9.1233 C.ar      1 RES1    0.0000
      2 C2         5.6431   17.2058    9.0995 C.2       1 RES1    0.0000
      3 C3         4.7102   15.2205   10.4076 C.3       1 RES1    0.0000
      4 C4         5.6701   14.2228    9.7976 C.2       1 RES1    0.0000
      5 C5         5.2749   12.9598    9.1600 C.ar      1 RES1    0.0000
      6 C6         3.9431   12.6336    8.9858 C.ar      1 RES1    0.0000
      7 C7         3.5740   11.5041    8.2751 C.ar      1 RES1    0.0000
      8 C8         4.5124   10.6759    7.7052 C.ar      1 RES1    0.0000
      9 C9         5.8438   10.9790    7.9125 C.ar      1 RES1    0.0000
     10 C10        6.2286   12.0935    8.6253 C.ar      1 RES1    0.0000
     11 C11        4.2169   14.7514   11.7612 C.ar      1 RES1    0.0000
     12 C12        6.8834   19.0861    8.0375 C.ar      1 RES1    0.0000
     13 C13        5.1005   14.2567   12.7093 C.ar      1 RES1    0.0000
     14 C14        4.6674   13.9297   13.9819 C.ar      1 RES1    0.0000
     15 C15        3.3475   14.0704   14.3582 C.ar      1 RES1    0.0000
     16 C16        2.4673   14.5305   13.4032 C.ar      1 RES1    0.0000
     17 C17        2.8863   14.8707   12.1253 C.ar      1 RES1    0.0000
     18 C18        3.5881   19.1245   11.3109 C.3       1 RES1    0.0000
     19 C19        2.9296   18.3938   10.1418 C.3       1 RES1    0.0000
     20 C20        2.9297   18.6884   12.6180 C.3       1 RES1    0.0000
     21 C21        3.3585   20.6269   11.1393 C.3       1 RES1    0.0000
     22 C22        4.1067    9.4972    6.8578 C.3       1 RES1    0.0000
     23 C23        7.3803   20.3661    8.0593 C.ar      1 RES1    0.0000
     24 C24        2.8909   13.7213   15.7581 C.3       1 RES1    0.0000
     25 C25        7.1488   21.1665    9.1549 C.ar      1 RES1    0.0000
     26 C26        6.4284   20.6953   10.2314 C.ar      1 RES1    0.0000
     27 C27        5.9138   19.4003   10.2381 C.ar      1 RES1    0.0000
     28 C28        5.1252   18.8582   11.4002 C.3       1 RES1    0.0000
     29 C29        5.5534   17.4059   11.6580 C.3       1 RES1    0.0000
     30 C30        5.6186   16.4656   10.4497 C.3       1 RES1    0.0000
     31 H1         3.9525   15.3727    9.8059 H         1 RES1    0.0000
     32 H2         3.2853   13.1812    9.3508 H         1 RES1    0.0000
     33 H3         2.6717   11.3007    8.1818 H         1 RES1    0.0000
     34 H4         6.4964   10.4181    7.5620 H         1 RES1    0.0000
     35 H5         7.1326   12.2711    8.7504 H         1 RES1    0.0000
     36 H6         7.0332   18.5445    7.2964 H         1 RES1    0.0000
     37 H7         5.9959   14.1441   12.4857 H         1 RES1    0.0000
     38 H8         5.2822   13.6075   14.5996 H         1 RES1    0.0000
     39 H9         1.5676   14.6155   13.6215 H         1 RES1    0.0000
     40 H10        2.2669   15.1821   11.5062 H         1 RES1    0.0000
     41 H11        1.9946   18.6122   10.1145 H         1 RES1    0.0000
     42 H12        3.0343   17.4463   10.2569 H         1 RES1    0.0000
     43 H13        3.3457   18.6649    9.3203 H         1 RES1    0.0000
     44 H14        3.3467   19.1438   13.3531 H         1 RES1    0.0000
     45 H15        3.0334   17.7396   12.7278 H         1 RES1    0.0000
     46 H16        1.9957   18.9081   12.5950 H         1 RES1    0.0000
     47 H17        3.7000   20.9065   10.2874 H         1 RES1    0.0000
     48 H18        3.8142   21.1020   11.8382 H         1 RES1    0.0000
     49 H19        2.4186   20.8137   11.1852 H         1 RES1    0.0000
     50 H20        4.8916    9.0391    6.5493 H         1 RES1    0.0000
     51 H21        3.5985    9.8038    6.1038 H         1 RES1    0.0000
     52 H22        3.5710    8.8961    7.3807 H         1 RES1    0.0000
     53 H23        7.8703   20.6908    7.3379 H         1 RES1    0.0000
     54 H24        1.9471   13.8808   15.8364 H         1 RES1    0.0000
     55 H25        3.3611   14.2669   16.3940 H         1 RES1    0.0000
     56 H26        3.0740   12.7951   15.9333 H         1 RES1    0.0000
     57 H27        7.4817   22.0348    9.1696 H         1 RES1    0.0000
     58 H28        6.2841   21.2500   10.9639 H         1 RES1    0.0000
     59 H29        5.4326   19.3619   12.1813 H         1 RES1    0.0000
     60 H30        6.4299   17.4212   12.0720 H         1 RES1    0.0000
     61 H31        4.9380   17.0225   12.3017 H         1 RES1    0.0000
     62 N1         6.8988   14.5726    9.8804 N.2       1 RES1    0.0000
     63 O1         6.9673   15.8626   10.4782 O.3       1 RES1    0.0000
     64 O2         5.3364   16.6377    8.0694 O.2       1 RES1    0.0000
     65 H32        3.1486    9.4553    6.8066 Du        2 SUP2    0.0000
     66 H33        4.4425    8.6880    7.2521 Du        2 SUP2    0.0000
     67 H34        4.4700    9.5982    5.9751 Du        2 SUP2    0.0000
     68 H35        3.6408   13.4144   16.2722 Du        2 SUP2    0.0000
     69 H36        2.2268   13.0283   15.7147 Du        2 SUP2    0.0000
     70 H37        2.5140   14.5001   16.1754 Du        2 SUP2    0.0000
@<TRIPOS>BOND
     1    1    2 1
     2    2   30 1
     3    3    4 1
     4    4    5 1
     5    5    6 ar
     6    6    7 ar
     7    7    8 ar
     8    8    9 ar
     9    9   10 ar
    10   10    5 ar
    11   11    3 1
    12   12    1 ar
    13   13   11 ar
    14   14   13 ar
    15   15   14 ar
    16   16   15 ar
    17   17   11 ar
    18   18   19 1
    19   19   41 1
    20   20   18 1
    21   21   18 1
    22   22    8 1
    23   23   12 ar
    24   24   15 1
    25   25   23 ar
    26   26   25 ar
    27   27    1 ar
    28   28   18 1
    29   29   28 1
    30   30    3 1
    31   31    3 1
    32   32    6 1
    33   33    7 1
    34   34    9 1
    35   35   10 1
    36   36   12 1
    37   37   13 1
    38   38   14 1
    39   39   16 1
    40   40   17 1
    41   42   19 1
    42   43   19 1
    43   44   20 1
    44   45   20 1
    45   46   20 1
    46   47   21 1
    47   48   21 1
    48   49   21 1
    49   50   22 1
    50   51   22 1
    51   52   22 1
    52   53   23 1
    53   54   24 1
    54   55   24 1
    55   56   24 1
    56   57   25 1
    57   58   26 1
    58   59   28 1
    59   60   29 1
    60   61   29 1
    61   62    4 2
    62   63   30 1
    63   64    2 2
    64   16   17 ar
    65   26   27 ar
    66   27   28 1
    67   29   30 1
    68   62   63 1
@<TRIPOS>SUBSTRUCTURE
     1 RES1 1
     2 SUP2 65

@<TRIPOS>CRYSIN
   6.9158   25.0737   13.8747  90.0000  94.3590  90.0000  14 1

