# MOL2 file generated by ConQuest
# Please check atom types

@<TRIPOS>MOLECULE
EVINOM02
    34    36     1
SMALL
USER_CHARGES
****
Generated from CSD

@<TRIPOS>ATOM
      1 O1         6.5842   -1.0746    4.1836 O.2       1 RES1   -1.0000
      2 O2         2.2412   -5.1976   10.3643 O.2       1 RES1    0.0000
      3 O3         2.8605   -6.6351    8.8762 O.2       1 RES1    0.0000
      4 N1         5.1875   -1.4502    6.2577 N.pl3     1 RES1    1.0000
      5 N2         2.7972   -5.4838    9.3083 N.pl3     1 RES1    0.0000
      6 C1         5.9349    2.1569    5.8372 C.ar      1 RES1    0.0000
      7 C2         5.9017    0.7230    5.5947 C.ar      1 RES1    0.0000
      8 C3         3.2901   -3.1130    8.9684 C.ar      1 RES1    0.0000
      9 H1         2.8270   -2.9160    9.7504 H         1 RES1    0.0000
     10 C4         3.4082   -4.4203    8.5340 C.ar      1 RES1    0.0000
     11 C5         5.2264   -0.1384    6.4606 C.2       1 RES1    0.0000
     12 C6         4.0808   -4.7497    7.3671 C.ar      1 RES1    0.0000
     13 H2         4.1406   -5.6345    7.0892 H         1 RES1    0.0000
     14 C7         6.6314    2.9872    4.9254 C.ar      1 RES1    0.0000
     15 C8         5.2957    2.7833    6.9188 C.ar      1 RES1    0.0000
     16 H3         4.8419    2.2636    7.5430 H         1 RES1    0.0000
     17 C9         4.6583   -3.7428    6.6276 C.ar      1 RES1    0.0000
     18 H4         5.1135   -3.9465    5.8429 H         1 RES1    0.0000
     19 C10        3.8718   -2.1005    8.2226 C.ar      1 RES1    0.0000
     20 H5         3.8010   -1.2164    8.5015 H         1 RES1    0.0000
     21 C11        6.6648    4.3765    5.1120 C.ar      1 RES1    0.0000
     22 H6         7.1284    4.9091    4.5064 H         1 RES1    0.0000
     23 C12        7.3105    1.0754    3.5930 C.ar      1 RES1    0.0000
     24 H7         7.7826    0.7357    2.8678 H         1 RES1    0.0000
     25 C13        4.5629   -2.4111    7.0535 C.ar      1 RES1    0.0000
     26 C14        6.5922    0.1679    4.4532 C.ar      1 RES1    0.0000
     27 C15        6.0240    4.9606    6.1746 C.ar      1 RES1    0.0000
     28 H8         6.0536    5.8832    6.2928 H         1 RES1    0.0000
     29 C16        5.3275    4.1550    7.0755 C.ar      1 RES1    0.0000
     30 H9         4.8796    4.5463    7.7901 H         1 RES1    0.0000
     31 C17        7.3131    2.3974    3.8148 C.ar      1 RES1    0.0000
     32 H10        7.7739    2.9506    3.2262 H         1 RES1    0.0000
     33 H11        4.7424    0.1282    7.2500 H         1 RES1    0.0000
     34 H12        5.7416   -1.7009    5.3499 H         1 RES1    0.0000
@<TRIPOS>BOND
     1    1   26 1
     2    2    5 2
     3    3    5 2
     4    4   11 2
     5    5   10 1
     6    6    7 ar
     7    7   11 1
     8    8    9 1
     9   10    8 ar
    10   11   33 1
    11   12   10 ar
    12   13   12 1
    13   14    6 ar
    14   15    6 ar
    15   16   15 1
    16   17   12 ar
    17   18   17 1
    18   19    8 ar
    19   20   19 1
    20   21   14 ar
    21   22   21 1
    22   23   24 1
    23   25    4 1
    24   26    7 ar
    25   27   21 ar
    26   28   27 1
    27   29   15 ar
    28   30   29 1
    29   31   14 ar
    30   32   31 1
    31   34    4 1
    32   17   25 ar
    33   19   25 ar
    34   23   26 ar
    35   23   31 ar
    36   27   29 ar
@<TRIPOS>SUBSTRUCTURE
     1 RES1 1

@<TRIPOS>CRYSIN
   8.0503   12.8174   13.1833  90.0000  97.2710  90.0000  14 1

