# MOL2 file generated by ConQuest
# Please check atom types

@<TRIPOS>MOLECULE
EVINOM
    34    36     1
SMALL
NO_CHARGES
****
Generated from CSD

@<TRIPOS>ATOM
      1 C1         3.8465    1.5257   14.7001 C.2       1 RES1    0.0000
      2 C2         3.9647    0.2050   14.1651 C.2       1 RES1    0.0000
      3 C3         4.6518   -0.7824   14.9400 C.2       1 RES1    0.0000
      4 H1         4.7279   -1.6489   14.6099 H         1 RES1    0.0000
      5 C4         5.1873   -0.4852   16.1266 C.2       1 RES1    0.0000
      6 H2         5.6252   -1.1556   16.5993 H         1 RES1    0.0000
      7 C5         5.1137    0.8126   16.6956 C.ar      1 RES1    0.0000
      8 C6         5.7008    1.0936   17.9361 C.ar      1 RES1    0.0000
      9 H3         6.1271    0.4115   18.4028 H         1 RES1    0.0000
     10 C7         5.6610    2.3413   18.4744 C.ar      1 RES1    0.0000
     11 H4         6.0579    2.5102   19.2978 H         1 RES1    0.0000
     12 C8         5.0254    3.3553   17.7852 C.ar      1 RES1    0.0000
     13 H5         5.0021    4.2122   18.1468 H         1 RES1    0.0000
     14 C9         4.4279    3.1134   16.5752 C.ar      1 RES1    0.0000
     15 H6         3.9995    3.8103   16.1325 H         1 RES1    0.0000
     16 C10        4.4485    1.8384   15.9909 C.ar      1 RES1    0.0000
     17 C11        3.1410    2.4829   13.9693 C.2       1 RES1    0.0000
     18 H7         3.0437    3.3317   14.3380 H         1 RES1    0.0000
     19 C12        1.9208    3.1827   12.0081 C.ar      1 RES1    0.0000
     20 C13        1.8357    4.5300   12.3126 C.ar      1 RES1    0.0000
     21 H8         2.2444    4.8611   13.0805 H         1 RES1    0.0000
     22 C14        1.1437    5.3803   11.4783 C.ar      1 RES1    0.0000
     23 H9         1.0775    6.2851   11.6847 H         1 RES1    0.0000
     24 C15        0.5535    4.8869   10.3425 C.ar      1 RES1    0.0000
     25 C16        0.6443    3.5588   10.0067 C.ar      1 RES1    0.0000
     26 H10        0.2499    3.2403    9.2263 H         1 RES1    0.0000
     27 C17        1.3267    2.7086   10.8403 C.ar      1 RES1    0.0000
     28 H11        1.3926    1.8067   10.6243 H         1 RES1    0.0000
     29 N1         2.6095    2.2573   12.7979 N.pl3     1 RES1    0.0000
     30 H12        2.6904    1.4616   12.4823 H         1 RES1    0.0000
     31 N2        -0.1997    5.7888    9.4846 N.pl3     1 RES1    0.0000
     32 O1         3.4793   -0.1217   13.0166 O.2       1 RES1    0.0000
     33 O2        -0.7265    5.3471    8.4813 O.2       1 RES1    0.0000
     34 O3        -0.2762    6.9702    9.8080 O.2       1 RES1    0.0000
@<TRIPOS>BOND
     1    1    2 1
     2    2    3 1
     3    3    4 1
     4    5    3 2
     5    6    5 1
     6    7    5 1
     7    8    7 ar
     8    9    8 1
     9   10    8 ar
    10   11   10 1
    11   12   10 ar
    12   13   12 1
    13   14   12 ar
    14   15   14 1
    15   16    1 1
    16   17    1 2
    17   18   17 1
    18   19   20 ar
    19   20   21 1
    20   22   20 ar
    21   23   22 1
    22   24   22 ar
    23   25   24 ar
    24   26   25 1
    25   27   19 ar
    26   28   27 1
    27   29   17 1
    28   30   29 1
    29   31   24 1
    30   32    2 2
    31   33   31 2
    32   34   31 2
    33    7   16 ar
    34   14   16 ar
    35   19   29 1
    36   25   27 ar
@<TRIPOS>SUBSTRUCTURE
     1 RES1 1

@<TRIPOS>CRYSIN
   8.0124    7.3743   22.6900  90.0000  93.0430  90.0000  14 1

