# MOL2 file generated by ConQuest
# Please check atom types

@<TRIPOS>MOLECULE
EVINOM03
    34    36     1
SMALL
USER_CHARGES
****
Generated from CSD

@<TRIPOS>ATOM
      1 C1         4.6026   12.9549    2.0751 C.ar      1 RES1    0.0000
      2 C2         3.8723   13.8615    2.9287 C.ar      1 RES1    0.0000
      3 H1         3.3799   13.5119    3.6625 H         1 RES1    0.0000
      4 C3         3.8722   15.1896    2.7105 C.ar      1 RES1    0.0000
      5 H2         3.3922   15.7543    3.3049 H         1 RES1    0.0000
      6 C4         4.5743   15.7781    1.6076 C.ar      1 RES1    0.0000
      7 C5         4.5427   17.1723    1.4318 C.ar      1 RES1    0.0000
      8 H3         4.0602   17.7127    2.0469 H         1 RES1    0.0000
      9 C6         5.2009   17.7605    0.3824 C.ar      1 RES1    0.0000
     10 H4         5.1790   18.7040    0.2695 H         1 RES1    0.0000
     11 C7         5.9051   16.9571   -0.5209 C.ar      1 RES1    0.0000
     12 H5         6.3672   17.3609   -1.2463 H         1 RES1    0.0000
     13 C8         5.9363   15.5835   -0.3713 C.ar      1 RES1    0.0000
     14 H6         6.4082   15.0546   -1.0040 H         1 RES1    0.0000
     15 C9         5.2803   14.9549    0.7028 C.ar      1 RES1    0.0000
     16 C10        5.3069   13.5166    0.9363 C.ar      1 RES1    0.0000
     17 C11        5.9896   12.6631    0.0773 C.2       1 RES1    0.0000
     18 H7         6.4465   13.0309   -0.6698 H         1 RES1    0.0000
     19 C12        6.6585   10.3838   -0.5142 C.ar      1 RES1    0.0000
     20 C13        7.3596   10.6972   -1.6779 C.ar      1 RES1    0.0000
     21 H8         7.4329   11.6008   -1.9614 H         1 RES1    0.0000
     22 C14        7.9488    9.6860   -2.4177 C.ar      1 RES1    0.0000
     23 H9         8.4316    9.8867   -3.2103 H         1 RES1    0.0000
     24 C15        7.8237    8.3761   -1.9837 C.ar      1 RES1    0.0000
     25 C16        7.1396    8.0450   -0.8244 C.ar      1 RES1    0.0000
     26 H10        7.0741    7.1403   -0.5428 H         1 RES1    0.0000
     27 C17        6.5566    9.0524   -0.0887 C.ar      1 RES1    0.0000
     28 H11        6.0846    8.8442    0.7087 H         1 RES1    0.0000
     29 N1         6.0224   11.3437    0.2714 N.pl3     1 RES1    1.0000
     30 H12        5.5339   11.1134    1.0170 H         1 RES1    0.0000
     31 N2         8.4414    7.3122   -2.7535 N.pl3     1 RES1    0.0000
     32 O1         4.6083   11.7152    2.3392 O.2       1 RES1   -1.0000
     33 O2         9.0098    7.5997   -3.8051 O.2       1 RES1    0.0000
     34 O3         8.3735    6.1605   -2.3210 O.2       1 RES1    0.0000
@<TRIPOS>BOND
     1    1    2 ar
     2    2    3 1
     3    4    2 ar
     4    5    4 1
     5    6    4 ar
     6    7    6 ar
     7    8    7 1
     8    9    7 ar
     9   10    9 1
    10   11    9 ar
    11   12   11 1
    12   13   11 ar
    13   14   13 1
    14   15    6 ar
    15   16    1 ar
    16   17   16 1
    17   18   17 1
    18   19   20 ar
    19   20   21 1
    20   22   20 ar
    21   23   22 1
    22   24   22 ar
    23   25   24 ar
    24   26   25 1
    25   27   19 ar
    26   28   27 1
    27   29   17 2
    28   30   29 1
    29   31   24 1
    30   32    1 1
    31   33   31 2
    32   34   31 2
    33   13   15 ar
    34   15   16 ar
    35   19   29 1
    36   25   27 ar
@<TRIPOS>SUBSTRUCTURE
     1 RES1 1

@<TRIPOS>CRYSIN
   8.0204   12.7917   13.0855  90.0000  98.0870  90.0000  14 1

