# MOL2 file generated by ConQuest
# Please check atom types

@<TRIPOS>MOLECULE
EVIWEM
    41    44     1
SMALL
NO_CHARGES
****
Generated from CSD

@<TRIPOS>ATOM
      1 C1         5.3619    9.1580    2.5226 C.2       1 RES1    0.0000
      2 C2         5.4621   10.0726    3.6992 C.ar      1 RES1    0.0000
      3 C3         5.2412   11.4259    3.8853 C.ar      1 RES1    0.0000
      4 C4         5.2665   11.9663    5.1669 C.ar      1 RES1    0.0000
      5 H1         5.0596   12.8637    5.2956 H         1 RES1    0.0000
      6 C5         5.5979   11.1740    6.2501 C.ar      1 RES1    0.0000
      7 H2         5.6379   11.5498    7.1004 H         1 RES1    0.0000
      8 C6         5.8700    9.8252    6.0816 C.ar      1 RES1    0.0000
      9 H3         6.1163    9.2933    6.8032 H         1 RES1    0.0000
     10 C7         5.7642    9.2973    4.8153 C.ar      1 RES1    0.0000
     11 C8         5.9197    7.8968    4.3733 C.2       1 RES1    0.0000
     12 C9         5.6686    6.6694    2.2054 C.3       1 RES1    0.0000
     13 H4         6.1423    5.9853    2.7248 H         1 RES1    0.0000
     14 C10        4.2430    6.1453    2.0062 C.3       1 RES1    0.0000
     15 H5         3.7248    6.3317    2.8045 H         1 RES1    0.0000
     16 H6         3.8323    6.6236    1.2686 H         1 RES1    0.0000
     17 C11        4.1887    4.6747    1.7228 C.2       1 RES1    0.0000
     18 C12        3.9363    4.0795    0.5293 C.2       1 RES1    0.0000
     19 H7         3.8049    4.5302   -0.2735 H         1 RES1    0.0000
     20 C13        4.1124    2.3924    1.9917 C.ar      1 RES1    0.0000
     21 C14        4.1198    1.1646    2.6359 C.ar      1 RES1    0.0000
     22 H8         3.9722    0.3743    2.1679 H         1 RES1    0.0000
     23 C15        4.3531    1.1575    3.9933 C.ar      1 RES1    0.0000
     24 H9         4.3620    0.3479    4.4507 H         1 RES1    0.0000
     25 C16        4.5763    2.3393    4.6912 C.ar      1 RES1    0.0000
     26 H10        4.7387    2.3016    5.6059 H         1 RES1    0.0000
     27 C17        4.5632    3.5684    4.0623 C.ar      1 RES1    0.0000
     28 H11        4.7168    4.3500    4.5411 H         1 RES1    0.0000
     29 C18        4.3127    3.6078    2.6850 C.ar      1 RES1    0.0000
     30 C19        6.4936    6.8923    0.9399 C.2       1 RES1    0.0000
     31 N1         5.7051    7.8851    3.0044 N.am      1 RES1    0.0000
     32 N2         3.9031    2.7131    0.6779 N.pl3     1 RES1    0.0000
     33 N3         5.0285   12.3319    2.7570 N.pl3     1 RES1    0.0000
     34 O1         5.0283    9.3590    1.3825 O.2       1 RES1    0.0000
     35 O2         6.1639    6.8931    5.0207 O.2       1 RES1    0.0000
     36 O3         7.5712    7.4096    0.9545 O.2       1 RES1    0.0000
     37 O4         5.9251    6.4326   -0.1425 O.3       1 RES1    0.0000
     38 O5         5.6378   12.1014    1.7266 O.2       1 RES1    0.0000
     39 O6         4.2929   13.2928    2.9163 O.2       1 RES1    0.0000
     40 H12        6.5301    6.6003   -0.9192 H         1 RES1    0.0000
     41 H13        3.6991    2.1432    0.0613 H         1 RES1    0.0000
@<TRIPOS>BOND
     1    1    2 1
     2    2    3 ar
     3    3    4 ar
     4    4    5 1
     5    6    4 ar
     6    7    6 1
     7    8    6 ar
     8    9    8 1
     9   10    2 ar
    10   11   10 1
    11   12   13 1
    12   14   12 1
    13   15   14 1
    14   16   14 1
    15   17   14 1
    16   18   17 2
    17   19   18 1
    18   20   21 ar
    19   21   22 1
    20   23   21 ar
    21   24   23 1
    22   25   23 ar
    23   26   25 1
    24   27   25 ar
    25   28   27 1
    26   29   17 1
    27   30   12 1
    28   31    1 1
    29   32   18 1
    30   33    3 1
    31   34    1 2
    32   35   11 2
    33   36   30 2
    34   37   30 1
    35   38   33 2
    36   39   33 2
    37   40   37 1
    38   41   32 1
    39    8   10 ar
    40   11   31 1
    41   12   31 1
    42   20   29 ar
    43   20   32 1
    44   27   29 ar
@<TRIPOS>SUBSTRUCTURE
     1 RES1 1

@<TRIPOS>CRYSIN
   7.0569   15.5302    7.6947  90.0000  95.4150  90.0000   4 1

