# MOL2 file generated by ConQuest
# Please check atom types

@<TRIPOS>MOLECULE
EVIYAL
    64    59     2
SMALL
NO_CHARGES
****
Generated from CSD

@<TRIPOS>ATOM
      1 C1         8.6203    7.1830    4.7849 C.3       1 RES1    0.0000
      2 H1         9.4747    7.6276    4.6625 H         1 RES1    0.0000
      3 H2         8.6564    6.3058    4.3753 H         1 RES1    0.0000
      4 C2         7.5948    7.9288    4.2718 C.3       1 RES1    0.0000
      5 H3         6.7565    7.5225    4.5024 H         1 RES1    0.0000
      6 H4         7.6775    7.9732    3.3162 H         1 RES1    0.0000
      7 H5         7.6319    8.8181    4.6366 H         1 RES1    0.0000
      8 C3         7.1386    4.9295    8.8674 C.2       1 RES1    0.0000
      9 C4         7.6718    5.9497    8.1769 C.2       1 RES1    0.0000
     10 C5         8.2858    7.1187    8.9361 C.3       1 RES1    0.0000
     11 H6         9.0271    7.4720    8.4024 H         1 RES1    0.0000
     12 C6         8.8465    6.6537   10.2706 C.2       1 RES1    0.0000
     13 C7         8.2553    5.6136   10.9042 C.2       1 RES1    0.0000
     14 C8         6.3412    3.7801    8.3284 C.3       1 RES1    0.0000
     15 H7         5.4906    4.0988    8.0164 H         1 RES1    0.0000
     16 H8         6.2062    3.1307    9.0237 H         1 RES1    0.0000
     17 H9         6.8174    3.3752    7.5998 H         1 RES1    0.0000
     18 C9         8.5053    5.1419   12.3020 C.3       1 RES1    0.0000
     19 H10        9.3084    4.6182   12.3234 H         1 RES1    0.0000
     20 H11        7.7649    4.6061   12.5965 H         1 RES1    0.0000
     21 H12        8.6013    5.8996   12.8836 H         1 RES1    0.0000
     22 C10        7.6499    5.9859    6.7167 C.2       1 RES1    0.0000
     23 C11        9.9129    7.4233   10.8828 C.2       1 RES1    0.0000
     24 C12       11.1389    9.4779   10.8242 C.3       1 RES1    0.0000
     25 H13       11.0040    9.5295   11.7821 H         1 RES1    0.0000
     26 H14       12.0437    9.1677   10.6571 H         1 RES1    0.0000
     27 C13       10.9441   10.7644   10.2311 C.3       1 RES1    0.0000
     28 H15       11.2102   10.7361    9.3085 H         1 RES1    0.0000
     29 H16       11.4754   11.4152   10.6948 H         1 RES1    0.0000
     30 H17       10.0174   11.0069   10.2876 H         1 RES1    0.0000
     31 C14        7.2812    8.2123    9.1141 C.2       1 RES1    0.0000
     32 C15        7.0407    9.3821    8.4963 C.2       1 RES1    0.0000
     33 H18        7.5188    9.7538    7.7904 H         1 RES1    0.0000
     34 C16        5.9107    9.9278    9.1430 C.2       1 RES1    0.0000
     35 C17        5.2102   11.2256    8.9416 C.ar      1 RES1    0.0000
     36 C18        5.0230   11.7567    7.6810 C.ar      1 RES1    0.0000
     37 C19        4.3206   12.9597    7.5110 C.ar      1 RES1    0.0000
     38 H19        4.1952   13.3150    6.6607 H         1 RES1    0.0000
     39 C20        3.8254   13.6030    8.6071 C.ar      1 RES1    0.0000
     40 H20        3.3493   14.3943    8.4965 H         1 RES1    0.0000
     41 C21        4.0127   13.1115    9.8585 C.ar      1 RES1    0.0000
     42 H21        3.6810   13.5697   10.5983 H         1 RES1    0.0000
     43 C22        4.7093   11.9089   10.0270 C.ar      1 RES1    0.0000
     44 H22        4.8357   11.5668   10.8830 H         1 RES1    0.0000
     45 C23        5.4240   11.5364    5.3173 C.3       1 RES1    0.0000
     46 H23        4.4964   11.5647    5.0720 H         1 RES1    0.0000
     47 H24        5.8955   10.9564    4.7143 H         1 RES1    0.0000
     48 H25        5.7947   12.4217    5.2674 H         1 RES1    0.0000
     49 N1         7.3163    4.8816   10.2339 N.pl3     1 RES1    0.0000
     50 O1         6.3574    8.0288   10.0692 O.3       1 RES1    0.0000
     51 N2         5.4754    9.1323   10.0732 N.2       1 RES1    0.0000
     52 O2         7.1747    5.1534    5.9871 O.2       1 RES1    0.0000
     53 O3         8.2572    7.0888    6.2455 O.3       1 RES1    0.0000
     54 O4        10.5135    7.1606   11.9104 O.2       1 RES1    0.0000
     55 O5        10.1647    8.5452   10.2214 O.3       1 RES1    0.0000
     56 O6         5.5505   11.0451    6.6463 O.3       1 RES1    0.0000
     57 H26        6.9666    4.2382   10.6053 H         1 RES1    0.0000
     58 C24        7.7013    7.3912    4.8555 Du        2 SUP2    0.0000
     59 H27        6.8487    6.9546    4.7048 Du        2 SUP2    0.0000
     60 H28        7.6062    8.3451    4.7048 Du        2 SUP2    0.0000
     61 C25        8.7629    6.8151    4.0317 Du        2 SUP2    0.0000
     62 H29        9.6097    6.9768    4.4460 Du        2 SUP2    0.0000
     63 H30        8.7439    7.2214    3.1632 Du        2 SUP2    0.0000
     64 H31        8.6184    5.8693    3.9470 Du        2 SUP2    0.0000
@<TRIPOS>BOND
     1    1    2 1
     2    3    1 1
     3    4    1 1
     4    5    4 1
     5    6    4 1
     6    7    4 1
     7    8    9 2
     8    9   10 1
     9   10   11 1
    10   12   10 1
    11   13   12 2
    12   14    8 1
    13   15   14 1
    14   16   14 1
    15   17   14 1
    16   18   13 1
    17   19   18 1
    18   20   18 1
    19   21   18 1
    20   22    9 1
    21   23   12 1
    22   24   25 1
    23   26   24 1
    24   27   24 1
    25   28   27 1
    26   29   27 1
    27   30   27 1
    28   31   10 1
    29   32   31 2
    30   33   32 1
    31   34   32 1
    32   35   34 1
    33   36   35 ar
    34   37   36 ar
    35   38   37 1
    36   39   37 ar
    37   40   39 1
    38   41   39 ar
    39   42   41 1
    40   43   35 ar
    41   44   43 1
    42   45   46 1
    43   47   45 1
    44   48   45 1
    45   49    8 1
    46   50   31 1
    47   51   34 2
    48   52   22 2
    49   53    1 1
    50   54   23 2
    51   55   23 1
    52   56   36 1
    53   57   49 1
    54   13   49 1
    55   22   53 1
    56   24   55 1
    57   41   43 ar
    58   45   56 1
    59   50   51 1
@<TRIPOS>SUBSTRUCTURE
     1 RES1 1
     2 SUP2 58

@<TRIPOS>CRYSIN
   9.5042   20.2110   23.5360  90.0000  90.0000  90.0000  61 1

