# MOL2 file generated by ConQuest
# Please check atom types

@<TRIPOS>MOLECULE
EVOBOG
    79    82     1
SMALL
NO_CHARGES
****
Generated from CSD

@<TRIPOS>ATOM
      1 O1        -0.5253    3.7650    0.5131 O.2       1 RES1    0.0000
      2 O2        -0.4434    3.9729    2.7085 O.3       1 RES1    0.0000
      3 O3         2.6550    1.9657    3.5278 O.2       1 RES1    0.0000
      4 O4         5.7269    2.7107    1.7101 O.2       1 RES1    0.0000
      5 O5         5.0920    2.8650   -0.3908 O.3       1 RES1    0.0000
      6 N1         3.1237    6.1767    1.9522 N.ar      1 RES1    0.0000
      7 N2         1.6881    1.4061    2.9713 N.pl3     1 RES1    0.0000
      8 C1         1.8578    5.7390    1.9443 C.ar      1 RES1    0.0000
      9 C2         1.5120    4.4471    1.5557 C.ar      1 RES1    0.0000
     10 C3         2.5115    3.5686    1.1641 C.ar      1 RES1    0.0000
     11 C4         3.8334    4.0328    1.2033 C.ar      1 RES1    0.0000
     12 C5         4.0919    5.3434    1.5937 C.ar      1 RES1    0.0000
     13 C6         0.8224    6.7568    2.3480 C.3       1 RES1    0.0000
     14 H1         1.2580    7.5791    2.5835 H         1 RES1    0.0000
     15 H2         0.3290    6.4291    3.1031 H         1 RES1    0.0000
     16 H3         0.2223    6.9106    1.6146 H         1 RES1    0.0000
     17 C7         0.0723    4.0326    1.4987 C.2       1 RES1    0.0000
     18 C8        -1.8484    3.6240    2.8166 C.3       1 RES1    0.0000
     19 H4        -2.1056    3.6150    3.7410 H         1 RES1    0.0000
     20 H5        -1.9927    2.7558    2.4346 H         1 RES1    0.0000
     21 H6        -2.3757    4.2736    2.3442 H         1 RES1    0.0000
     22 C9         2.1912    2.1802    0.6900 C.ar      1 RES1    0.0000
     23 C10        1.7982    1.1506    1.5361 C.ar      1 RES1    0.0000
     24 C11        1.5155   -0.1153    1.0684 C.ar      1 RES1    0.0000
     25 H7         1.2582   -0.7874    1.6566 H         1 RES1    0.0000
     26 C12        1.6186   -0.3715   -0.2814 C.ar      1 RES1    0.0000
     27 H8         1.4479   -1.2256   -0.6074 H         1 RES1    0.0000
     28 C13        1.9728    0.6349   -1.1473 C.ar      1 RES1    0.0000
     29 H9         2.0237    0.4658   -2.0602 H         1 RES1    0.0000
     30 C14        2.2521    1.8898   -0.6656 C.ar      1 RES1    0.0000
     31 H10        2.4872    2.5625   -1.2631 H         1 RES1    0.0000
     32 C15        4.9728    3.1179    0.8926 C.2       1 RES1    0.0000
     33 C16        6.1624    1.9684   -0.7805 C.3       1 RES1    0.0000
     34 H11        6.1569    1.8581   -1.7342 H         1 RES1    0.0000
     35 H12        6.0336    1.1149   -0.3591 H         1 RES1    0.0000
     36 H13        7.0048    2.3366   -0.5055 H         1 RES1    0.0000
     37 C17        5.4822    5.9173    1.6451 C.3       1 RES1    0.0000
     38 H14        5.4406    6.8304    1.9380 H         1 RES1    0.0000
     39 H15        5.8765    5.8795    0.7704 H         1 RES1    0.0000
     40 H16        6.0152    5.4085    2.2601 H         1 RES1    0.0000
     41 O6         2.5611   -1.7055    3.7712 O.2       1 RES1    0.0000
     42 O7         2.1016   -1.2828    5.9043 O.3       1 RES1    0.0000
     43 O8        -3.8539   -0.6613    6.2010 O.2       1 RES1    0.0000
     44 O9        -3.1472    0.6307    4.5388 O.3       1 RES1    0.0000
     45 N3        -1.4095   -3.4236    3.8399 N.ar      1 RES1    0.0000
     46 N4         0.5961    1.0082    3.5007 N.2       1 RES1    0.0000
     47 C18       -0.1110   -3.1022    3.9552 C.ar      1 RES1    0.0000
     48 C19        0.3102   -1.9122    4.5435 C.ar      1 RES1    0.0000
     49 C20       -0.6472   -1.0037    5.0158 C.ar      1 RES1    0.0000
     50 C21       -1.9935   -1.3620    4.8774 C.ar      1 RES1    0.0000
     51 C22       -2.3364   -2.5807    4.2983 C.ar      1 RES1    0.0000
     52 C23        0.8381   -4.1257    3.3921 C.3       1 RES1    0.0000
     53 H17        0.3388   -4.8643    3.0381 H         1 RES1    0.0000
     54 H18        1.4228   -4.4359    4.0860 H         1 RES1    0.0000
     55 H19        1.3593   -3.7264    2.6905 H         1 RES1    0.0000
     56 C24        1.7679   -1.6269    4.6699 C.2       1 RES1    0.0000
     57 C25        3.4806   -0.8602    6.1170 C.3       1 RES1    0.0000
     58 H20        3.6084   -0.6375    7.0414 H         1 RES1    0.0000
     59 H21        3.6666   -0.0904    5.5733 H         1 RES1    0.0000
     60 H22        4.0746   -1.5737    5.8738 H         1 RES1    0.0000
     61 C26       -0.2879    0.3093    5.6232 C.ar      1 RES1    0.0000
     62 C27        0.3944    1.2899    4.8824 C.ar      1 RES1    0.0000
     63 C28        0.6845    2.5210    5.4663 C.ar      1 RES1    0.0000
     64 H23        1.1230    3.1754    4.9723 H         1 RES1    0.0000
     65 C29        0.3248    2.7763    6.7717 C.ar      1 RES1    0.0000
     66 H24        0.5167    3.6023    7.1547 H         1 RES1    0.0000
     67 C30       -0.3229    1.8030    7.5147 C.ar      1 RES1    0.0000
     68 H25       -0.5522    1.9697    8.4000 H         1 RES1    0.0000
     69 C31       -0.6284    0.5812    6.9400 C.ar      1 RES1    0.0000
     70 H26       -1.0668   -0.0666    7.4438 H         1 RES1    0.0000
     71 C32       -3.0828   -0.4388    5.3143 C.2       1 RES1    0.0000
     72 C33       -4.1851    1.5986    4.8717 C.3       1 RES1    0.0000
     73 H27       -4.1470    2.3323    4.2529 H         1 RES1    0.0000
     74 H28       -4.0448    1.9245    5.7630 H         1 RES1    0.0000
     75 H29       -5.0451    1.1775    4.8157 H         1 RES1    0.0000
     76 C34       -3.7634   -3.0082    4.0899 C.3       1 RES1    0.0000
     77 H30       -3.7815   -3.8760    3.6799 H         1 RES1    0.0000
     78 H31       -4.2068   -2.3765    3.5182 H         1 RES1    0.0000
     79 H32       -4.2147   -3.0436    4.9366 H         1 RES1    0.0000
@<TRIPOS>BOND
     1    1   17 2
     2    2   17 1
     3    3    7 1
     4    4   32 2
     5    5   32 1
     6    6    8 ar
     7    7   23 1
     8    8    9 ar
     9    9   10 ar
    10   10   11 ar
    11   11   12 ar
    12   12    6 ar
    13   13    8 1
    14   14   13 1
    15   15   13 1
    16   16   13 1
    17   17    9 1
    18   18    2 1
    19   19   18 1
    20   20   18 1
    21   21   18 1
    22   22   10 1
    23   23   22 ar
    24   24   23 ar
    25   25   24 1
    26   26   24 ar
    27   27   26 1
    28   28   26 ar
    29   29   28 1
    30   30   22 ar
    31   31   30 1
    32   32   11 1
    33   33    5 1
    34   34   33 1
    35   35   33 1
    36   36   33 1
    37   37   12 1
    38   38   37 1
    39   39   37 1
    40   40   37 1
    41   41   56 2
    42   42   56 1
    43   43   71 2
    44   44   71 1
    45   45   47 ar
    46   46    7 2
    47   47   48 ar
    48   48   49 ar
    49   49   50 ar
    50   50   51 ar
    51   51   45 ar
    52   52   47 1
    53   53   52 1
    54   54   52 1
    55   55   52 1
    56   56   48 1
    57   57   42 1
    58   58   57 1
    59   59   57 1
    60   60   57 1
    61   61   49 1
    62   62   46 1
    63   63   62 ar
    64   64   63 1
    65   65   63 ar
    66   66   65 1
    67   67   65 ar
    68   68   67 1
    69   69   61 ar
    70   70   69 1
    71   71   50 1
    72   72   44 1
    73   73   72 1
    74   74   72 1
    75   75   72 1
    76   76   51 1
    77   77   76 1
    78   78   76 1
    79   79   76 1
    80   28   30 ar
    81   61   62 ar
    82   67   69 ar
@<TRIPOS>SUBSTRUCTURE
     1 RES1 1

@<TRIPOS>CRYSIN
  10.6310   12.6550   14.3300 109.2600 103.1200 104.3700   2 1

