# MOL2 file generated by ConQuest
# Please check atom types

@<TRIPOS>MOLECULE
EVODUO
    55    58     1
SMALL
NO_CHARGES
****
Generated from CSD

@<TRIPOS>ATOM
      1 O1        -1.3508    0.0237    8.1756 O.3       1 RES1    0.0000
      2 O2        -1.7016    1.8421    6.9334 O.2       1 RES1    0.0000
      3 O3         4.2147   -0.6671   12.6502 O.3       1 RES1    0.0000
      4 N1         3.9492    0.3876   13.5562 N.2       1 RES1    0.0000
      5 C1        -0.5571    4.1231   10.1565 C.3       1 RES1    0.0000
      6 C2        -1.4260    4.2475    8.9062 C.3       1 RES1    0.0000
      7 C3        -2.6728    3.3826    9.0011 C.3       1 RES1    0.0000
      8 C4        -2.3711    1.9006    9.2607 C.3       1 RES1    0.0000
      9 C5        -1.4784    1.8037   10.5453 C.3       1 RES1    0.0000
     10 C6        -1.2054    0.3893   11.0833 C.3       1 RES1    0.0000
     11 C7        -0.7608    0.5036   12.5316 C.3       1 RES1    0.0000
     12 C8         0.5224    1.3139   12.6997 C.3       1 RES1    0.0000
     13 C9         0.4252    2.6828   11.9617 C.3       1 RES1    0.0000
     14 C10       -0.1767    2.6630   10.5157 C.3       1 RES1    0.0000
     15 C11        1.7827    3.4122   12.0735 C.3       1 RES1    0.0000
     16 C12        2.3550    3.4049   13.4976 C.3       1 RES1    0.0000
     17 C13        2.2595    2.0371   14.2152 C.3       1 RES1    0.0000
     18 C14        0.7937    1.6048   14.1850 C.3       1 RES1    0.0000
     19 C15        1.7980    0.5230   12.3087 C.3       1 RES1    0.0000
     20 C16        2.8284    0.9461   13.3270 C.2       1 RES1    0.0000
     21 C17        2.8613    2.0965   15.6115 C.3       1 RES1    0.0000
     22 C18       -1.7625    1.2764    8.0120 C.2       1 RES1    0.0000
     23 C19       -3.7117    1.1584    9.4918 C.3       1 RES1    0.0000
     24 C20        0.8216    2.1507    9.4623 C.3       1 RES1    0.0000
     25 H1        -0.8876   -0.2515    7.2617 H         1 RES1    0.0000
     26 H2        -2.0541    2.2814   11.2609 H         1 RES1    0.0000
     27 H3        -0.1944    3.1203   12.4490 H         1 RES1    0.0000
     28 H4         0.2620    4.6856    9.9927 H         1 RES1    0.0000
     29 H5        -1.0651    4.4918   10.9257 H         1 RES1    0.0000
     30 H6         4.8182   -1.0874   13.1133 H         1 RES1    0.0000
     31 H7        -1.0313    3.9947    8.0512 H         1 RES1    0.0000
     32 H8        -1.8005    5.1191    8.8151 H         1 RES1    0.0000
     33 H9        -3.2460    3.4073    8.1901 H         1 RES1    0.0000
     34 H10       -3.2629    3.6529    9.7723 H         1 RES1    0.0000
     35 H11       -0.5410   -0.0710   10.4758 H         1 RES1    0.0000
     36 H12       -2.0118   -0.1524   11.0601 H         1 RES1    0.0000
     37 H13       -1.4877    0.9321   13.0800 H         1 RES1    0.0000
     38 H14       -0.6086   -0.3891   12.9517 H         1 RES1    0.0000
     39 H15        1.6821    4.3808   11.7379 H         1 RES1    0.0000
     40 H16        2.4514    2.8821   11.4118 H         1 RES1    0.0000
     41 H17        1.8258    4.0671   14.0613 H         1 RES1    0.0000
     42 H18        3.3305    3.6396   13.4544 H         1 RES1    0.0000
     43 H19        0.2282    2.3065   14.5837 H         1 RES1    0.0000
     44 H20        0.6678    0.7146   14.8086 H         1 RES1    0.0000
     45 H21        2.1386    0.6317   11.3514 H         1 RES1    0.0000
     46 H22        1.6145   -0.4409   12.3886 H         1 RES1    0.0000
     47 H23        3.8461    2.3672   15.6254 H         1 RES1    0.0000
     48 H24        2.7895    1.1244   16.0828 H         1 RES1    0.0000
     49 H25        2.3584    2.7075   16.1810 H         1 RES1    0.0000
     50 H26       -4.3448    1.3759    8.7472 H         1 RES1    0.0000
     51 H27       -4.0659    1.4943   10.3067 H         1 RES1    0.0000
     52 H28       -3.5756    0.1213    9.5851 H         1 RES1    0.0000
     53 H29        1.6399    2.5891    9.4658 H         1 RES1    0.0000
     54 H30        1.0566    1.1895    9.6047 H         1 RES1    0.0000
     55 H31        0.5241    2.2562    8.4438 H         1 RES1    0.0000
@<TRIPOS>BOND
     1    1   22 1
     2    2   22 2
     3    3    4 1
     4    4   20 2
     5    5    6 1
     6    6    7 1
     7    7    8 1
     8    8    9 1
     9    9   10 1
    10   10   11 1
    11   11   12 1
    12   12   13 1
    13   13   14 1
    14   14    5 1
    15   15   13 1
    16   16   15 1
    17   17   16 1
    18   18   12 1
    19   19   12 1
    20   20   17 1
    21   21   17 1
    22   22    8 1
    23   23    8 1
    24   24   14 1
    25   25    1 1
    26   26    9 1
    27   27   13 1
    28   28    5 1
    29   29    5 1
    30   30    3 1
    31   31    6 1
    32   32    6 1
    33   33    7 1
    34   34    7 1
    35   35   10 1
    36   36   10 1
    37   37   11 1
    38   38   11 1
    39   39   15 1
    40   40   15 1
    41   41   16 1
    42   42   16 1
    43   43   18 1
    44   44   18 1
    45   45   19 1
    46   46   19 1
    47   47   21 1
    48   48   21 1
    49   49   21 1
    50   50   23 1
    51   51   23 1
    52   52   23 1
    53   53   24 1
    54   54   24 1
    55   55   24 1
    56    9   14 1
    57   17   18 1
    58   19   20 1
@<TRIPOS>SUBSTRUCTURE
     1 RES1 1

@<TRIPOS>CRYSIN
   8.4530   14.7950   15.0970  90.0000  90.0000  90.0000  19 1

