# MOL2 file generated by ConQuest
# Please check atom types

@<TRIPOS>MOLECULE
EVOFEA
    58    61     1
SMALL
NO_CHARGES
****
Generated from CSD

@<TRIPOS>ATOM
      1 O1         1.6229    0.5760    6.4294 O.3       1 RES1    0.0000
      2 O2        -0.0377    1.5034    7.5214 O.2       1 RES1    0.0000
      3 O3         8.8539    0.9319    5.1665 O.3       1 RES1    0.0000
      4 N1         9.2671    0.9744    6.5261 N.2       1 RES1    0.0000
      5 C1         3.6703    2.7389    9.7032 C.3       1 RES1    0.0000
      6 C2         2.1461    2.9478    9.6796 C.3       1 RES1    0.0000
      7 C3         1.4255    1.6384    9.8932 C.3       1 RES1    0.0000
      8 C4         1.7574    0.5969    8.8249 C.3       1 RES1    0.0000
      9 C5         3.3070    0.4111    8.7653 C.3       1 RES1    0.0000
     10 C6         3.8396   -0.6804    7.8273 C.3       1 RES1    0.0000
     11 C7         5.2203   -1.0975    8.2940 C.3       1 RES1    0.0000
     12 C8         6.2298    0.0589    8.3503 C.3       1 RES1    0.0000
     13 C9         5.6316    1.3124    9.0509 C.3       1 RES1    0.0000
     14 C10        4.1595    1.7116    8.6595 C.3       1 RES1    0.0000
     15 C11        6.6431    2.4547    8.9958 C.3       1 RES1    0.0000
     16 C12        8.0446    2.0398    9.4366 C.3       1 RES1    0.0000
     17 C13        8.5112    0.7013    8.8114 C.3       1 RES1    0.0000
     18 C14        7.4722   -0.3648    9.1566 C.3       1 RES1    0.0000
     19 C15        6.8708    0.4007    6.9771 C.3       1 RES1    0.0000
     20 C16        8.2929    0.7603    7.3066 C.2       1 RES1    0.0000
     21 C17        9.9371    0.3395    9.2095 C.3       1 RES1    0.0000
     22 C18        1.0337    0.9714    7.5248 C.2       1 RES1    0.0000
     23 C19        1.1017   -0.7401    9.2365 C.3       1 RES1    0.0000
     24 C20        4.0745    2.3659    7.2751 C.3       1 RES1    0.0000
     25 C21        0.8828    0.7692    5.1991 C.3       1 RES1    0.0000
     26 H1         9.5762    0.9774    4.8921 H         1 RES1    0.0000
     27 H2         3.5494    0.0970    9.5592 H         1 RES1    0.0000
     28 H3         5.4806    1.0520   10.0990 H         1 RES1    0.0000
     29 H4         4.1198    3.6410    9.5367 H         1 RES1    0.0000
     30 H5         3.8965    2.3129   10.6276 H         1 RES1    0.0000
     31 H6         1.8619    3.5365   10.4252 H         1 RES1    0.0000
     32 H7         1.9121    3.3948    8.7720 H         1 RES1    0.0000
     33 H8         1.6976    1.2534   10.8188 H         1 RES1    0.0000
     34 H9         0.4014    1.8205    9.9416 H         1 RES1    0.0000
     35 H10        3.8871   -0.3283    6.9164 H         1 RES1    0.0000
     36 H11        3.2492   -1.4474    7.8836 H         1 RES1    0.0000
     37 H12        5.1406   -1.4624    9.3680 H         1 RES1    0.0000
     38 H13        5.5763   -1.7757    7.8723 H         1 RES1    0.0000
     39 H14        6.3988    3.0963    9.5367 H         1 RES1    0.0000
     40 H15        6.7527    2.8277    7.9848 H         1 RES1    0.0000
     41 H16        8.6706    2.7830    9.1994 H         1 RES1    0.0000
     42 H17        8.1337    1.8503   10.3690 H         1 RES1    0.0000
     43 H18        7.3335   -0.3507   10.0878 H         1 RES1    0.0000
     44 H19        7.8241   -1.2908    8.7945 H         1 RES1    0.0000
     45 H20        6.4029    1.1042    6.4665 H         1 RES1    0.0000
     46 H21        6.8389   -0.3805    6.5115 H         1 RES1    0.0000
     47 H22       10.3103   -0.4253    8.7945 H         1 RES1    0.0000
     48 H23       10.0207    0.3507   10.1215 H         1 RES1    0.0000
     49 H24       10.6576    1.1938    8.7832 H         1 RES1    0.0000
     50 H25        1.5679   -1.2534   10.0203 H         1 RES1    0.0000
     51 H26        1.2147   -1.4251    8.5583 H         1 RES1    0.0000
     52 H27        0.1391   -0.6640    9.4018 H         1 RES1    0.0000
     53 H28        4.3153    1.7683    6.5902 H         1 RES1    0.0000
     54 H29        4.6896    3.0739    7.3100 H         1 RES1    0.0000
     55 H30        3.1618    2.6710    7.0176 H         1 RES1    0.0000
     56 H31        0.3585    1.6116    5.1957 H         1 RES1    0.0000
     57 H32        1.6331    0.7983    4.3972 H         1 RES1    0.0000
     58 H33        0.2160    0.0597    5.0945 H         1 RES1    0.0000
@<TRIPOS>BOND
     1    1   22 1
     2    2   22 2
     3    3    4 1
     4    4   20 2
     5    5    6 1
     6    6    7 1
     7    7    8 1
     8    8    9 1
     9    9   10 1
    10   10   11 1
    11   11   12 1
    12   12   13 1
    13   13   14 1
    14   14    5 1
    15   15   13 1
    16   16   15 1
    17   17   16 1
    18   18   12 1
    19   19   12 1
    20   20   17 1
    21   21   17 1
    22   22    8 1
    23   23    8 1
    24   24   14 1
    25   25    1 1
    26   26    3 1
    27   27    9 1
    28   28   13 1
    29   29    5 1
    30   30    5 1
    31   31    6 1
    32   32    6 1
    33   33    7 1
    34   34    7 1
    35   35   10 1
    36   36   10 1
    37   37   11 1
    38   38   11 1
    39   39   15 1
    40   40   15 1
    41   41   16 1
    42   42   16 1
    43   43   18 1
    44   44   18 1
    45   45   19 1
    46   46   19 1
    47   47   21 1
    48   48   21 1
    49   49   21 1
    50   50   23 1
    51   51   23 1
    52   52   23 1
    53   53   24 1
    54   54   24 1
    55   55   24 1
    56   56   25 1
    57   57   25 1
    58   58   25 1
    59    9   14 1
    60   17   18 1
    61   19   20 1
@<TRIPOS>SUBSTRUCTURE
     1 RES1 1

@<TRIPOS>CRYSIN
  23.0200    7.4610   11.4340  90.0000 100.4000  90.0000   5 1

