# MOL2 file generated by ConQuest
# Please check atom types

@<TRIPOS>MOLECULE
EVOPIP
    16    16     1
SMALL
NO_CHARGES
****
Generated from CSD

@<TRIPOS>ATOM
      1 O1         0.6192    4.0458    0.6276 O.2       1 RES1    0.0000
      2 O2        -1.0361    4.7182    2.6490 O.3       1 RES1    0.0000
      3 H1        -0.6723    5.4530    2.6400 H         1 RES1    0.0000
      4 N1        -0.0697    3.7249    2.7507 N.am      1 RES1    0.0000
      5 H2         0.0327    3.2987    3.4902 H         1 RES1    0.0000
      6 C1         0.6975    3.4333    1.7013 C.2       1 RES1    0.0000
      7 C2         1.6682    2.2985    1.8871 C.ar      1 RES1    0.0000
      8 N2         3.5054    0.1922    2.0653 N.ar      1 RES1    0.0000
      9 C3         2.5674    2.0330    0.8730 C.ar      1 RES1    0.0000
     10 H3         2.5784    2.5618    0.1087 H         1 RES1    0.0000
     11 C4         1.7331    1.4860    3.0051 C.ar      1 RES1    0.0000
     12 H4         1.1621    1.6325    3.7246 H         1 RES1    0.0000
     13 C5         3.4472    0.9817    0.9998 C.ar      1 RES1    0.0000
     14 H5         4.0347    0.8149    0.2983 H         1 RES1    0.0000
     15 C6         2.6488    0.4579    3.0461 C.ar      1 RES1    0.0000
     16 H6         2.6694   -0.0820    3.8028 H         1 RES1    0.0000
@<TRIPOS>BOND
     1    1    6 2
     2    2    3 1
     3    4    2 1
     4    5    4 1
     5    6    4 1
     6    7    6 1
     7    8   13 ar
     8    9    7 ar
     9   10    9 1
    10   11    7 ar
    11   12   11 1
    12   13    9 ar
    13   14   13 1
    14   15    8 ar
    15   16   15 1
    16   11   15 ar
@<TRIPOS>SUBSTRUCTURE
     1 RES1 1

@<TRIPOS>CRYSIN
   4.8765   13.4476    9.6656  90.0000  99.5790  90.0000  14 1

