# MOL2 file generated by ConQuest
# Please check atom types

@<TRIPOS>MOLECULE
EVULOW
    36    37     1
SMALL
NO_CHARGES
****
Generated from CSD

@<TRIPOS>ATOM
      1 C1         6.3831    4.0942    2.3595 C.2       1 RES1    0.0000
      2 C2         7.5152    3.4172    2.6037 C.2       1 RES1    0.0000
      3 C3         6.4031    5.5464    2.1598 C.ar      1 RES1    0.0000
      4 C4         5.5650    6.1540    1.2105 C.ar      1 RES1    0.0000
      5 H1         4.9811    5.6376    0.7043 H         1 RES1    0.0000
      6 C5         5.6133    7.5090    1.0329 C.ar      1 RES1    0.0000
      7 H2         5.0420    7.8916    0.4063 H         1 RES1    0.0000
      8 C6         6.4619    8.3391    1.7329 C.ar      1 RES1    0.0000
      9 C7         7.2821    7.7313    2.6771 C.ar      1 RES1    0.0000
     10 H3         7.8691    8.2543    3.1739 H         1 RES1    0.0000
     11 C8         7.2432    6.3805    2.8896 C.ar      1 RES1    0.0000
     12 H4         7.7946    6.0102    3.5401 H         1 RES1    0.0000
     13 C9         6.5154    9.8063    1.5135 C.3       1 RES1    0.0000
     14 H5         5.8843   10.0509    0.8340 H         1 RES1    0.0000
     15 H6         7.3997   10.0559    1.2344 H         1 RES1    0.0000
     16 H7         6.2980   10.2588    2.3313 H         1 RES1    0.0000
     17 C10        5.0861    3.3796    2.2409 C.ar      1 RES1    0.0000
     18 C11        3.9351    3.8780    2.8051 C.ar      1 RES1    0.0000
     19 H8         3.9782    4.6495    3.3216 H         1 RES1    0.0000
     20 C12        2.7221    3.2555    2.6199 C.ar      1 RES1    0.0000
     21 H9         1.9565    3.6231    2.9989 H         1 RES1    0.0000
     22 C13        2.6244    2.0943    1.8815 C.ar      1 RES1    0.0000
     23 C14        3.7870    1.5916    1.3181 C.ar      1 RES1    0.0000
     24 H10        3.7482    0.8201    0.7990 H         1 RES1    0.0000
     25 C15        5.0011    2.2154    1.5144 C.ar      1 RES1    0.0000
     26 H11        5.7719    1.8432    1.1499 H         1 RES1    0.0000
     27 C16        1.3054    1.4173    1.6424 C.3       1 RES1    0.0000
     28 H12        0.6144    1.8914    2.1094 H         1 RES1    0.0000
     29 H13        1.3474    0.5140    1.9634 H         1 RES1    0.0000
     30 H14        1.1132    1.4140    0.7026 H         1 RES1    0.0000
     31 N1         8.8542    3.9668    2.3834 N.pl3     1 RES1    0.0000
     32 N2         7.6150    2.0644    3.1176 N.pl3     1 RES1    0.0000
     33 O1         9.1052    4.4781    1.3052 O.2       1 RES1    0.0000
     34 O2         9.6503    3.8916    3.3131 O.2       1 RES1    0.0000
     35 O3         6.7790    1.6979    3.9166 O.2       1 RES1    0.0000
     36 O4         8.5350    1.3784    2.7377 O.2       1 RES1    0.0000
@<TRIPOS>BOND
     1    1    2 2
     2    2   31 1
     3    3    1 1
     4    4    3 ar
     5    5    4 1
     6    6    4 ar
     7    7    6 1
     8    8    6 ar
     9    9    8 ar
    10   10    9 1
    11   11    3 ar
    12   12   11 1
    13   13    8 1
    14   14   13 1
    15   15   13 1
    16   16   13 1
    17   17    1 1
    18   18   17 ar
    19   19   18 1
    20   20   18 ar
    21   21   20 1
    22   22   20 ar
    23   23   22 ar
    24   24   23 1
    25   25   17 ar
    26   26   25 1
    27   27   22 1
    28   28   27 1
    29   29   27 1
    30   30   27 1
    31   31   33 2
    32   32    2 1
    33   34   31 2
    34   35   32 2
    35   36   32 2
    36    9   11 ar
    37   23   25 ar
@<TRIPOS>SUBSTRUCTURE
     1 RES1 1

@<TRIPOS>CRYSIN
  10.5020   16.6350    8.5366  90.0000  90.0000  90.0000  29 1

