# MOL2 file generated by ConQuest
# Please check atom types

@<TRIPOS>MOLECULE
EVUMIR
    32    33     1
SMALL
NO_CHARGES
****
Generated from CSD

@<TRIPOS>ATOM
      1 C1         2.0013    3.8522    1.5127 C.2       1 RES1    0.0000
      2 C2         1.8046    3.2592    2.6858 C.2       1 RES1    0.0000
      3 C3         2.3365    5.3029    1.4580 C.ar      1 RES1    0.0000
      4 C4         1.5473    6.2343    2.1117 C.ar      1 RES1    0.0000
      5 H1         0.8343    5.9520    2.6383 H         1 RES1    0.0000
      6 C5         1.8185    7.5832    1.9822 C.ar      1 RES1    0.0000
      7 H2         1.2874    8.2160    2.4075 H         1 RES1    0.0000
      8 C6         2.8815    7.9695    1.2179 C.ar      1 RES1    0.0000
      9 C7         3.6846    7.0716    0.5668 C.ar      1 RES1    0.0000
     10 H3         4.4097    7.3645    0.0632 H         1 RES1    0.0000
     11 C8         3.3996    5.7266    0.6716 C.ar      1 RES1    0.0000
     12 H4         3.9185    5.1038    0.2161 H         1 RES1    0.0000
     13 C9         1.8860    3.1543    0.2146 C.ar      1 RES1    0.0000
     14 C10        1.3342    3.8212   -0.8813 C.ar      1 RES1    0.0000
     15 H5         1.0284    4.6949   -0.7908 H         1 RES1    0.0000
     16 C11        1.2449    3.1821   -2.0955 C.ar      1 RES1    0.0000
     17 H6         0.8577    3.6237   -2.8176 H         1 RES1    0.0000
     18 C12        1.7188    1.9003   -2.2600 C.ar      1 RES1    0.0000
     19 H7         1.6504    1.4778   -3.0851 H         1 RES1    0.0000
     20 C13        2.2950    1.2482   -1.1954 C.ar      1 RES1    0.0000
     21 H8         2.6372    0.3909   -1.3096 H         1 RES1    0.0000
     22 C14        2.3703    1.8567    0.0406 C.ar      1 RES1    0.0000
     23 H9         2.7446    1.4013    0.7599 H         1 RES1    0.0000
     24 N1         2.0879    3.8824    3.9812 N.pl3     1 RES1    0.0000
     25 N2         1.2675    1.9031    2.9037 N.pl3     1 RES1    0.0000
     26 N3         3.1379    9.4118    1.0453 N.pl3     1 RES1    0.0000
     27 O1         3.1449    4.4414    4.1347 O.2       1 RES1    0.0000
     28 O2         1.2164    3.8140    4.8157 O.2       1 RES1    0.0000
     29 O3         0.2998    1.5540    2.2675 O.2       1 RES1    0.0000
     30 O4         1.8280    1.2374    3.7248 O.2       1 RES1    0.0000
     31 O5         4.0736    9.7536    0.3600 O.2       1 RES1    0.0000
     32 O6         2.4033   10.1925    1.6071 O.2       1 RES1    0.0000
@<TRIPOS>BOND
     1    1    2 2
     2    2   24 1
     3    3    1 1
     4    4    3 ar
     5    5    4 1
     6    6    4 ar
     7    7    6 1
     8    8    6 ar
     9    9    8 ar
    10   10    9 1
    11   11    3 ar
    12   12   11 1
    13   13    1 1
    14   14   13 ar
    15   15   14 1
    16   16   14 ar
    17   17   16 1
    18   18   16 ar
    19   19   18 1
    20   20   18 ar
    21   21   20 1
    22   22   13 ar
    23   23   22 1
    24   24   27 2
    25   25    2 1
    26   26    8 1
    27   28   24 2
    28   29   25 2
    29   30   25 2
    30   31   26 2
    31   32   26 2
    32    9   11 ar
    33   20   22 ar
@<TRIPOS>SUBSTRUCTURE
     1 RES1 1

@<TRIPOS>CRYSIN
   8.6635   11.2641   14.6980  90.0000  90.0000  90.0000  19 1

