# MOL2 file generated by ConQuest
# Please check atom types

@<TRIPOS>MOLECULE
EVUZOM
    48    50     1
SMALL
NO_CHARGES
****
Generated from CSD

@<TRIPOS>ATOM
      1 O1         0.1438    4.3129    4.1987 O.3       1 RES1    0.0000
      2 O2         1.4787    4.2896   22.2202 O.3       1 RES1    0.0000
      3 O3         2.2847    6.3523   22.1998 O.2       1 RES1    0.0000
      4 O4         0.8788    6.4243    4.1486 O.2       1 RES1    0.0000
      5 C1         1.4653    5.3241   17.3583 C.ar      1 RES1    0.0000
      6 C2         1.6999    5.3485   20.1445 C.ar      1 RES1    0.0000
      7 C3         0.7528    5.2564    9.0345 C.ar      1 RES1    0.0000
      8 C4         0.5976    5.3347    6.2494 C.ar      1 RES1    0.0000
      9 C5         1.3445    5.3136   15.9119 C.ar      1 RES1    0.0000
     10 C6         1.9973    6.4318   18.0333 C.ar      1 RES1    0.0000
     11 H1         2.2723    7.1857   17.5431 H         1 RES1    0.0000
     12 N1         0.6141    7.7236   13.1574 N.pl3     1 RES1    0.0000
     13 C7         1.0562    4.2292   18.1303 C.ar      1 RES1    0.0000
     14 H2         0.6954    3.4743   17.7040 H         1 RES1    0.0000
     15 C8         1.1087    5.3083   13.0859 C.ar      1 RES1    0.0000
     16 C9         0.1865    4.2028    6.9437 C.ar      1 RES1    0.0000
     17 H3        -0.1573    3.4668    6.4689 H         1 RES1    0.0000
     18 C10        2.1200    6.4254   19.3863 C.ar      1 RES1    0.0000
     19 H4         2.4983    7.1709   19.8177 H         1 RES1    0.0000
     20 C11        1.1685    4.2345   19.4833 C.ar      1 RES1    0.0000
     21 H5         0.8880    3.4870   19.9786 H         1 RES1    0.0000
     22 C12        0.2767    4.1435    8.3172 C.ar      1 RES1    0.0000
     23 H6         0.0216    3.3631    8.7741 H         1 RES1    0.0000
     24 C13        1.1294    6.4063    8.3223 C.ar      1 RES1    0.0000
     25 H7         1.4367    7.1624    8.7869 H         1 RES1    0.0000
     26 C14        1.0532    6.4339    6.9744 C.ar      1 RES1    0.0000
     27 H8         1.3137    7.2122    6.5149 H         1 RES1    0.0000
     28 C15        0.5600    5.4459    4.7764 C.2       1 RES1    0.0000
     29 C16        1.8542    5.4131   21.5996 C.2       1 RES1    0.0000
     30 C17        0.8586    5.2299   10.4590 C.1       1 RES1    0.0000
     31 C18        1.0472    6.4784   15.2073 C.ar      1 RES1    0.0000
     32 H9         0.9173    7.2831   15.6770 H         1 RES1    0.0000
     33 C19        0.9391    6.4678   13.8211 C.ar      1 RES1    0.0000
     34 O5         1.3038    8.0709   12.2205 O.2       1 RES1    0.0000
     35 O6        -0.3097    8.3674   13.5837 O.2       1 RES1    0.0000
     36 C20        0.9857    5.2744   11.6384 C.1       1 RES1    0.0000
     37 C21        1.5079    4.1657   15.1562 C.ar      1 RES1    0.0000
     38 H10        1.7059    3.3609   15.6004 H         1 RES1    0.0000
     39 C22        1.3922    4.1509   13.7854 C.ar      1 RES1    0.0000
     40 H11        1.5084    3.3429   13.3207 H         1 RES1    0.0000
     41 C23        0.1220    4.3203    2.7469 C.3       1 RES1    0.0000
     42 H12       -0.1865    3.4594    2.4252 H         1 RES1    0.0000
     43 H13        1.0150    4.4908    2.4124 H         1 RES1    0.0000
     44 H14       -0.4788    5.0160    2.4380 H         1 RES1    0.0000
     45 C24        1.6306    4.2716   23.6547 C.3       1 RES1    0.0000
     46 H15        1.3347    3.4150   23.9993 H         1 RES1    0.0000
     47 H16        1.0961    4.9800   24.0452 H         1 RES1    0.0000
     48 H17        2.5641    4.4071   23.8819 H         1 RES1    0.0000
@<TRIPOS>BOND
     1    1   28 1
     2    2   29 1
     3    3   29 2
     4    4   28 2
     5    5    9 1
     6    6   18 ar
     7    7   22 ar
     8    8   16 ar
     9    9   31 ar
    10   10    5 ar
    11   11   10 1
    12   12   33 1
    13   13    5 ar
    14   14   13 1
    15   15   33 ar
    16   16   17 1
    17   18   10 ar
    18   19   18 1
    19   20    6 ar
    20   21   20 1
    21   22   16 ar
    22   23   22 1
    23   24    7 ar
    24   25   24 1
    25   26    8 ar
    26   27   26 1
    27   28    8 1
    28   29    6 1
    29   30    7 1
    30   31   32 1
    31   33   31 ar
    32   34   12 2
    33   35   12 2
    34   36   15 1
    35   37    9 ar
    36   38   37 1
    37   39   15 ar
    38   40   39 1
    39   41    1 1
    40   42   41 1
    41   43   41 1
    42   44   41 1
    43   45    2 1
    44   46   45 1
    45   47   45 1
    46   48   45 1
    47   13   20 ar
    48   24   26 ar
    49   30   36 3
    50   37   39 ar
@<TRIPOS>SUBSTRUCTURE
     1 RES1 1

@<TRIPOS>CRYSIN
   7.4170   10.5890   25.5745  90.0000  93.4390  90.0000  14 1

