# MOL2 file generated by ConQuest
# Please check atom types

@<TRIPOS>MOLECULE
EWAYIL
    45    48     1
SMALL
USER_CHARGES
****
Generated from CSD

@<TRIPOS>ATOM
      1 O1         2.7685    5.3113   10.1108 O.2       1 RES1   -1.0000
      2 N1         2.6485    5.5452   11.3422 N.pl3     1 RES1    1.0000
      3 C1         0.1718    5.8226   11.9542 C.ar      1 RES1    0.0000
      4 C2         3.3546    5.2512   12.4401 C.2       1 RES1    0.0000
      5 C3         1.5768    6.3255   12.0868 C.3       1 RES1    0.0000
      6 C4         4.5959    4.5145   12.5675 C.ar      1 RES1    0.0000
      7 C5         2.4070    5.9330   13.3119 C.2       1 RES1    0.0000
      8 C6        -2.3463    9.1401   18.3072 C.ar      1 RES1    0.0000
      9 C7         1.1245    6.9321   15.1310 C.2       1 RES1    0.0000
     10 C8         0.9337    7.1944   16.4267 C.2       1 RES1    0.0000
     11 C9        -0.1958    7.8855   17.0352 C.ar      1 RES1    0.0000
     12 C10       -0.1832    8.1439   18.4064 C.ar      1 RES1    0.0000
     13 C11        2.2339    6.1761   14.6210 C.2       1 RES1    0.0000
     14 C12       -0.8276    6.6697   11.4933 C.ar      1 RES1    0.0000
     15 C13       -2.3842    8.9066   16.9459 C.ar      1 RES1    0.0000
     16 C14       -1.4720    4.0867   12.1988 C.ar      1 RES1    0.0000
     17 C15        5.2789    4.0557   11.4464 C.ar      1 RES1    0.0000
     18 C16       -0.1693    4.5238   12.3010 C.ar      1 RES1    0.0000
     19 C17       -1.3279    8.2787   16.3207 C.ar      1 RES1    0.0000
     20 C18       -1.2509    8.7575   19.0328 C.ar      1 RES1    0.0000
     21 C19        6.4401    3.3172   11.5911 C.ar      1 RES1    0.0000
     22 C20        5.1096    4.2317   13.8299 C.ar      1 RES1    0.0000
     23 C21       -2.1328    6.2316   11.3907 C.ar      1 RES1    0.0000
     24 C22       -2.4562    4.9389   11.7478 C.ar      1 RES1    0.0000
     25 C23        6.2682    3.4969   13.9664 C.ar      1 RES1    0.0000
     26 C24        6.9303    3.0346   12.8505 C.ar      1 RES1    0.0000
     27 H1         1.6362    7.3054   11.8993 H         1 RES1    0.0000
     28 H2        -3.0791    9.5647   18.7383 H         1 RES1    0.0000
     29 H3         0.4890    7.2663   14.5104 H         1 RES1    0.0000
     30 H4         1.6122    6.8953   17.0196 H         1 RES1    0.0000
     31 H5         0.5749    7.8923   18.9200 H         1 RES1    0.0000
     32 H6         2.8732    5.8330   15.2350 H         1 RES1    0.0000
     33 H7        -0.6115    7.5605   11.2466 H         1 RES1    0.0000
     34 H8        -3.1398    9.1792   16.4387 H         1 RES1    0.0000
     35 H9        -1.6931    3.1955   12.4403 H         1 RES1    0.0000
     36 H10        4.9466    4.2505   10.5779 H         1 RES1    0.0000
     37 H11        0.5029    3.9288   12.6120 H         1 RES1    0.0000
     38 H12       -1.3709    8.1112   15.3867 H         1 RES1    0.0000
     39 H13       -1.2243    8.9155   19.9700 H         1 RES1    0.0000
     40 H14        6.9012    3.0042   10.8214 H         1 RES1    0.0000
     41 H15        4.6585    4.5490   14.6042 H         1 RES1    0.0000
     42 H16       -2.8075    6.8199   11.0749 H         1 RES1    0.0000
     43 H17       -3.3546    4.6389   11.6838 H         1 RES1    0.0000
     44 H18        6.6094    3.3071   14.8318 H         1 RES1    0.0000
     45 H19        7.7250    2.5231   12.9474 H         1 RES1    0.0000
@<TRIPOS>BOND
     1    1    2 1
     2    2    4 2
     3    3    5 1
     4    4    6 1
     5    5    2 1
     6    6   17 ar
     7    7    4 1
     8    8   15 ar
     9    9   10 2
    10   10   11 1
    11   11   12 ar
    12   12   20 ar
    13   13    7 2
    14   14    3 ar
    15   15   19 ar
    16   16   18 ar
    17   17   21 ar
    18   18    3 ar
    19   19   11 ar
    20   20    8 ar
    21   21   26 ar
    22   22    6 ar
    23   23   14 ar
    24   24   16 ar
    25   25   22 ar
    26   26   25 ar
    27   27    5 1
    28   28    8 1
    29   29    9 1
    30   30   10 1
    31   31   12 1
    32   32   13 1
    33   33   14 1
    34   34   15 1
    35   35   16 1
    36   36   17 1
    37   37   18 1
    38   38   19 1
    39   39   20 1
    40   40   21 1
    41   41   22 1
    42   42   23 1
    43   43   24 1
    44   44   25 1
    45   45   26 1
    46    5    7 1
    47    9   13 1
    48   23   24 ar
@<TRIPOS>SUBSTRUCTURE
     1 RES1 1

@<TRIPOS>CRYSIN
  12.6350   14.4920   19.9620  90.0000  90.0000  90.0000  61 1

