# MOL2 file generated by ConQuest
# Please check atom types

@<TRIPOS>MOLECULE
EWEFOC
    47    48     1
SMALL
NO_CHARGES
****
Generated from CSD

@<TRIPOS>ATOM
      1 N1         4.7782    3.7133   -2.3170 N.pl3     1 RES1    0.0000
      2 O1        -0.5280    1.6430    0.6670 O.2       1 RES1    0.0000
      3 O2         1.0991    1.0196    2.0863 O.3       1 RES1    0.0000
      4 O3         4.4575    4.4400   -3.2391 O.2       1 RES1    0.0000
      5 O4         5.9380    3.4647   -2.0402 O.2       1 RES1    0.0000
      6 C1         3.0559    1.7143    0.2947 C.ar      1 RES1    0.0000
      7 H1         3.2686    1.0860    0.9756 H         1 RES1    0.0000
      8 C2         4.0612    2.2212   -0.5107 C.ar      1 RES1    0.0000
      9 H2         4.9637    1.9448   -0.3996 H         1 RES1    0.0000
     10 C3         3.7122    3.1416   -1.4819 C.ar      1 RES1    0.0000
     11 C4         2.4161    3.5623   -1.6758 C.ar      1 RES1    0.0000
     12 H3         2.2076    4.1956   -2.3537 H         1 RES1    0.0000
     13 C5         1.4282    3.0448   -0.8674 C.ar      1 RES1    0.0000
     14 H4         0.5279    3.3228   -0.9844 H         1 RES1    0.0000
     15 C6         1.7430    2.1179    0.1184 C.ar      1 RES1    0.0000
     16 C7         0.6357    1.5790    0.9565 C.2       1 RES1    0.0000
     17 C8         0.1406    0.4068    2.9344 C.2       1 RES1    0.0000
     18 C9         0.0575   -0.9129    2.8380 C.2       1 RES1    0.0000
     19 H5         0.6055   -1.3780    2.1657 H         1 RES1    0.0000
     20 H6        -0.5264   -1.3862    3.4615 H         1 RES1    0.0000
     21 C10       -0.5788    1.2821    3.8647 C.2       1 RES1    0.0000
     22 C11       -0.1283    2.5444    4.0436 C.2       1 RES1    0.0000
     23 H7         0.6200    2.7938    3.5144 H         1 RES1    0.0000
     24 C12       -0.6439    3.5829    4.9490 C.ar      1 RES1    0.0000
     25 C13        0.2990    4.4991    5.4629 C.ar      1 RES1    0.0000
     26 H8         1.2118    4.4392    5.2070 H         1 RES1    0.0000
     27 C14       -0.1147    5.4891    6.3427 C.ar      1 RES1    0.0000
     28 H9         0.5270    6.0936    6.6968 H         1 RES1    0.0000
     29 C15       -1.4228    5.6113    6.7094 C.ar      1 RES1    0.0000
     30 H10       -1.6846    6.2856    7.3256 H         1 RES1    0.0000
     31 C16       -2.3625    4.7525    6.1808 C.ar      1 RES1    0.0000
     32 H11       -3.2781    4.8485    6.4147 H         1 RES1    0.0000
     33 C17       -1.9719    3.7477    5.3075 C.ar      1 RES1    0.0000
     34 H12       -2.6277    3.1612    4.9484 H         1 RES1    0.0000
     35 C18       -1.7414    0.6472    4.5676 C.3       1 RES1    0.0000
     36 H13       -2.0046    1.2140    5.3363 H         1 RES1    0.0000
     37 H14       -1.4628   -0.2346    4.9219 H         1 RES1    0.0000
     38 C19       -2.9490    0.4569    3.6463 C.3       1 RES1    0.0000
     39 H15       -3.3270    1.3460    3.4292 H         1 RES1    0.0000
     40 H16       -2.6427    0.0451    2.8004 H         1 RES1    0.0000
     41 C20       -4.0402   -0.4044    4.2399 C.3       1 RES1    0.0000
     42 H17       -4.7392   -0.5512    3.5555 H         1 RES1    0.0000
     43 H18       -3.6581   -1.2878    4.4753 H         1 RES1    0.0000
     44 C21       -4.6788    0.1887    5.4656 C.3       1 RES1    0.0000
     45 H19       -5.3725   -0.4175    5.7976 H         1 RES1    0.0000
     46 H20       -5.0820    1.0524    5.2393 H         1 RES1    0.0000
     47 H21       -3.9977    0.3183    6.1590 H         1 RES1    0.0000
@<TRIPOS>BOND
     1    1    4 2
     2    2   16 2
     3    3   16 1
     4    5    1 2
     5    6    7 1
     6    8    6 ar
     7    9    8 1
     8   10    1 1
     9   11   10 ar
    10   12   11 1
    11   13   11 ar
    12   14   13 1
    13   15    6 ar
    14   16   15 1
    15   17    3 1
    16   18   17 2
    17   19   18 1
    18   20   18 1
    19   21   17 1
    20   22   21 2
    21   23   22 1
    22   24   22 1
    23   25   24 ar
    24   26   25 1
    25   27   25 ar
    26   28   27 1
    27   29   27 ar
    28   30   29 1
    29   31   29 ar
    30   32   31 1
    31   33   24 ar
    32   34   33 1
    33   35   21 1
    34   36   35 1
    35   37   35 1
    36   38   35 1
    37   39   38 1
    38   40   38 1
    39   41   38 1
    40   42   41 1
    41   43   41 1
    42   44   41 1
    43   45   44 1
    44   46   44 1
    45   47   44 1
    46    8   10 ar
    47   13   15 ar
    48   31   33 ar
@<TRIPOS>SUBSTRUCTURE
     1 RES1 1

@<TRIPOS>CRYSIN
   7.7254    8.2025   29.5830  90.0000  96.6380  90.0000  14 1

