# MOL2 file generated by ConQuest
# Please check atom types

@<TRIPOS>MOLECULE
EWEGET
    55    51     2
SMALL
NO_CHARGES
****
Generated from CSD

@<TRIPOS>ATOM
      1 O1         6.8003    5.6782    3.2488 O.3       1 RES1    0.0000
      2 O2         7.9255    7.4897    2.5254 O.2       1 RES1    0.0000
      3 O3        11.8046    3.1943   -1.2599 O.2       1 RES1    0.0000
      4 O4        11.2241    1.5455    0.0137 O.2       1 RES1    0.0000
      5 N1        11.1786    2.7251   -0.3122 N.pl3     1 RES1    0.0000
      6 C1         5.9271    6.5273    4.0635 C.3       1 RES1    0.0000
      7 H1         6.4752    7.2309    4.4457 H         1 RES1    0.0000
      8 C2         5.4168    5.6276    5.1922 C.3       1 RES1    0.0000
      9 H2         4.8865    6.2089    5.7823 H         1 RES1    0.0000
     10 C3         4.5192    4.4741    4.7261 C.3       1 RES1    0.0000
     11 H3         4.3780    3.8713    5.4988 H         1 RES1    0.0000
     12 H4         5.0203    3.9596    4.0439 H         1 RES1    0.0000
     13 C4         3.1263    4.8127    4.1320 C.3       1 RES1    0.0000
     14 H5         3.2453    5.0248    3.1715 H         1 RES1    0.0000
     15 H6         2.5639    3.9999    4.1841 H         1 RES1    0.0000
     16 C5         2.3645    5.9530    4.7729 C.3       1 RES1    0.0000
     17 H7         1.4039    5.7145    4.7698 H         1 RES1    0.0000
     18 H8         2.6488    6.0142    5.7200 H         1 RES1    0.0000
     19 C6         2.5020    7.3192    4.1610 C.3       1 RES1    0.0000
     20 H9         2.0771    7.2740    3.2681 H         1 RES1    0.0000
     21 H10        1.9483    7.9318    4.7074 H         1 RES1    0.0000
     22 C7         3.8321    7.9936    3.9716 C.3       1 RES1    0.0000
     23 H11        4.2022    8.2029    4.8663 H         1 RES1    0.0000
     24 H12        3.6781    8.8544    3.5080 H         1 RES1    0.0000
     25 C8         4.8938    7.2059    3.1843 C.3       1 RES1    0.0000
     26 H13        4.4885    6.5287    2.6699 H         1 RES1    0.0000
     27 H14        5.4072    7.8428    2.6201 H         1 RES1    0.0000
     28 C9         7.7614    6.2930    2.5562 C.2       1 RES1    0.0000
     29 C10        8.6357    5.3196    1.8266 C.ar      1 RES1    0.0000
     30 C11        9.5457    5.8355    0.9013 C.ar      1 RES1    0.0000
     31 H15        9.5823    6.7727    0.7477 H         1 RES1    0.0000
     32 C12       10.3920    4.9935    0.2081 C.ar      1 RES1    0.0000
     33 H16       11.0090    5.3370   -0.4268 H         1 RES1    0.0000
     34 C13       10.3173    3.6349    0.4648 C.ar      1 RES1    0.0000
     35 C14        9.4462    3.0926    1.3945 C.ar      1 RES1    0.0000
     36 H17        9.4336    2.1581    1.5640 H         1 RES1    0.0000
     37 C15        8.5936    3.9492    2.0721 C.ar      1 RES1    0.0000
     38 H18        7.9782    3.6009    2.7073 H         1 RES1    0.0000
     39 C16        6.6038    5.1506    6.0240 C.ar      1 RES1    0.0000
     40 C17        7.1234    5.9787    7.0126 C.ar      1 RES1    0.0000
     41 H19        6.7113    6.8172    7.1842 H         1 RES1    0.0000
     42 C18        8.2418    5.5963    7.7553 C.ar      1 RES1    0.0000
     43 H20        8.5882    6.1790    8.4211 H         1 RES1    0.0000
     44 C19        8.8449    4.3844    7.5291 C.ar      1 RES1    0.0000
     45 H21        9.6097    4.1286    8.0316 H         1 RES1    0.0000
     46 C20        8.3327    3.5411    6.5667 C.ar      1 RES1    0.0000
     47 H22        8.7397    2.6956    6.4147 H         1 RES1    0.0000
     48 C21        7.2200    3.9193    5.8134 C.ar      1 RES1    0.0000
     49 H23        6.8794    3.3311    5.1498 H         1 RES1    0.0000
     50 C22        3.0553    4.7474    5.3087 Du        2 SUP2    0.0000
     51 C23        2.3645    5.9530    4.7729 Du        2 SUP2    0.0000
     52 H24        2.4915    3.9554    5.1218 Du        2 SUP2    0.0000
     53 H25        3.1226    4.8385    6.2932 Du        2 SUP2    0.0000
     54 H26        1.7704    6.1650    5.5362 Du        2 SUP2    0.0000
     55 H27        1.7650    5.5268    4.1093 Du        2 SUP2    0.0000
@<TRIPOS>BOND
     1    1    6 1
     2    2   28 2
     3    3    5 2
     4    4    5 2
     5    5   34 1
     6    6    7 1
     7    8    6 1
     8    9    8 1
     9   10    8 1
    10   11   10 1
    11   12   10 1
    12   13   10 1
    13   14   13 1
    14   15   13 1
    15   16   13 1
    16   17   16 1
    17   18   16 1
    18   19   16 1
    19   20   19 1
    20   21   19 1
    21   22   19 1
    22   23   22 1
    23   24   22 1
    24   25    6 1
    25   26   25 1
    26   27   25 1
    27   28    1 1
    28   29   28 1
    29   30   29 ar
    30   31   30 1
    31   32   30 ar
    32   33   32 1
    33   34   32 ar
    34   35   34 ar
    35   36   35 1
    36   37   29 ar
    37   38   37 1
    38   39    8 1
    39   40   39 ar
    40   41   40 1
    41   42   40 ar
    42   43   42 1
    43   44   42 ar
    44   45   44 1
    45   46   44 ar
    46   47   46 1
    47   48   39 ar
    48   49   48 1
    49   22   25 1
    50   35   37 ar
    51   46   48 ar
@<TRIPOS>SUBSTRUCTURE
     1 RES1 1
     2 SUP2 50

@<TRIPOS>CRYSIN
   8.4054    6.9528   31.1940  90.0000  92.8830  90.0000 231 1

