# MOL2 file generated by ConQuest
# Please check atom types

@<TRIPOS>MOLECULE
EWIXUD
    30    31     1
SMALL
NO_CHARGES
****
Generated from CSD

@<TRIPOS>ATOM
      1 O1         4.1989   -0.5215    0.6977 O.3       1 RES1    0.0000
      2 C1         4.3942    0.8133    0.9120 C.2       1 RES1    0.0000
      3 C2         3.3402    1.5043    0.3578 C.2       1 RES1    0.0000
      4 C3         2.4720    0.5236   -0.2053 C.2       1 RES1    0.0000
      5 C4         3.0166   -0.6578    0.0117 C.2       1 RES1    0.0000
      6 C5         5.6326    1.1229    1.6379 C.ar      1 RES1    0.0000
      7 C6         6.6009    0.1249    1.7828 C.ar      1 RES1    0.0000
      8 C7         7.7709    0.3482    2.4729 C.ar      1 RES1    0.0000
      9 C8         7.9620    1.5947    3.0608 C.ar      1 RES1    0.0000
     10 C9         7.0312    2.5913    2.9413 C.ar      1 RES1    0.0000
     11 C10        5.8655    2.3627    2.2422 C.ar      1 RES1    0.0000
     12 N1         9.1877    1.8445    3.8203 N.pl3     1 RES1    0.0000
     13 O2         9.2839    2.8987    4.4521 O.2       1 RES1    0.0000
     14 O3        10.0656    0.9838    3.8210 O.2       1 RES1    0.0000
     15 C11        3.0719    2.9581    0.2994 C.2       1 RES1    0.0000
     16 O4         3.7406    3.8455    0.7794 O.2       1 RES1    0.0000
     17 O5         1.9312    3.1852   -0.3701 O.3       1 RES1    0.0000
     18 C12        1.4907    4.5820   -0.4230 C.3       1 RES1    0.0000
     19 C13        0.2600    4.6179   -1.2773 C.3       1 RES1    0.0000
     20 H1         7.1634    3.3754    3.4268 H         1 RES1    0.0000
     21 H2         1.6709    0.7309   -0.6455 H         1 RES1    0.0000
     22 H3        -0.0521    5.5016   -1.2979 H         1 RES1    0.0000
     23 H4         2.2299    5.1959   -0.8241 H         1 RES1    0.0000
     24 H5         2.7792   -1.5548   -0.1579 H         1 RES1    0.0000
     25 H6         5.1613    3.0431    2.1426 H         1 RES1    0.0000
     26 H7         1.3270    4.8105    0.5150 H         1 RES1    0.0000
     27 H8         0.5035    4.4385   -2.1769 H         1 RES1    0.0000
     28 H9        -0.4326    4.0132   -0.8722 H         1 RES1    0.0000
     29 H10        6.4775   -0.6910    1.4215 H         1 RES1    0.0000
     30 H11        8.4315   -0.2525    2.6096 H         1 RES1    0.0000
@<TRIPOS>BOND
     1    1    2 1
     2    2    3 2
     3    3    4 1
     4    4    5 2
     5    5    1 1
     6    6    2 1
     7    7    6 ar
     8    8    7 ar
     9    9    8 ar
    10   10    9 ar
    11   11    6 ar
    12   12    9 1
    13   13   12 2
    14   14   12 2
    15   15    3 1
    16   16   15 2
    17   17   15 1
    18   18   17 1
    19   19   18 1
    20   20   10 1
    21   21    4 1
    22   22   19 1
    23   23   18 1
    24   24    5 1
    25   25   11 1
    26   26   18 1
    27   27   19 1
    28   28   19 1
    29   29    7 1
    30   30    8 1
    31   10   11 ar
@<TRIPOS>SUBSTRUCTURE
     1 RES1 1

@<TRIPOS>CRYSIN
  13.1593   13.2888    6.9813  90.0000 100.3670  90.0000  14 1

