# MOL2 file generated by ConQuest
# Please check atom types

@<TRIPOS>MOLECULE
EWIYAK
    32    34     1
SMALL
NO_CHARGES
****
Generated from CSD

@<TRIPOS>ATOM
      1 C1         1.6105   -0.4718    8.5473 C.ar      1 RES1    0.0000
      2 C2         2.1555   -0.8902    7.3280 C.ar      1 RES1    0.0000
      3 H1         1.6476   -0.8604    6.5259 H         1 RES1    0.0000
      4 C3         3.4567   -1.3478    7.3330 C.ar      1 RES1    0.0000
      5 H2         3.8644   -1.6333    6.5235 H         1 RES1    0.0000
      6 C4         4.1684   -1.3905    8.5223 C.ar      1 RES1    0.0000
      7 H3         5.0654   -1.7034    8.5402 H         1 RES1    0.0000
      8 C5         3.5438   -0.9670    9.6862 C.ar      1 RES1    0.0000
      9 C6         4.2461   -1.0332   11.0123 C.3       1 RES1    0.0000
     10 H4         4.0963   -0.1988   11.5040 H         1 RES1    0.0000
     11 H5         5.2067   -1.1583   10.8671 H         1 RES1    0.0000
     12 H6         3.8937   -1.7858   11.5311 H         1 RES1    0.0000
     13 C7        -0.1026    1.0022    9.5600 C.3       1 RES1    0.0000
     14 H7         0.2639    0.8409   10.4757 H         1 RES1    0.0000
     15 C8        -1.6351    1.0815    9.5922 C.3       1 RES1    0.0000
     16 H8        -1.9222    1.8126   10.1960 H         1 RES1    0.0000
     17 H9        -2.0088    0.2314    9.9351 H         1 RES1    0.0000
     18 C9        -2.1568    1.3464    8.1607 C.3       1 RES1    0.0000
     19 H10       -2.7500    0.6095    7.8691 H         1 RES1    0.0000
     20 H11       -2.6687    2.1936    8.1324 H         1 RES1    0.0000
     21 C10       -0.9326    1.4351    7.2472 C.3       1 RES1    0.0000
     22 H12       -1.2144    1.6333    6.3085 H         1 RES1    0.0000
     23 C11        0.0007    2.4926    7.7421 C.2       1 RES1    0.0000
     24 H13        0.2546    3.2434    7.2193 H         1 RES1    0.0000
     25 C12        0.4438    2.2888    8.9806 C.2       1 RES1    0.0000
     26 C13        1.3721    3.1458    9.7687 C.3       1 RES1    0.0000
     27 H14        1.5943    3.9484    9.2523 H         1 RES1    0.0000
     28 H15        2.1915    2.6455    9.9633 H         1 RES1    0.0000
     29 H16        0.9411    3.4068   10.6097 H         1 RES1    0.0000
     30 N1         0.2449   -0.1190    8.6463 N.3       1 RES1    0.0000
     31 N2         2.2752   -0.5039    9.7061 N.ar      1 RES1    0.0000
     32 O1        -0.2791    0.1267    7.3153 O.3       1 RES1    0.0000
@<TRIPOS>BOND
     1    1    2 ar
     2    2    3 1
     3    4    2 ar
     4    5    4 1
     5    6    4 ar
     6    7    6 1
     7    8    6 ar
     8    9    8 1
     9   10    9 1
    10   11    9 1
    11   12    9 1
    12   13   14 1
    13   15   13 1
    14   16   15 1
    15   17   15 1
    16   18   15 1
    17   19   18 1
    18   20   18 1
    19   21   18 1
    20   22   21 1
    21   23   21 1
    22   24   23 1
    23   25   13 1
    24   26   25 1
    25   27   26 1
    26   28   26 1
    27   29   26 1
    28   30    1 1
    29   31    1 ar
    30   32   21 1
    31    8   31 ar
    32   13   30 1
    33   23   25 2
    34   30   32 1
@<TRIPOS>SUBSTRUCTURE
     1 RES1 1

@<TRIPOS>CRYSIN
  13.3300    7.2301   11.7520  90.0000  90.0000  90.0000  33 1

