# MOL2 file generated by ConQuest
# Please check atom types

@<TRIPOS>MOLECULE
EWOFUR
    38    39     1
SMALL
NO_CHARGES
****
Generated from CSD

@<TRIPOS>ATOM
      1 O1         7.1743    4.4911    5.5180 O.2       1 RES1    0.0000
      2 C1         7.9288    4.3327    4.5629 C.2       1 RES1    0.0000
      3 C2         8.5121    5.5855    3.9244 C.3       1 RES1    0.0000
      4 H1         8.4143    5.5378    2.9704 H         1 RES1    0.0000
      5 O2         7.8050    6.7238    4.3799 O.3       1 RES1    0.0000
      6 C3         9.9951    5.7229    4.2736 C.2       1 RES1    0.0000
      7 C4        10.9355    5.7629    3.3375 C.2       1 RES1    0.0000
      8 H2        10.6608    5.7076    2.4192 H         1 RES1    0.0000
      9 C5        12.3624    5.8879    3.5931 C.2       1 RES1    0.0000
     10 H3        12.6543    5.9500    4.5061 H         1 RES1    0.0000
     11 C6        13.2881    5.9118    2.6328 C.2       1 RES1    0.0000
     12 H4        13.0055    5.8498    1.7177 H         1 RES1    0.0000
     13 H5        14.2216    5.9948    2.8431 H         1 RES1    0.0000
     14 C7         8.3049    2.9883    4.1011 C.ar      1 RES1    0.0000
     15 C8         7.9663    1.8854    4.8805 C.ar      1 RES1    0.0000
     16 H6         7.4980    2.0256    5.7062 H         1 RES1    0.0000
     17 C9         8.2785    0.6030    4.4882 C.ar      1 RES1    0.0000
     18 H7         8.0568   -0.1393    5.0562 H         1 RES1    0.0000
     19 C10        8.9357    0.4046    3.2881 C.ar      1 RES1    0.0000
     20 H8         9.1418   -0.4933    3.0198 H         1 RES1    0.0000
     21 C11        9.2839    1.4789    2.4992 C.ar      1 RES1    0.0000
     22 H9         9.7319    1.3253    1.6640 H         1 RES1    0.0000
     23 C12        8.9732    2.7632    2.9010 C.ar      1 RES1    0.0000
     24 H10        9.2199    3.5198    2.3635 H         1 RES1    0.0000
     25 C13       10.2928    5.7801    5.7462 C.ar      1 RES1    0.0000
     26 C14       10.5652    4.6142    6.4467 C.ar      1 RES1    0.0000
     27 H11       10.5686    3.7774    5.9755 H         1 RES1    0.0000
     28 C15       10.8215    4.6562    7.8068 C.ar      1 RES1    0.0000
     29 H12       11.0026    3.8499    8.2959 H         1 RES1    0.0000
     30 C16       10.8075    5.8574    8.4368 C.ar      1 RES1    0.0000
     31 C17       10.5321    7.0291    7.7941 C.ar      1 RES1    0.0000
     32 H13       10.5062    7.8554    8.2811 H         1 RES1    0.0000
     33 C18       10.2734    6.9871    6.4352 C.ar      1 RES1    0.0000
     34 H14       10.0769    7.7991    5.9618 H         1 RES1    0.0000
     35 N1        11.1207    5.8879    9.8810 N.pl3     1 RES1    0.0000
     36 O3        11.4465    4.8308   10.4285 O.2       1 RES1    0.0000
     37 O4        11.0685    6.9661   10.4561 O.2       1 RES1    0.0000
     38 H15        7.2591    6.5167    4.9962 H         1 RES1    0.0000
@<TRIPOS>BOND
     1    1    2 2
     2    2    3 1
     3    3    4 1
     4    5    3 1
     5    6    3 1
     6    7    6 2
     7    8    7 1
     8    9    7 1
     9   10    9 1
    10   11    9 2
    11   12   11 1
    12   13   11 1
    13   14    2 1
    14   15   14 ar
    15   16   15 1
    16   17   15 ar
    17   18   17 1
    18   19   17 ar
    19   20   19 1
    20   21   19 ar
    21   22   21 1
    22   23   14 ar
    23   24   23 1
    24   25    6 1
    25   26   25 ar
    26   27   26 1
    27   28   26 ar
    28   29   28 1
    29   30   28 ar
    30   31   30 ar
    31   32   31 1
    32   33   25 ar
    33   34   33 1
    34   35   30 1
    35   36   35 2
    36   37   35 2
    37   38    5 1
    38   21   23 ar
    39   31   33 ar
@<TRIPOS>SUBSTRUCTURE
     1 RES1 1

@<TRIPOS>CRYSIN
  15.6110    9.5413   10.5184  90.0000  90.0000  90.0000  33 1

