# MOL2 file generated by ConQuest
# Please check atom types

@<TRIPOS>MOLECULE
EXEPIG
    40    43     1
SMALL
NO_CHARGES
****
Generated from CSD

@<TRIPOS>ATOM
      1 O1         3.7047    2.4065    2.7223 O.3       1 RES1    0.0000
      2 O2         4.3379    3.8661    1.1837 O.2       1 RES1    0.0000
      3 O3         6.6254   -0.2550    1.6993 O.3       1 RES1    0.0000
      4 O4         9.1650    0.1621   -1.4736 O.3       1 RES1    0.0000
      5 O5         8.2845    2.1188   -2.0419 O.2       1 RES1    0.0000
      6 O6         9.9301    7.6368    1.6363 O.2       1 RES1    0.0000
      7 O7        10.7898    6.2932    3.0441 O.2       1 RES1    0.0000
      8 N1        10.0264    6.5401    2.1358 N.pl3     1 RES1    0.0000
      9 C1         4.5630    2.7951    1.6958 C.2       1 RES1    0.0000
     10 C2         5.6167    1.8846    1.3420 C.2       1 RES1    0.0000
     11 C3         5.6919    0.7103    1.9923 C.2       1 RES1    0.0000
     12 C4         4.7948    0.3487    3.0321 C.2       1 RES1    0.0000
     13 H1         4.8761   -0.4687    3.4674 H         1 RES1    0.0000
     14 C5         3.8365    1.2061    3.3683 C.2       1 RES1    0.0000
     15 C6         2.7794    1.0137    4.3974 C.3       1 RES1    0.0000
     16 H2         1.9224    0.9558    3.9683 H         1 RES1    0.0000
     17 H3         2.7845    1.7582    5.0039 H         1 RES1    0.0000
     18 H4         2.9491    0.2032    4.8838 H         1 RES1    0.0000
     19 C7         8.2787    1.2216   -1.2476 C.2       1 RES1    0.0000
     20 C8         7.4445    1.1210   -0.0767 C.2       1 RES1    0.0000
     21 C9         7.4626   -0.0222    0.6342 C.2       1 RES1    0.0000
     22 C10        8.3455   -1.0917    0.3346 C.2       1 RES1    0.0000
     23 H5         8.3436   -1.8667    0.8479 H         1 RES1    0.0000
     24 C11        9.1780   -0.9622   -0.6990 C.2       1 RES1    0.0000
     25 C12       10.1842   -1.9463   -1.1794 C.3       1 RES1    0.0000
     26 H6        10.3120   -2.6240   -0.5117 H         1 RES1    0.0000
     27 H7        11.0164   -1.4973   -1.3435 H         1 RES1    0.0000
     28 H8         9.8726   -2.3515   -1.9916 H         1 RES1    0.0000
     29 C13        6.6016    2.3188    0.2862 C.3       1 RES1    0.0000
     30 H9         6.1083    2.6136   -0.5077 H         1 RES1    0.0000
     31 C14        7.4972    3.4626    0.7684 C.ar      1 RES1    0.0000
     32 C15        7.7915    4.5437   -0.0531 C.ar      1 RES1    0.0000
     33 H10        7.4323    4.5807   -0.9101 H         1 RES1    0.0000
     34 C16        8.6087    5.5620    0.3858 C.ar      1 RES1    0.0000
     35 H11        8.7802    6.3019   -0.1512 H         1 RES1    0.0000
     36 C17        9.1667    5.4565    1.6447 C.ar      1 RES1    0.0000
     37 C18        8.9109    4.3946    2.4742 C.ar      1 RES1    0.0000
     38 H12        9.3033    4.3440    3.3162 H         1 RES1    0.0000
     39 C19        8.0620    3.4056    2.0345 C.ar      1 RES1    0.0000
     40 H13        7.8639    2.6886    2.5938 H         1 RES1    0.0000
@<TRIPOS>BOND
     1    1    9 1
     2    2    9 2
     3    3   11 1
     4    4   19 1
     5    5   19 2
     6    6    8 2
     7    7    8 2
     8    8   36 1
     9    9   10 1
    10   10   11 2
    11   11   12 1
    12   12   13 1
    13   14    1 1
    14   15   14 1
    15   16   15 1
    16   17   15 1
    17   18   15 1
    18   19   20 1
    19   20   21 2
    20   21    3 1
    21   22   21 1
    22   23   22 1
    23   24    4 1
    24   25   24 1
    25   26   25 1
    26   27   25 1
    27   28   25 1
    28   29   10 1
    29   30   29 1
    30   31   29 1
    31   32   31 ar
    32   33   32 1
    33   34   32 ar
    34   35   34 1
    35   36   34 ar
    36   37   36 ar
    37   38   37 1
    38   39   31 ar
    39   40   39 1
    40   12   14 2
    41   20   29 1
    42   22   24 2
    43   37   39 ar
@<TRIPOS>SUBSTRUCTURE
     1 RES1 1

@<TRIPOS>CRYSIN
  10.6690   11.5440   14.0450  90.0000 105.9800  90.0000  14 1

