# MOL2 file generated by ConQuest
# Please check atom types

@<TRIPOS>MOLECULE
EXEYUD
    50    53     1
SMALL
NO_CHARGES
****
Generated from CSD

@<TRIPOS>ATOM
      1 C1         7.4754    4.0729    1.3759 C.3       1 RES1    0.0000
      2 H1         6.8281    3.3136    1.4443 H         1 RES1    0.0000
      3 C2         7.3115    4.7236   -0.0085 C.3       1 RES1    0.0000
      4 H2         7.2794    3.9898   -0.6868 H         1 RES1    0.0000
      5 C3         8.4398    5.6850   -0.4166 C.3       1 RES1    0.0000
      6 H3         8.7325    6.2386    0.3506 H         1 RES1    0.0000
      7 H4         9.2192    5.1899   -0.7736 H         1 RES1    0.0000
      8 C4         7.7930    6.5378   -1.4925 C.3       1 RES1    0.0000
      9 H5         7.6877    6.0347   -2.3377 H         1 RES1    0.0000
     10 H6         8.3168    7.3603   -1.6646 H         1 RES1    0.0000
     11 C5         6.4449    6.8578   -0.8653 C.3       1 RES1    0.0000
     12 H7         5.7879    7.1145   -1.5609 H         1 RES1    0.0000
     13 H8         6.5295    7.6007   -0.2163 H         1 RES1    0.0000
     14 C6         6.0071    5.5596   -0.1560 C.3       1 RES1    0.0000
     15 C7         5.2448    5.8538    1.1184 C.ar      1 RES1    0.0000
     16 C8         3.9827    6.4438    1.0284 C.ar      1 RES1    0.0000
     17 H9         3.6030    6.6079    0.1737 H         1 RES1    0.0000
     18 C9         3.2786    6.7935    2.1656 C.ar      1 RES1    0.0000
     19 H10        2.4272    7.2100    2.0925 H         1 RES1    0.0000
     20 C10        3.8232    6.5324    3.4129 C.ar      1 RES1    0.0000
     21 H11        3.3400    6.7592    4.1994 H         1 RES1    0.0000
     22 C11        5.0648    5.9433    3.5114 C.ar      1 RES1    0.0000
     23 H12        5.4250    5.7545    4.3707 H         1 RES1    0.0000
     24 C12        5.8046    5.6185    2.3738 C.ar      1 RES1    0.0000
     25 C13        7.1883    5.0455    2.5034 C.3       1 RES1    0.0000
     26 H13        7.2717    4.5781    3.3719 H         1 RES1    0.0000
     27 H14        7.8534    5.7792    2.4841 H         1 RES1    0.0000
     28 C14        8.8726    3.5141    1.4954 C.2       1 RES1    0.0000
     29 C15       10.2371    1.6581    1.0462 C.3       1 RES1    0.0000
     30 H15       10.8394    2.1135    0.4214 H         1 RES1    0.0000
     31 H16       10.1598    0.7138    0.7961 H         1 RES1    0.0000
     32 H17       10.5974    1.7260    1.9549 H         1 RES1    0.0000
     33 C16        4.5621    3.7223   -0.8465 C.2       1 RES1    0.0000
     34 C17        3.3216    3.4409   -1.6251 C.ar      1 RES1    0.0000
     35 C18        2.9516    2.1050   -1.7978 C.ar      1 RES1    0.0000
     36 H18        3.5002    1.4126   -1.4467 H         1 RES1    0.0000
     37 C19        1.7949    1.7888   -2.4766 C.ar      1 RES1    0.0000
     38 H19        1.5382    0.8834   -2.6087 H         1 RES1    0.0000
     39 C20        1.0193    2.8240   -2.9594 C.ar      1 RES1    0.0000
     40 C21        1.3413    4.1528   -2.7849 C.ar      1 RES1    0.0000
     41 H20        0.7775    4.8410   -3.1170 H         1 RES1    0.0000
     42 C22        2.5128    4.4556   -2.1102 C.ar      1 RES1    0.0000
     43 H21        2.7634    5.3627   -1.9799 H         1 RES1    0.0000
     44 N1        -0.2028    2.4936   -3.7079 N.pl3     1 RES1    0.0000
     45 O1         9.8215    4.0811    1.9602 O.2       1 RES1    0.0000
     46 O2         8.9363    2.2773    0.9977 O.3       1 RES1    0.0000
     47 O3         5.0420    2.9404   -0.0699 O.2       1 RES1    0.0000
     48 O4         5.0528    4.9475   -1.1086 O.3       1 RES1    0.0000
     49 O5        -0.7427    3.3824   -4.3580 O.2       1 RES1    0.0000
     50 O6        -0.6229    1.3480   -3.6535 O.2       1 RES1    0.0000
@<TRIPOS>BOND
     1    1    2 1
     2    3    1 1
     3    4    3 1
     4    5    3 1
     5    6    5 1
     6    7    5 1
     7    8    5 1
     8    9    8 1
     9   10    8 1
    10   11    8 1
    11   12   11 1
    12   13   11 1
    13   14    3 1
    14   15   14 1
    15   16   15 ar
    16   17   16 1
    17   18   16 ar
    18   19   18 1
    19   20   18 ar
    20   21   20 1
    21   22   20 ar
    22   23   22 1
    23   24   15 ar
    24   25    1 1
    25   26   25 1
    26   27   25 1
    27   28    1 1
    28   29   30 1
    29   31   29 1
    30   32   29 1
    31   33   34 1
    32   34   35 ar
    33   35   36 1
    34   37   35 ar
    35   38   37 1
    36   39   37 ar
    37   40   39 ar
    38   41   40 1
    39   42   34 ar
    40   43   42 1
    41   44   39 1
    42   45   28 2
    43   46   28 1
    44   47   33 2
    45   48   14 1
    46   49   44 2
    47   50   44 2
    48   11   14 1
    49   22   24 ar
    50   24   25 1
    51   29   46 1
    52   33   48 1
    53   40   42 ar
@<TRIPOS>SUBSTRUCTURE
     1 RES1 1

@<TRIPOS>CRYSIN
  21.1730   10.7340    8.0449  90.0000  91.6030  90.0000  14 1

