# MOL2 file generated by ConQuest
# Please check atom types

@<TRIPOS>MOLECULE
EXIFOG
    25    25     1
SMALL
NO_CHARGES
****
Generated from CSD

@<TRIPOS>ATOM
      1 C1         3.1603    0.5472    6.4260 C.3       1 RES1    0.0000
      2 C2         3.7075    0.0000    4.2500 C.2       1 RES1    0.0000
      3 N1         2.9441    0.7634    4.9972 N.2       1 RES1    0.0000
      4 O1         2.1177    1.5898    4.5089 O.2       1 RES1    0.0000
      5 C3         3.7075    0.0000    2.8647 C.2       1 RES1    0.0000
      6 N2         3.7075    0.0000    1.7375 N.2       1 RES1    0.0000
      7 C4         3.5740    1.8597    7.0319 C.3       1 RES1    0.0000
      8 H1         4.0412    1.8018    7.8026 H         1 RES1    0.0000
      9 H2         2.8325    2.2616    6.9308 H         1 RES1    0.0000
     10 H3         4.2488    2.3283    6.2682 H         1 RES1    0.0000
     11 C1A        4.2547   -0.5472    6.4260 C.3       1 RES1    0.0000
     12 N1A        4.4709   -0.7634    4.9972 N.2       1 RES1    0.0000
     13 C4E        1.8478    0.1335    7.0319 C.3       1 RES1    0.0000
     14 H1E        1.9057   -0.3337    7.8026 H         1 RES1    0.0000
     15 H2E        1.4459    0.8750    6.9308 H         1 RES1    0.0000
     16 H3E        1.3792   -0.5413    6.2682 H         1 RES1    0.0000
     17 O1A        5.2973   -1.5898    4.5089 O.2       1 RES1    0.0000
     18 C4A        3.8410   -1.8597    7.0319 C.3       1 RES1    0.0000
     19 H1A        3.3738   -1.8018    7.8026 H         1 RES1    0.0000
     20 H2A        4.5825   -2.2616    6.9308 H         1 RES1    0.0000
     21 H3A        3.1662   -2.3283    6.2682 H         1 RES1    0.0000
     22 C4D        5.5672   -0.1335    7.0319 C.3       1 RES1    0.0000
     23 H1D        5.5093    0.3337    7.8026 H         1 RES1    0.0000
     24 H2D        5.9691   -0.8750    6.9308 H         1 RES1    0.0000
     25 H3D        6.0358    0.5413    6.2682 H         1 RES1    0.0000
@<TRIPOS>BOND
     1    1    3 1
     2    2    3 1
     3    3    4 1
     4    5    2 1
     5    6    5 1
     6    7    1 1
     7    8    7 1
     8    9    7 1
     9   10    7 1
    10   11    1 1
    11   12    2 1
    12   13    1 1
    13   14   13 1
    14   15   13 1
    15   16   13 1
    16   17   12 1
    17   18   11 1
    18   19   18 1
    19   20   18 1
    20   21   18 1
    21   22   11 1
    22   23   22 1
    23   24   22 1
    24   25   22 1
    25   11   12 1
@<TRIPOS>SUBSTRUCTURE
     1 RES1 1

@<TRIPOS>CRYSIN
   7.4150    7.4150    8.7180  90.0000  90.0000  90.0000 113 1

