# MOL2 file generated by ConQuest
# Please check atom types

@<TRIPOS>MOLECULE
EXIFEW
    28    28     1
SMALL
USER_CHARGES
****
Generated from CSD

@<TRIPOS>ATOM
      1 O1         4.1479    5.1822    2.7841 O.2       1 RES1    0.0000
      2 N1         4.5927    4.0173    3.0307 N.pl3     1 RES1    0.0000
      3 C1         3.9438    2.7845    2.4435 C.3       1 RES1    0.0000
      4 C2         3.5330    2.9847    1.0158 C.3       1 RES1    0.0000
      5 H1         4.2717    3.3704    0.4365 H         1 RES1    0.0000
      6 H2         2.6936    3.5513    0.9390 H         1 RES1    0.0000
      7 H3         3.1425    2.2168    0.6613 H         1 RES1    0.0000
      8 C3         2.7140    2.5425    3.3634 C.3       1 RES1    0.0000
      9 H4         3.0745    2.3751    4.3910 H         1 RES1    0.0000
     10 H5         2.2447    3.3478    3.3462 H         1 RES1    0.0000
     11 H6         2.1494    1.7870    3.0552 H         1 RES1    0.0000
     12 C4         5.0620    1.7451    2.6717 C.3       1 RES1    0.0000
     13 C5         6.0932    1.7101    1.5494 C.3       1 RES1    0.0000
     14 H7         6.3939    2.6239    1.4020 H         1 RES1    0.0000
     15 H8         5.6729    1.3120    0.6481 H         1 RES1    0.0000
     16 H9         6.7204    1.1197    1.8318 H         1 RES1    0.0000
     17 C6         4.5900    0.3416    2.9911 C.3       1 RES1    0.0000
     18 H10        4.1356    0.4637    3.9810 H         1 RES1    0.0000
     19 H11        3.9588    0.0452    2.1691 H         1 RES1    0.0000
     20 H12        5.3328   -0.2262    3.1081 H         1 RES1    0.0000
     21 N2         5.7667    2.3604    3.8342 N.pl3     1 RES1    1.0000
     22 O2         6.5830    1.6694    4.5636 O.2       1 RES1   -1.0000
     23 C7         5.5545    3.6859    3.9195 C.2       1 RES1    0.0000
     24 C8         6.2470    4.6281    4.8401 C.2       1 RES1    0.0000
     25 O3         5.9599    5.8201    4.8533 O.2       1 RES1    0.0000
     26 N3         7.1557    4.0739    5.6197 N.am      1 RES1    0.0000
     27 H13        7.2781    3.2234    5.4293 H         1 RES1    0.0000
     28 H14        7.4958    4.5579    6.1567 H         1 RES1    0.0000
@<TRIPOS>BOND
     1    1    2 1
     2    2    3 1
     3    3    4 1
     4    4    5 1
     5    6    4 1
     6    7    4 1
     7    8    3 1
     8    9    8 1
     9   10    8 1
    10   11    8 1
    11   12    3 1
    12   13   12 1
    13   14   13 1
    14   15   13 1
    15   16   13 1
    16   17   12 1
    17   18   17 1
    18   19   17 1
    19   20   17 1
    20   21   12 1
    21   22   21 1
    22   23    2 1
    23   24   23 1
    24   25   24 2
    25   26   24 1
    26   27   26 1
    27   28   26 1
    28   21   23 2
@<TRIPOS>SUBSTRUCTURE
     1 RES1 1

@<TRIPOS>CRYSIN
  13.6040   11.3100    6.6130  90.0000  90.0000  90.0000  33 1

