# MOL2 file generated by ConQuest
# Please check atom types

@<TRIPOS>MOLECULE
EXOBDO01
    47    51     1
SMALL
NO_CHARGES
****
Generated from CSD

@<TRIPOS>ATOM
      1 C1         8.4100    5.2298    4.2729 C.3       1 RES1    0.0000
      2 C2         7.0300    4.5689    4.4658 C.3       1 RES1    0.0000
      3 C3         5.7617    5.4513    4.4007 C.3       1 RES1    0.0000
      4 C4         4.6054    4.5397    4.8151 C.3       1 RES1    0.0000
      5 C5         4.4609    3.5685    3.6107 C.3       1 RES1    0.0000
      6 C6         5.5316    4.0851    2.6141 C.3       1 RES1    0.0000
      7 C7         6.8967    3.6511    3.1943 C.3       1 RES1    0.0000
      8 C8         8.2092    3.9395    2.4261 C.3       1 RES1    0.0000
      9 C9         9.3276    3.2310    3.2261 C.3       1 RES1    0.0000
     10 C10        9.4659    4.1214    4.4978 C.3       1 RES1    0.0000
     11 C11        8.5504    5.4032    2.7483 C.3       1 RES1    0.0000
     12 C12        5.4477    5.5947    2.9016 C.3       1 RES1    0.0000
     13 C13        1.1738    5.7908    5.4458 C.ar      1 RES1    0.0000
     14 C14        0.0128    5.4227    6.1255 C.ar      1 RES1    0.0000
     15 C15       -1.1136    6.2240    5.9979 C.ar      1 RES1    0.0000
     16 C16       -1.1344    7.3727    5.2243 C.ar      1 RES1    0.0000
     17 C17        0.0389    7.6994    4.5675 C.ar      1 RES1    0.0000
     18 C18        1.1995    6.9437    4.6619 C.ar      1 RES1    0.0000
     19 C19        2.3519    4.8665    5.5100 C.2       1 RES1    0.0000
     20 N1        -2.3574    5.8305    6.6748 N.pl3     1 RES1    0.0000
     21 N2         0.0432    8.8881    3.7023 N.pl3     1 RES1    0.0000
     22 O1         3.4241    5.3936    4.9287 O.3       1 RES1    0.0000
     23 O2         2.3009    3.7663    6.0147 O.2       1 RES1    0.0000
     24 O3        -2.3505    4.7856    7.3115 O.2       1 RES1    0.0000
     25 O4        -3.3234    6.5613    6.5461 O.2       1 RES1    0.0000
     26 O5        -0.9360    9.6165    3.7329 O.2       1 RES1    0.0000
     27 O6         1.0255    9.0822    3.0004 O.2       1 RES1    0.0000
     28 H1         8.5626    6.1224    4.8913 H         1 RES1    0.0000
     29 H2         7.0341    4.0037    5.4120 H         1 RES1    0.0000
     30 H3         5.8199    6.3751    5.0020 H         1 RES1    0.0000
     31 H4         4.7492    4.0370    5.7736 H         1 RES1    0.0000
     32 H5         3.4558    3.6378    3.1864 H         1 RES1    0.0000
     33 H6         4.6256    2.5207    3.9073 H         1 RES1    0.0000
     34 H7         5.3351    3.7800    1.5828 H         1 RES1    0.0000
     35 H8         6.8530    2.5834    3.4455 H         1 RES1    0.0000
     36 H9         8.1815    3.6732    1.3644 H         1 RES1    0.0000
     37 H10       10.2688    3.2056    2.6597 H         1 RES1    0.0000
     38 H11        9.0772    2.1916    3.4602 H         1 RES1    0.0000
     39 H12       10.4689    4.5664    4.5416 H         1 RES1    0.0000
     40 H13        9.3011    3.5726    5.4339 H         1 RES1    0.0000
     41 H14        7.8974    6.1499    2.3019 H         1 RES1    0.0000
     42 H15        9.5793    5.6485    2.4620 H         1 RES1    0.0000
     43 H16        6.1450    6.2153    2.3415 H         1 RES1    0.0000
     44 H17        4.4305    5.9905    2.7404 H         1 RES1    0.0000
     45 H18       -0.0103    4.5065    6.7206 H         1 RES1    0.0000
     46 H19       -2.0341    7.9806    5.1269 H         1 RES1    0.0000
     47 H20        2.0967    7.2470    4.1309 H         1 RES1    0.0000
@<TRIPOS>BOND
     1    1    2 1
     2    2    3 1
     3    3    4 1
     4    4    5 1
     5    5    6 1
     6    6    7 1
     7    7    2 1
     8    8    7 1
     9    9    8 1
    10   10    1 1
    11   11    1 1
    12   12    3 1
    13   13   14 ar
    14   14   15 ar
    15   15   16 ar
    16   16   17 ar
    17   17   18 ar
    18   18   13 ar
    19   19   13 1
    20   20   15 1
    21   21   17 1
    22   22    4 1
    23   23   19 2
    24   24   20 2
    25   25   20 2
    26   26   21 2
    27   27   21 2
    28   28    1 1
    29   29    2 1
    30   30    3 1
    31   31    4 1
    32   32    5 1
    33   33    5 1
    34   34    6 1
    35   35    7 1
    36   36    8 1
    37   37    9 1
    38   38    9 1
    39   39   10 1
    40   40   10 1
    41   41   11 1
    42   42   11 1
    43   43   12 1
    44   44   12 1
    45   45   14 1
    46   46   16 1
    47   47   18 1
    48    6   12 1
    49    8   11 1
    50    9   10 1
    51   19   22 1
@<TRIPOS>SUBSTRUCTURE
     1 RES1 1

@<TRIPOS>CRYSIN
  13.8880    5.7940   10.7240  90.0000 101.8900  90.0000   7 1

