# MOL2 file generated by ConQuest
# Please check atom types

@<TRIPOS>MOLECULE
EXOYAT
    35    36     1
SMALL
NO_CHARGES
****
Generated from CSD

@<TRIPOS>ATOM
      1 O1         6.1655    3.4834   13.5117 O.2       1 RES1    0.0000
      2 O2         5.0503    3.9039   15.3033 O.2       1 RES1    0.0000
      3 O3         4.1945    0.8099   11.2513 O.2       1 RES1    0.0000
      4 N1         5.4169    3.1429   14.4175 N.pl3     1 RES1    0.0000
      5 C1         2.5758    2.1602   14.9744 C.3       1 RES1    0.0000
      6 H1         1.6509    1.8343   14.8426 H         1 RES1    0.0000
      7 H2         2.5553    3.1443   15.0832 H         1 RES1    0.0000
      8 C2         4.8807    1.7352   14.3985 C.3       1 RES1    0.0000
      9 H3         5.4794    1.1310   13.8726 H         1 RES1    0.0000
     10 C3         3.4642    1.7641   13.7980 C.3       1 RES1    0.0000
     11 H4         3.2300    0.8198   13.5669 H         1 RES1    0.0000
     12 C4         3.4470    2.7113    9.9996 C.3       1 RES1    0.0000
     13 H5         2.4890    2.9589    9.9678 H         1 RES1    0.0000
     14 H6         3.9688    3.5510   10.0530 H         1 RES1    0.0000
     15 C5         4.6828    1.2084   15.8168 C.3       1 RES1    0.0000
     16 H7         5.2961    1.6681   16.4442 H         1 RES1    0.0000
     17 H8         4.8666    0.2359   15.8527 H         1 RES1    0.0000
     18 C6         3.2183    1.4913   16.1965 C.3       1 RES1    0.0000
     19 H9         2.7486    0.6481   16.4166 H         1 RES1    0.0000
     20 H10        3.1748    2.0913   16.9830 H         1 RES1    0.0000
     21 C7         2.9577    1.0547    8.1589 C.ar      1 RES1    0.0000
     22 H11        2.1368    0.8492    8.5893 H         1 RES1    0.0000
     23 C8         3.8017    2.0107    8.7153 C.ar      1 RES1    0.0000
     24 C9         3.2565    2.5887   12.5383 C.3       1 RES1    0.0000
     25 H12        2.2958    2.8138   12.4641 H         1 RES1    0.0000
     26 H13        3.7557    3.4390   12.6320 H         1 RES1    0.0000
     27 C10        3.6928    1.9137   11.2608 C.2       1 RES1    0.0000
     28 C11        5.3289    1.6518    6.8847 C.ar      1 RES1    0.0000
     29 H14        6.1431    1.8646    6.4438 H         1 RES1    0.0000
     30 C12        4.9890    2.2992    8.0607 C.ar      1 RES1    0.0000
     31 H15        5.5777    2.9506    8.4238 H         1 RES1    0.0000
     32 C13        3.2953    0.4003    6.9905 C.ar      1 RES1    0.0000
     33 H16        2.7099   -0.2534    6.6268 H         1 RES1    0.0000
     34 C14        4.4836    0.6952    6.3521 C.ar      1 RES1    0.0000
     35 H17        4.7197    0.2433    5.5516 H         1 RES1    0.0000
@<TRIPOS>BOND
     1    1    4 2
     2    2    4 2
     3    3   27 2
     4    4    8 1
     5    5    6 1
     6    7    5 1
     7    8    9 1
     8   10    5 1
     9   11   10 1
    10   12   13 1
    11   14   12 1
    12   15    8 1
    13   16   15 1
    14   17   15 1
    15   18    5 1
    16   19   18 1
    17   20   18 1
    18   21   22 1
    19   23   12 1
    20   24   10 1
    21   25   24 1
    22   26   24 1
    23   27   12 1
    24   28   29 1
    25   30   23 ar
    26   31   30 1
    27   32   21 ar
    28   33   32 1
    29   34   28 ar
    30   35   34 1
    31    8   10 1
    32   15   18 1
    33   21   23 ar
    34   24   27 1
    35   28   30 ar
    36   32   34 ar
@<TRIPOS>SUBSTRUCTURE
     1 RES1 1

@<TRIPOS>CRYSIN
  11.0428    9.1805   25.0635  90.0000  90.0000  90.0000  61 1

