# MOL2 file generated by ConQuest
# Please check atom types

@<TRIPOS>MOLECULE
EXPCIZ
    65    69     1
SMALL
NO_CHARGES
****
Generated from CSD

@<TRIPOS>ATOM
      1 O1         4.2125   12.1676    1.7723 O.3       1 RES1    0.0000
      2 O2         0.6554    9.7937    2.8521 O.2       1 RES1    0.0000
      3 N1         3.6799   11.5363    0.6206 N.2       1 RES1    0.0000
      4 C1         2.4304   11.3161    0.7926 C.2       1 RES1    0.0000
      5 C2         1.8611   11.7874    2.1393 C.3       1 RES1    0.0000
      6 C3         1.5857   10.5571    3.0162 C.2       1 RES1    0.0000
      7 C4         2.5722   10.4705    4.0907 C.2       1 RES1    0.0000
      8 C5         3.4550   11.4644    3.9781 C.2       1 RES1    0.0000
      9 C6         3.1587   12.3746    2.7919 C.3       1 RES1    0.0000
     10 C7         1.6222   10.6555   -0.2757 C.ar      1 RES1    0.0000
     11 C8         0.9018   11.3939   -1.2146 C.ar      1 RES1    0.0000
     12 C9         0.1350   10.6951   -2.1349 C.ar      1 RES1    0.0000
     13 C10        0.0133    9.3283   -2.1650 C.ar      1 RES1    0.0000
     14 C11        0.8128    8.6383   -1.2864 C.ar      1 RES1    0.0000
     15 C12        1.6177    9.2373   -0.3351 C.ar      1 RES1    0.0000
     16 C13        0.5933   12.6345    2.0321 C.3       1 RES1    0.0000
     17 C14       -0.1010   12.9149    3.3850 C.3       1 RES1    0.0000
     18 C15        2.5134    9.3327    5.0926 C.3       1 RES1    0.0000
     19 C16        3.6466    8.3388    5.0057 C.3       1 RES1    0.0000
     20 C17        4.6217   11.7389    4.8594 C.ar      1 RES1    0.0000
     21 C18        5.9187   11.9401    4.3248 C.ar      1 RES1    0.0000
     22 C19        6.9769   12.1250    5.1794 C.ar      1 RES1    0.0000
     23 C20        6.7922   12.1559    6.5528 C.ar      1 RES1    0.0000
     24 C21        5.5217   11.9900    7.0741 C.ar      1 RES1    0.0000
     25 C22        4.4638   11.7580    6.2371 C.ar      1 RES1    0.0000
     26 C23        3.1142   13.8589    3.0773 C.ar      1 RES1    0.0000
     27 C24        2.9649   14.3844    4.3345 C.ar      1 RES1    0.0000
     28 C25        2.9075   15.7542    4.5446 C.ar      1 RES1    0.0000
     29 C26        3.0151   16.5954    3.4533 C.ar      1 RES1    0.0000
     30 C27        3.1600   16.1300    2.2023 C.ar      1 RES1    0.0000
     31 C28        3.2248   14.7441    1.9948 C.ar      1 RES1    0.0000
     32 C29        1.0278   12.8914   -1.3210 C.3       1 RES1    0.0000
     33 C30       -0.8623    8.6163   -3.1740 C.3       1 RES1    0.0000
     34 C31        2.4963    8.4063    0.5727 C.3       1 RES1    0.0000
     35 H1        -0.5712   11.1135   -2.7927 H         1 RES1    0.0000
     36 H2         0.7879    7.7516   -1.2235 H         1 RES1    0.0000
     37 H3         6.0127   11.9650    3.2538 H         1 RES1    0.0000
     38 H4         7.8990   12.3174    4.7964 H         1 RES1    0.0000
     39 H5         7.7183   12.4935    7.0750 H         1 RES1    0.0000
     40 H6         5.3333   11.9357    8.1123 H         1 RES1    0.0000
     41 H7         3.6196   11.5393    6.5962 H         1 RES1    0.0000
     42 H8         2.8920   13.6827    5.1422 H         1 RES1    0.0000
     43 H9         2.8531   16.1491    5.3638 H         1 RES1    0.0000
     44 H10        3.2343   17.4998    3.6793 H         1 RES1    0.0000
     45 H11        2.9990   16.6923    1.4895 H         1 RES1    0.0000
     46 H12        3.2914   14.3580    1.0373 H         1 RES1    0.0000
     47 H13        0.7976   13.4772    1.7643 H         1 RES1    0.0000
     48 H14        0.0371   12.0971    1.3476 H         1 RES1    0.0000
     49 H15       -0.8993   13.5946    3.1562 H         1 RES1    0.0000
     50 H16       -0.5837   12.1118    3.7680 H         1 RES1    0.0000
     51 H17        0.5850   13.4625    3.9630 H         1 RES1    0.0000
     52 H18        2.6609    9.6601    6.0022 H         1 RES1    0.0000
     53 H19        1.5903    8.7792    4.9117 H         1 RES1    0.0000
     54 H20        3.6137    7.9865    4.2290 H         1 RES1    0.0000
     55 H21        3.4090    7.6928    5.6742 H         1 RES1    0.0000
     56 H22        4.6283    8.9260    5.2929 H         1 RES1    0.0000
     57 H23        0.3796   13.3744   -0.7802 H         1 RES1    0.0000
     58 H24        0.9000   13.1395   -2.2785 H         1 RES1    0.0000
     59 H25        1.9838   13.2569   -0.8955 H         1 RES1    0.0000
     60 H26       -0.5632    8.4416   -3.9896 H         1 RES1    0.0000
     61 H27       -1.7756    8.9554   -3.2449 H         1 RES1    0.0000
     62 H28       -0.6427    7.6928   -3.0853 H         1 RES1    0.0000
     63 H29        2.9376    8.7646    1.3033 H         1 RES1    0.0000
     64 H30        2.8724    7.7809    0.0532 H         1 RES1    0.0000
     65 H31        2.1250    7.6488    1.2590 H         1 RES1    0.0000
@<TRIPOS>BOND
     1    1    3 1
     2    2    6 2
     3    3    4 2
     4    4    5 1
     5    5    6 1
     6    6    7 1
     7    7    8 2
     8    8    9 1
     9    9    1 1
    10   10    4 1
    11   11   10 ar
    12   12   11 ar
    13   13   12 ar
    14   14   13 ar
    15   15   10 ar
    16   16    5 1
    17   17   16 1
    18   18    7 1
    19   19   18 1
    20   20    8 1
    21   21   20 ar
    22   22   21 ar
    23   23   22 ar
    24   24   23 ar
    25   25   20 ar
    26   26    9 1
    27   27   26 ar
    28   28   27 ar
    29   29   28 ar
    30   30   29 ar
    31   31   26 ar
    32   32   11 1
    33   33   13 1
    34   34   15 1
    35   35   12 1
    36   36   14 1
    37   37   21 1
    38   38   22 1
    39   39   23 1
    40   40   24 1
    41   41   25 1
    42   42   27 1
    43   43   28 1
    44   44   29 1
    45   45   30 1
    46   46   31 1
    47   47   16 1
    48   48   16 1
    49   49   17 1
    50   50   17 1
    51   51   17 1
    52   52   18 1
    53   53   18 1
    54   54   19 1
    55   55   19 1
    56   56   19 1
    57   57   32 1
    58   58   32 1
    59   59   32 1
    60   60   33 1
    61   61   33 1
    62   62   33 1
    63   63   34 1
    64   64   34 1
    65   65   34 1
    66    5    9 1
    67   14   15 ar
    68   24   25 ar
    69   30   31 ar
@<TRIPOS>SUBSTRUCTURE
     1 RES1 1

@<TRIPOS>CRYSIN
  19.4400   14.6810    8.9000  90.0000  95.0200  90.0000 231 1

