# MOL2 file generated by ConQuest
# Please check atom types

@<TRIPOS>MOLECULE
EYALAS
    66    69     1
SMALL
NO_CHARGES
****
Generated from CSD

@<TRIPOS>ATOM
      1 C1        -1.7016    1.7770    0.6807 C.ar      1 RES1    0.0000
      2 H1        -1.6062    2.6581    0.3978 H         1 RES1    0.0000
      3 C2        -0.6627    1.1416    1.3718 C.ar      1 RES1    0.0000
      4 C3        -0.7924   -0.2103    1.7628 C.ar      1 RES1    0.0000
      5 C4        -2.0372   -0.8575    1.5136 C.ar      1 RES1    0.0000
      6 H2        -2.1679   -1.7311    1.8053 H         1 RES1    0.0000
      7 C5        -3.0407   -0.2128    0.8517 C.ar      1 RES1    0.0000
      8 H3        -3.8463   -0.6478    0.6868 H         1 RES1    0.0000
      9 C6        -2.8558    1.0976    0.4250 C.ar      1 RES1    0.0000
     10 C7         0.5305    1.8837    1.6938 C.2       1 RES1    0.0000
     11 H4         0.5797    2.7921    1.5010 H         1 RES1    0.0000
     12 C8         2.7711    1.9625    2.6485 C.3       1 RES1    0.0000
     13 H5         2.6357    2.9217    2.6009 H         1 RES1    0.0000
     14 H6         3.4797    1.7298    2.0280 H         1 RES1    0.0000
     15 C9         3.1979    1.5785    4.0730 C.3       1 RES1    0.0000
     16 C10        2.1249    2.1158    5.0152 C.3       1 RES1    0.0000
     17 H7         1.9225    3.0322    4.7700 H         1 RES1    0.0000
     18 H8         1.3153    1.5933    4.8975 H         1 RES1    0.0000
     19 C11        2.5240    2.0773    6.4717 C.3       1 RES1    0.0000
     20 H9         2.6681    1.1578    6.7453 H         1 RES1    0.0000
     21 H10        1.8079    2.4434    7.0139 H         1 RES1    0.0000
     22 C12        3.8000    2.8833    6.6989 C.3       1 RES1    0.0000
     23 H11        4.0291    2.8591    7.6412 H         1 RES1    0.0000
     24 H12        3.6399    3.8084    6.4547 H         1 RES1    0.0000
     25 C13        4.9846    2.3429    5.8774 C.3       1 RES1    0.0000
     26 C14        4.5432    2.3069    4.3823 C.3       1 RES1    0.0000
     27 H13        4.3814    3.2444    4.1461 H         1 RES1    0.0000
     28 C15        5.7319    1.8757    3.5019 C.3       1 RES1    0.0000
     29 H14        6.0985    1.0393    3.8283 H         1 RES1    0.0000
     30 H15        5.4343    1.7423    2.5890 H         1 RES1    0.0000
     31 C16        6.7966    2.9565    3.5449 C.3       1 RES1    0.0000
     32 H16        7.6275    2.5886    3.2061 H         1 RES1    0.0000
     33 H17        6.5320    3.6781    2.9528 H         1 RES1    0.0000
     34 C17        7.0469    3.5286    4.9264 C.ar      1 RES1    0.0000
     35 C18        6.1957    3.2891    5.9957 C.ar      1 RES1    0.0000
     36 C19        6.5337    3.8196    7.2315 C.ar      1 RES1    0.0000
     37 H18        5.9909    3.6421    7.9642 H         1 RES1    0.0000
     38 C20        7.6599    4.6069    7.3998 C.ar      1 RES1    0.0000
     39 H19        7.8590    4.9469    8.2430 H         1 RES1    0.0000
     40 C21        8.4849    4.8923    6.3493 C.ar      1 RES1    0.0000
     41 C22        8.1866    4.3494    5.1270 C.ar      1 RES1    0.0000
     42 H20        8.7479    4.5244    4.4079 H         1 RES1    0.0000
     43 C23        9.7144    5.7635    6.5312 C.3       1 RES1    0.0000
     44 H21        9.7020    5.9812    7.4865 H         1 RES1    0.0000
     45 C24       10.9778    5.0425    6.3595 C.3       1 RES1    0.0000
     46 H22       11.0629    4.7589    5.4466 H         1 RES1    0.0000
     47 H23       10.9889    4.2743    6.9357 H         1 RES1    0.0000
     48 H24       11.7099    5.6214    6.5839 H         1 RES1    0.0000
     49 C25        9.6072    7.0639    5.8835 C.3       1 RES1    0.0000
     50 H25       10.3808    7.5919    6.0960 H         1 RES1    0.0000
     51 H26        8.8187    7.5125    6.1946 H         1 RES1    0.0000
     52 H27        9.5538    6.9442    4.9332 H         1 RES1    0.0000
     53 C26        5.4211    0.9884    6.4802 C.3       1 RES1    0.0000
     54 H28        6.0164    0.5441    5.8733 H         1 RES1    0.0000
     55 H29        4.6468    0.4399    6.6280 H         1 RES1    0.0000
     56 H30        5.8692    1.1398    7.3165 H         1 RES1    0.0000
     57 C27        3.3418    0.0366    4.1172 C.3       1 RES1    0.0000
     58 H31        3.6065   -0.2352    4.9995 H         1 RES1    0.0000
     59 H32        4.0073   -0.2414    3.4832 H         1 RES1    0.0000
     60 H33        2.5007   -0.3698    3.8963 H         1 RES1    0.0000
     61 N1         1.5416    1.2800    2.2584 N.2       1 RES1    0.0000
     62 N2        -3.9049    1.7547   -0.3366 N.pl3     1 RES1    0.0000
     63 O1        -3.7945    2.9497   -0.5559 O.2       1 RES1    0.0000
     64 O2        -4.8545    1.0970   -0.7097 O.2       1 RES1    0.0000
     65 O3         0.1690   -0.8612    2.3248 O.3       1 RES1    0.0000
     66 H34        0.8232   -0.3717    2.4003 H         1 RES1    0.0000
@<TRIPOS>BOND
     1    1    2 1
     2    3    1 ar
     3    4    3 ar
     4    5    4 ar
     5    6    5 1
     6    7    5 ar
     7    8    7 1
     8    9    1 ar
     9   10    3 1
    10   11   10 1
    11   12   13 1
    12   14   12 1
    13   15   12 1
    14   16   15 1
    15   17   16 1
    16   18   16 1
    17   19   16 1
    18   20   19 1
    19   21   19 1
    20   22   19 1
    21   23   22 1
    22   24   22 1
    23   25   22 1
    24   26   15 1
    25   27   26 1
    26   28   26 1
    27   29   28 1
    28   30   28 1
    29   31   28 1
    30   32   31 1
    31   33   31 1
    32   34   31 1
    33   35   25 1
    34   36   35 ar
    35   37   36 1
    36   38   36 ar
    37   39   38 1
    38   40   38 ar
    39   41   34 ar
    40   42   41 1
    41   43   40 1
    42   44   43 1
    43   45   43 1
    44   46   45 1
    45   47   45 1
    46   48   45 1
    47   49   43 1
    48   50   49 1
    49   51   49 1
    50   52   49 1
    51   53   25 1
    52   54   53 1
    53   55   53 1
    54   56   53 1
    55   57   15 1
    56   58   57 1
    57   59   57 1
    58   60   57 1
    59   61   10 2
    60   62    9 1
    61   63   62 2
    62   64   62 2
    63   65    4 1
    64   66   65 1
    65    7    9 ar
    66   12   61 1
    67   25   26 1
    68   34   35 ar
    69   40   41 ar
@<TRIPOS>SUBSTRUCTURE
     1 RES1 1

@<TRIPOS>CRYSIN
  11.1580    6.2046   17.3470  90.0000 101.4900  90.0000   4 1

