# MOL2 file generated by ConQuest
# Please check atom types

@<TRIPOS>MOLECULE
EYEFOE
    36    37     1
SMALL
NO_CHARGES
****
Generated from CSD

@<TRIPOS>ATOM
      1 C1         1.6988    0.7754    3.4751 C.ar      1 RES1    0.0000
      2 C2         2.0619    1.0571    2.1337 C.ar      1 RES1    0.0000
      3 N1         2.3494    2.3252    1.7473 N.3       1 RES1    0.0000
      4 H1         2.5128    2.4085    0.9013 H         1 RES1    0.0000
      5 H2         2.0280    2.9414    2.2422 H         1 RES1    0.0000
      6 C3         2.1286    0.0087    1.2067 C.ar      1 RES1    0.0000
      7 H3         2.3682    0.1880    0.2814 H         1 RES1    0.0000
      8 C4         1.7716   -1.2626    1.5809 C.ar      1 RES1    0.0000
      9 N2         1.7607   -2.2779    0.5083 N.pl3     1 RES1    0.0000
     10 O1         2.8262   -2.7445    0.1744 O.2       1 RES1    0.0000
     11 O2         0.7044   -2.5270   -0.0126 O.2       1 RES1    0.0000
     12 C5         1.3731   -1.5403    2.8842 C.ar      1 RES1    0.0000
     13 N3         0.9608   -2.8602    3.2942 N.pl3     1 RES1    0.0000
     14 O3         1.2252   -3.8081    2.5550 O.2       1 RES1    0.0000
     15 O4         0.3612   -2.9842    4.3484 O.2       1 RES1    0.0000
     16 C6         1.3552   -0.5181    3.8233 C.ar      1 RES1    0.0000
     17 H4         1.0941   -0.7627    4.6812 H         1 RES1    0.0000
     18 N4         1.7038    1.8668    4.3673 N.2       1 RES1    0.0000
     19 C7         1.0906    1.8108    5.4949 C.2       1 RES1    0.0000
     20 H5         0.5915    1.0324    5.7650 H         1 RES1    0.0000
     21 C8         1.0601    2.9180    6.4204 C.ar      1 RES1    0.0000
     22 C9         1.6574    4.1578    6.1134 C.ar      1 RES1    0.0000
     23 O5         2.3708    4.3206    4.9804 O.3       1 RES1    0.0000
     24 H6         2.3286    3.5827    4.5174 H         1 RES1    0.0000
     25 C10        1.5211    5.2513    6.9652 C.ar      1 RES1    0.0000
     26 H7         1.9533    6.1114    6.6860 H         1 RES1    0.0000
     27 C11        0.7881    5.1097    8.1278 C.ar      1 RES1    0.0000
     28 O6         0.5539    6.1166    9.0127 O.3       1 RES1    0.0000
     29 C12        1.0178    7.4247    8.6679 C.3       1 RES1    0.0000
     30 H8         0.6554    7.6832    7.8368 H         1 RES1    0.0000
     31 H9         2.0349    7.4398    8.6216 H         1 RES1    0.0000
     32 H10        0.7027    7.9119    9.3536 H         1 RES1    0.0000
     33 C13        0.2098    3.8786    8.4720 C.ar      1 RES1    0.0000
     34 H11       -0.3504    3.8276    9.2547 H         1 RES1    0.0000
     35 C14        0.3450    2.8119    7.6251 C.ar      1 RES1    0.0000
     36 H12       -0.0822    1.9362    7.8654 H         1 RES1    0.0000
@<TRIPOS>BOND
     1    1    2 ar
     2    2    3 1
     3    3    4 1
     4    5    3 1
     5    6    2 ar
     6    7    6 1
     7    8    6 ar
     8    9    8 1
     9   10    9 2
    10   11    9 2
    11   12    8 ar
    12   13   12 1
    13   14   13 2
    14   15   13 2
    15   16    1 ar
    16   17   16 1
    17   18    1 1
    18   19   18 2
    19   20   19 1
    20   21   19 1
    21   22   21 ar
    22   23   22 1
    23   24   23 1
    24   25   22 ar
    25   26   25 1
    26   27   25 ar
    27   28   27 1
    28   29   28 1
    29   30   29 1
    30   31   29 1
    31   32   29 1
    32   33   27 ar
    33   34   33 1
    34   35   21 ar
    35   36   35 1
    36   12   16 ar
    37   33   35 ar
@<TRIPOS>SUBSTRUCTURE
     1 RES1 1

@<TRIPOS>CRYSIN
   7.7090    8.3510   11.6990 109.5600  91.8000  96.9300   2 1

