# MOL2 file generated by ConQuest
# Please check atom types

@<TRIPOS>MOLECULE
EYHPIP
    32    32     1
SMALL
NO_CHARGES
****
Generated from CSD

@<TRIPOS>ATOM
      1 O1         6.5528    3.9153    5.1768 O.2       1 RES1    0.0000
      2 N1         6.7535    5.1642    5.3838 N.3       1 RES1    0.0000
      3 C1         5.8215    6.0790    4.6680 C.3       1 RES1    0.0000
      4 C2         4.3998    5.5542    4.9007 C.3       1 RES1    0.0000
      5 C3         6.1341    6.0331    3.1718 C.3       1 RES1    0.0000
      6 C4         5.9306    7.4804    5.2647 C.3       1 RES1    0.0000
      7 C5         7.3269    8.0175    5.5453 C.3       1 RES1    0.0000
      8 C6         8.0546    8.4159    4.3229 C.1       1 RES1    0.0000
      9 C7         8.6105    8.8442    3.3799 C.1       1 RES1    0.0000
     10 O2         7.2143    9.1791    6.3836 O.3       1 RES1    0.0000
     11 C8         8.0682    6.9992    6.4014 C.3       1 RES1    0.0000
     12 C9         8.1001    5.5550    5.8960 C.3       1 RES1    0.0000
     13 C10        9.1328    5.3366    4.7916 C.3       1 RES1    0.0000
     14 C11        8.4277    4.6585    7.0916 C.3       1 RES1    0.0000
     15 H1         7.0969    9.9146    5.8781 H         1 RES1    0.0000
     16 H2         9.0400    9.1484    2.5940 H         1 RES1    0.0000
     17 H3         5.4665    7.4475    6.1565 H         1 RES1    0.0000
     18 H4         5.4381    8.1141    4.6869 H         1 RES1    0.0000
     19 H5         8.9937    7.3019    6.5573 H         1 RES1    0.0000
     20 H6         7.5953    6.9801    7.2920 H         1 RES1    0.0000
     21 H7         4.3354    4.6278    4.5088 H         1 RES1    0.0000
     22 H8         3.7513    6.2292    4.4309 H         1 RES1    0.0000
     23 H9         4.2582    5.5090    5.8781 H         1 RES1    0.0000
     24 H10        6.1508    5.1106    2.8834 H         1 RES1    0.0000
     25 H11        5.3812    6.4591    2.7053 H         1 RES1    0.0000
     26 H12        7.0122    6.4667    2.9168 H         1 RES1    0.0000
     27 H13        8.9980    5.9381    3.9967 H         1 RES1    0.0000
     28 H14        9.0640    4.3827    4.4643 H         1 RES1    0.0000
     29 H15       10.0146    5.5166    5.1434 H         1 RES1    0.0000
     30 H16        9.2602    5.0109    7.5147 H         1 RES1    0.0000
     31 H17        7.6842    4.6355    7.6928 H         1 RES1    0.0000
     32 H18        8.5869    3.6854    6.7910 H         1 RES1    0.0000
@<TRIPOS>BOND
     1    1    2 1
     2    2    3 1
     3    3    4 1
     4    4   21 1
     5    5    3 1
     6    6    3 1
     7    7    6 1
     8    8    7 1
     9    9    8 3
    10   10    7 1
    11   11    7 1
    12   12    2 1
    13   13   12 1
    14   14   12 1
    15   15   10 1
    16   16    9 1
    17   17    6 1
    18   18    6 1
    19   19   11 1
    20   20   11 1
    21   22    4 1
    22   23    4 1
    23   24    5 1
    24   25    5 1
    25   26    5 1
    26   27   13 1
    27   28   13 1
    28   29   13 1
    29   30   14 1
    30   31   14 1
    31   32   14 1
    32   11   12 1
@<TRIPOS>SUBSTRUCTURE
     1 RES1 1

@<TRIPOS>CRYSIN
  13.3270    7.6620   12.6680  90.0000 118.5000  90.0000  14 1

