# MOL2 file generated by ConQuest
# Please check atom types

@<TRIPOS>MOLECULE
EYIXIT
    41    41     1
SMALL
NO_CHARGES
****
Generated from CSD

@<TRIPOS>ATOM
      1 N1        12.2247    2.8462    0.5832 N.3       1 RES1    0.0000
      2 O1        12.8170    4.1337    0.9301 O.3       1 RES1    0.0000
      3 O2        13.8195    5.9133   -2.1635 O.3       1 RES1    0.0000
      4 H1        14.2110    6.6373   -1.8682 H         1 RES1    0.0000
      5 O3        14.1302    6.4949    1.4133 O.3       1 RES1    0.0000
      6 H2        13.7586    6.1367    2.0963 H         1 RES1    0.0000
      7 C1        10.7565    2.9696    0.8778 C.3       1 RES1    0.0000
      8 C2        10.1383    1.5894    0.5981 C.3       1 RES1    0.0000
      9 H3         9.1761    1.6172    0.8274 H         1 RES1    0.0000
     10 H4        10.2125    1.3948   -0.3699 H         1 RES1    0.0000
     11 C3        10.7974    0.4685    1.3762 C.3       1 RES1    0.0000
     12 H5        10.3915   -0.3996    1.1259 H         1 RES1    0.0000
     13 H6        10.6606    0.6074    2.3467 H         1 RES1    0.0000
     14 C4        12.2843    0.4539    1.0599 C.3       1 RES1    0.0000
     15 H7        12.4067    0.2269    0.1042 H         1 RES1    0.0000
     16 H8        12.7193   -0.2561    1.5963 H         1 RES1    0.0000
     17 C5        12.9827    1.7932    1.3459 C.3       1 RES1    0.0000
     18 C6        13.6830    4.6443   -0.1062 C.3       1 RES1    0.0000
     19 H9        14.1318    3.8770   -0.5648 H         1 RES1    0.0000
     20 C7        12.9285    5.4680   -1.1384 C.3       1 RES1    0.0000
     21 H10       12.2082    4.9191   -1.5396 H         1 RES1    0.0000
     22 H11       12.5113    6.2509   -0.6986 H         1 RES1    0.0000
     23 C8        14.7271    5.4531    0.6435 C.3       1 RES1    0.0000
     24 H12       15.2366    4.8532    1.2436 H         1 RES1    0.0000
     25 H13       15.3635    5.8484   -0.0049 H         1 RES1    0.0000
     26 C9        10.1508    3.9696   -0.1038 C.3       1 RES1    0.0000
     27 H14       10.4894    4.8678    0.0937 H         1 RES1    0.0000
     28 H15        9.1750    3.9619   -0.0166 H         1 RES1    0.0000
     29 H16       10.3991    3.7204   -1.0186 H         1 RES1    0.0000
     30 C10       10.4033    3.4615    2.2933 C.3       1 RES1    0.0000
     31 H17       10.5597    2.7398    2.9380 H         1 RES1    0.0000
     32 H18        9.4607    3.7262    2.3214 H         1 RES1    0.0000
     33 H19       10.9655    4.2312    2.5212 H         1 RES1    0.0000
     34 C11       14.3929    1.7071    0.7508 C.3       1 RES1    0.0000
     35 H20       14.3319    1.6421   -0.2250 H         1 RES1    0.0000
     36 H21       14.8488    0.9133    1.1030 H         1 RES1    0.0000
     37 H22       14.9000    2.5100    0.9945 H         1 RES1    0.0000
     38 C12       13.1377    2.0399    2.8584 C.3       1 RES1    0.0000
     39 H23       13.3503    2.9842    3.0150 H         1 RES1    0.0000
     40 H24       13.8621    1.4797    3.2080 H         1 RES1    0.0000
     41 H25       12.3004    1.8134    3.3141 H         1 RES1    0.0000
@<TRIPOS>BOND
     1    1    2 1
     2    2   18 1
     3    3    4 1
     4    5    6 1
     5    7    1 1
     6    8    7 1
     7    9    8 1
     8   10    8 1
     9   11    8 1
    10   12   11 1
    11   13   11 1
    12   14   11 1
    13   15   14 1
    14   16   14 1
    15   17    1 1
    16   18   19 1
    17   20    3 1
    18   21   20 1
    19   22   20 1
    20   23    5 1
    21   24   23 1
    22   25   23 1
    23   26    7 1
    24   27   26 1
    25   28   26 1
    26   29   26 1
    27   30    7 1
    28   31   30 1
    29   32   30 1
    30   33   30 1
    31   34   17 1
    32   35   34 1
    33   36   34 1
    34   37   34 1
    35   38   17 1
    36   39   38 1
    37   40   38 1
    38   41   38 1
    39   14   17 1
    40   18   20 1
    41   18   23 1
@<TRIPOS>SUBSTRUCTURE
     1 RES1 1

@<TRIPOS>CRYSIN
  14.6525   14.6357    6.1793  90.0000  93.8010  90.0000 231 1

