# MOL2 file generated by ConQuest
# Please check atom types

@<TRIPOS>MOLECULE
EYOGAC
    37    38     1
SMALL
USER_CHARGES
****
Generated from CSD

@<TRIPOS>ATOM
      1 C1         5.7919    3.9998    6.3461 C.ar      1 RES1    0.0000
      2 C2         5.1985    2.8027    6.7576 C.ar      1 RES1    0.0000
      3 H1         4.4140    2.5069    6.3543 H         1 RES1    0.0000
      4 C3         5.7780    2.0650    7.7602 C.ar      1 RES1    0.0000
      5 C4         6.9559    2.4925    8.3967 C.ar      1 RES1    0.0000
      6 H2         7.3297    1.9831    9.0796 H         1 RES1    0.0000
      7 C5         7.5430    3.6479    8.0117 C.ar      1 RES1    0.0000
      8 H3         8.3161    3.9237    8.4496 H         1 RES1    0.0000
      9 C6         7.0213    4.4662    6.9547 C.ar      1 RES1    0.0000
     10 C7         5.1558    4.7381    5.3098 C.2       1 RES1    0.0000
     11 H4         4.3744    4.3875    4.9474 H         1 RES1    0.0000
     12 C8         4.8849    6.5992    3.7924 C.3       1 RES1    0.0000
     13 H5         4.8119    7.5294    4.0557 H         1 RES1    0.0000
     14 H6         3.9866    6.2446    3.6971 H         1 RES1    0.0000
     15 C9         5.5957    6.5143    2.4608 C.3       1 RES1    0.0000
     16 H7         6.4610    6.9486    2.5257 H         1 RES1    0.0000
     17 H8         5.7420    5.5840    2.2293 H         1 RES1    0.0000
     18 C10        5.2422    6.7743    0.0813 C.3       1 RES1    0.0000
     19 H9         5.2052    5.8090   -0.0120 H         1 RES1    0.0000
     20 H10        6.1592    7.0578   -0.0562 H         1 RES1    0.0000
     21 C11        4.3509    7.4177   -0.9451 C.3       1 RES1    0.0000
     22 H11        4.6319    7.1448   -1.8324 H         1 RES1    0.0000
     23 H12        3.4384    7.1173   -0.8128 H         1 RES1    0.0000
     24 C12        3.9819    9.2400    0.4453 C.3       1 RES1    0.0000
     25 H13        3.0570    8.9809    0.5809 H         1 RES1    0.0000
     26 H14        4.0351   10.2063    0.5116 H         1 RES1    0.0000
     27 C13        4.8373    8.6182    1.5203 C.3       1 RES1    0.0000
     28 H15        5.7520    8.9280    1.4272 H         1 RES1    0.0000
     29 H16        4.5135    8.8928    2.3930 H         1 RES1    0.0000
     30 N1         5.1984    0.8015    8.1318 N.pl3     1 RES1    0.0000
     31 N2         5.5855    5.8579    4.8367 N.pl3     1 RES1    1.0000
     32 N3         4.8019    7.1592    1.4210 N.3       1 RES1    0.0000
     33 O1         7.5908    5.5225    6.5785 O.2       1 RES1   -1.0000
     34 O2         5.8020    0.0906    8.9330 O.2       1 RES1    0.0000
     35 O3         4.1305    0.4592    7.6228 O.2       1 RES1    0.0000
     36 O4         4.3983    8.8346   -0.8508 O.3       1 RES1    0.0000
     37 H17        6.3319    6.1772    5.1769 H         1 RES1    0.0000
@<TRIPOS>BOND
     1    1    2 ar
     2    2    3 1
     3    4    2 ar
     4    5    4 ar
     5    6    5 1
     6    7    5 ar
     7    8    7 1
     8    9    1 ar
     9   10    1 1
    10   11   10 1
    11   12   13 1
    12   14   12 1
    13   15   12 1
    14   16   15 1
    15   17   15 1
    16   18   19 1
    17   20   18 1
    18   21   18 1
    19   22   21 1
    20   23   21 1
    21   24   25 1
    22   26   24 1
    23   27   24 1
    24   28   27 1
    25   29   27 1
    26   30    4 1
    27   31   10 2
    28   32   15 1
    29   33    9 1
    30   34   30 2
    31   35   30 2
    32   36   21 1
    33   37   31 1
    34    7    9 ar
    35   12   31 1
    36   18   32 1
    37   24   36 1
    38   27   32 1
@<TRIPOS>SUBSTRUCTURE
     1 RES1 1

@<TRIPOS>CRYSIN
   5.3520   10.9011   12.4537  74.0680  82.8570  75.7470   2 1

