# MOL2 file generated by ConQuest
# Please check atom types

@<TRIPOS>MOLECULE
EYOLAG
    66    68     1
SMALL
NO_CHARGES
****
Generated from CSD

@<TRIPOS>ATOM
      1 C1        -0.6050    6.5693    7.0782 C.2       1 RES1    0.0000
      2 C2        -0.7522    5.0759    6.8782 C.3       1 RES1    0.0000
      3 H1        -1.6256    4.8038    7.2805 H         1 RES1    0.0000
      4 C3         1.5411    4.7770    7.8593 C.2       1 RES1    0.0000
      5 C4         1.6961    6.2835    8.0160 C.3       1 RES1    0.0000
      6 H2         2.5649    6.5380    7.5892 H         1 RES1    0.0000
      7 C5        -0.8360    4.8009    5.3475 C.3       1 RES1    0.0000
      8 H3        -1.2575    5.6101    4.9382 H         1 RES1    0.0000
      9 C6        -1.7521    3.6206    5.0096 C.3       1 RES1    0.0000
     10 H4        -1.3071    2.7797    5.2832 H         1 RES1    0.0000
     11 H5        -2.5887    3.7036    5.5323 H         1 RES1    0.0000
     12 C7        -2.1012    3.5374    3.5292 C.3       1 RES1    0.0000
     13 H6        -1.2910    3.3415    3.0135 H         1 RES1    0.0000
     14 H7        -2.4770    4.3926    3.2333 H         1 RES1    0.0000
     15 H8        -2.7591    2.8253    3.3877 H         1 RES1    0.0000
     16 C8         0.5525    4.6797    4.7266 C.3       1 RES1    0.0000
     17 H9         0.4753    4.6919    3.7490 H         1 RES1    0.0000
     18 H10        0.9657    3.8378    5.0107 H         1 RES1    0.0000
     19 H11        1.1077    5.4321    5.0189 H         1 RES1    0.0000
     20 C9         1.7684    6.7254    9.5070 C.3       1 RES1    0.0000
     21 H12        1.9525    7.7084    9.5070 H         1 RES1    0.0000
     22 C10        2.9162    6.0635   10.2577 C.3       1 RES1    0.0000
     23 H13        3.6970    5.9897    9.6531 H         1 RES1    0.0000
     24 H14        2.6466    5.1475   10.5173 H         1 RES1    0.0000
     25 C11        3.3272    6.8331   11.5078 C.3       1 RES1    0.0000
     26 H15        2.5578    6.9148   12.1088 H         1 RES1    0.0000
     27 H16        3.6403    7.7263   11.2540 H         1 RES1    0.0000
     28 H17        4.0491    6.3518   11.9650 H         1 RES1    0.0000
     29 C12        0.4379    6.5285   10.2238 C.3       1 RES1    0.0000
     30 H18        0.4957    6.9009   11.1277 H         1 RES1    0.0000
     31 H19        0.2346    5.5711   10.2776 H         1 RES1    0.0000
     32 H20       -0.2716    6.9861    9.7256 H         1 RES1    0.0000
     33 C13        1.7157    8.9613    6.5800 C.3       1 RES1    0.0000
     34 H21        2.6106    8.6371    6.8525 H         1 RES1    0.0000
     35 H22        1.7130    9.9474    6.6654 H         1 RES1    0.0000
     36 C14        1.4816    8.5960    5.1417 C.ar      1 RES1    0.0000
     37 C15        0.2509    8.8496    4.5512 C.ar      1 RES1    0.0000
     38 H23       -0.4456    9.2489    5.0587 H         1 RES1    0.0000
     39 C16        0.0378    8.5195    3.2181 C.ar      1 RES1    0.0000
     40 H24       -0.8060    8.6889    2.8158 H         1 RES1    0.0000
     41 C17        1.0557    7.9440    2.4756 C.ar      1 RES1    0.0000
     42 H25        0.9104    7.7191    1.5646 H         1 RES1    0.0000
     43 C18        2.2865    7.6973    3.0637 C.ar      1 RES1    0.0000
     44 H26        2.9845    7.3032    2.5539 H         1 RES1    0.0000
     45 C19        2.5003    8.0229    4.3898 C.ar      1 RES1    0.0000
     46 H27        3.3457    7.8540    4.7886 H         1 RES1    0.0000
     47 C20       -0.6980    2.3188    8.2815 C.3       1 RES1    0.0000
     48 H28       -0.7639    1.3533    8.0721 H         1 RES1    0.0000
     49 H29       -1.5946    2.7162    8.1470 H         1 RES1    0.0000
     50 C21       -0.3133    2.4725    9.7280 C.ar      1 RES1    0.0000
     51 C22       -1.2712    2.8993   10.6494 C.ar      1 RES1    0.0000
     52 H30       -2.1404    3.1412   10.3524 H         1 RES1    0.0000
     53 C23       -0.9557    2.9688   11.9977 C.ar      1 RES1    0.0000
     54 H31       -1.6164    3.2456   12.6210 H         1 RES1    0.0000
     55 C24        0.2967    2.6442   12.4374 C.ar      1 RES1    0.0000
     56 H32        0.5050    2.7034   13.3624 H         1 RES1    0.0000
     57 C25        1.2626    2.2272   11.5346 C.ar      1 RES1    0.0000
     58 H33        2.1324    1.9954   11.8387 H         1 RES1    0.0000
     59 C26        0.9538    2.1506   10.1852 C.ar      1 RES1    0.0000
     60 H34        1.6196    1.8738    9.5666 H         1 RES1    0.0000
     61 N1         0.6427    7.0175    7.3202 N.am      1 RES1    0.0000
     62 N2         0.3070    4.3232    7.5693 N.am      1 RES1    0.0000
     63 O1        -1.5694    7.2961    6.8900 O.2       1 RES1    0.0000
     64 O2         2.5027    4.0484    8.0624 O.2       1 RES1    0.0000
     65 O3         0.7214    8.4090    7.4782 O.3       1 RES1    0.0000
     66 O4         0.2318    2.9372    7.3466 O.3       1 RES1    0.0000
@<TRIPOS>BOND
     1    1    2 1
     2    2    3 1
     3    4    5 1
     4    5    6 1
     5    7    2 1
     6    8    7 1
     7    9    7 1
     8   10    9 1
     9   11    9 1
    10   12    9 1
    11   13   12 1
    12   14   12 1
    13   15   12 1
    14   16    7 1
    15   17   16 1
    16   18   16 1
    17   19   16 1
    18   20    5 1
    19   21   20 1
    20   22   20 1
    21   23   22 1
    22   24   22 1
    23   25   22 1
    24   26   25 1
    25   27   25 1
    26   28   25 1
    27   29   20 1
    28   30   29 1
    29   31   29 1
    30   32   29 1
    31   33   34 1
    32   35   33 1
    33   36   33 1
    34   37   36 ar
    35   38   37 1
    36   39   37 ar
    37   40   39 1
    38   41   39 ar
    39   42   41 1
    40   43   41 ar
    41   44   43 1
    42   45   36 ar
    43   46   45 1
    44   47   48 1
    45   49   47 1
    46   50   47 1
    47   51   50 ar
    48   52   51 1
    49   53   51 ar
    50   54   53 1
    51   55   53 ar
    52   56   55 1
    53   57   55 ar
    54   58   57 1
    55   59   50 ar
    56   60   59 1
    57   61    1 1
    58   62    2 1
    59   63    1 2
    60   64    4 2
    61   65   33 1
    62   66   47 1
    63    4   62 1
    64    5   61 1
    65   43   45 ar
    66   57   59 ar
    67   61   65 1
    68   62   66 1
@<TRIPOS>SUBSTRUCTURE
     1 RES1 1

@<TRIPOS>CRYSIN
   6.2724    8.1395   11.9150  99.0350  95.2260  96.7130   1 1

