# MOL2 file generated by ConQuest
# Please check atom types

@<TRIPOS>MOLECULE
EYOZAT
    29    29     1
SMALL
NO_CHARGES
****
Generated from CSD

@<TRIPOS>ATOM
      1 C1         0.7905    2.6179    0.1173 C.ar      1 RES1    0.0000
      2 O1         1.1434    3.6512   -0.6559 O.3       1 RES1    0.0000
      3 H1         0.4713    3.9952   -0.9765 H         1 RES1    0.0000
      4 C2         1.8216    1.8853    0.7994 C.ar      1 RES1    0.0000
      5 C3         3.3153    2.2654    0.6225 C.3       1 RES1    0.0000
      6 C4         3.7207    2.1083   -0.8624 C.3       1 RES1    0.0000
      7 H2         3.1693    2.6755   -1.4062 H         1 RES1    0.0000
      8 H3         3.6029    1.1939   -1.1318 H         1 RES1    0.0000
      9 H4         4.6412    2.3572   -0.9712 H         1 RES1    0.0000
     10 C5         3.5709    3.7197    1.1062 C.3       1 RES1    0.0000
     11 H5         4.5020    3.9318    1.0041 H         1 RES1    0.0000
     12 H6         3.3243    3.7975    2.0306 H         1 RES1    0.0000
     13 H7         3.0446    4.3283    0.5818 H         1 RES1    0.0000
     14 C6         4.2268    1.3265    1.4668 C.3       1 RES1    0.0000
     15 H8         4.0813    0.4156    1.2020 H         1 RES1    0.0000
     16 H9         4.0141    1.4266    2.3976 H         1 RES1    0.0000
     17 H10        5.1466    1.5588    1.3222 H         1 RES1    0.0000
     18 C7         1.4299    0.8346    1.5996 C.ar      1 RES1    0.0000
     19 H11        2.0779    0.3310    2.0370 H         1 RES1    0.0000
     20 C8         0.0692    0.5033    1.7723 C.ar      1 RES1    0.0000
     21 N1        -0.2948   -0.6004    2.6785 N.pl3     1 RES1    0.0000
     22 O2         0.5924   -1.3772    3.0539 O.2       1 RES1    0.0000
     23 O3        -1.4807   -0.7063    3.0083 O.2       1 RES1    0.0000
     24 C9        -0.9316    1.1808    1.1138 C.ar      1 RES1    0.0000
     25 H12       -1.8252    0.9496    1.2254 H         1 RES1    0.0000
     26 C10       -0.5566    2.2206    0.2791 C.ar      1 RES1    0.0000
     27 N2        -1.6367    2.8943   -0.4691 N.pl3     1 RES1    0.0000
     28 O4        -2.7505    2.3786   -0.4888 O.2       1 RES1    0.0000
     29 O5        -1.3806    3.9835   -1.0380 O.2       1 RES1    0.0000
@<TRIPOS>BOND
     1    1    2 1
     2    2    3 1
     3    4    1 ar
     4    5    4 1
     5    6    5 1
     6    7    6 1
     7    8    6 1
     8    9    6 1
     9   10    5 1
    10   11   10 1
    11   12   10 1
    12   13   10 1
    13   14    5 1
    14   15   14 1
    15   16   14 1
    16   17   14 1
    17   18    4 ar
    18   19   18 1
    19   20   18 ar
    20   21   20 1
    21   22   21 2
    22   23   21 2
    23   24   20 ar
    24   25   24 1
    25   26    1 ar
    26   27   26 1
    27   28   27 2
    28   29   27 2
    29   24   26 ar
@<TRIPOS>SUBSTRUCTURE
     1 RES1 1

@<TRIPOS>CRYSIN
   9.9740   10.5750   11.5470  90.0000 112.9000  90.0000  14 1

