# MOL2 file generated by ConQuest
# Please check atom types

@<TRIPOS>MOLECULE
EZAWUY
    43    44     1
SMALL
NO_CHARGES
****
Generated from CSD

@<TRIPOS>ATOM
      1 O1         3.3557    4.0882    2.3709 O.3       1 RES1    0.0000
      2 O2         4.1960    6.3269    3.6635 O.3       1 RES1    0.0000
      3 O3         6.0554    7.5332    3.9506 O.2       1 RES1    0.0000
      4 O4         0.3759   11.9910    3.5407 O.2       1 RES1    0.0000
      5 O5         2.0380   13.0338    2.6834 O.2       1 RES1    0.0000
      6 N1         1.5331   12.0507    3.2082 N.pl3     1 RES1    0.0000
      7 C1         3.9702    3.9818    3.6709 C.3       1 RES1    0.0000
      8 C2         4.6172    2.6098    3.8358 C.3       1 RES1    0.0000
      9 C3         3.5168    1.5494    3.6335 C.3       1 RES1    0.0000
     10 C4         2.7729    1.7590    2.3289 C.3       1 RES1    0.0000
     11 C5         2.2772    3.1561    2.2340 C.3       1 RES1    0.0000
     12 C6         5.3807    2.4468    5.1665 C.3       1 RES1    0.0000
     13 C7         4.5239    2.5901    6.4097 C.3       1 RES1    0.0000
     14 C8         6.1631    1.1535    5.2119 C.3       1 RES1    0.0000
     15 C9         4.9598    5.1103    3.7210 C.3       1 RES1    0.0000
     16 C10        4.8678    7.4729    3.7851 C.2       1 RES1    0.0000
     17 C11        3.9625    8.6425    3.6655 C.ar      1 RES1    0.0000
     18 C12        2.6023    8.5082    3.4218 C.ar      1 RES1    0.0000
     19 C13        1.7960    9.6187    3.2950 C.ar      1 RES1    0.0000
     20 C14        2.3862   10.8618    3.3771 C.ar      1 RES1    0.0000
     21 C15        3.7293   11.0392    3.6188 C.ar      1 RES1    0.0000
     22 C16        4.5183    9.9125    3.7824 C.ar      1 RES1    0.0000
     23 H1         3.2775    4.1144    4.3800 H         1 RES1    0.0000
     24 H2         5.2792    2.4987    3.0953 H         1 RES1    0.0000
     25 H3         6.0534    3.1865    5.1992 H         1 RES1    0.0000
     26 H4         2.2233    7.6413    3.3417 H         1 RES1    0.0000
     27 H5         0.8599    9.5310    3.1548 H         1 RES1    0.0000
     28 H6         4.1056   11.9097    3.6722 H         1 RES1    0.0000
     29 H7         5.4439   10.0074    3.9753 H         1 RES1    0.0000
     30 H8         3.9263    0.6484    3.6348 H         1 RES1    0.0000
     31 H9         2.8759    1.5942    4.3860 H         1 RES1    0.0000
     32 H10        3.3778    1.5709    1.5684 H         1 RES1    0.0000
     33 H11        2.0086    1.1320    2.2774 H         1 RES1    0.0000
     34 H12        1.8327    3.2904    1.3594 H         1 RES1    0.0000
     35 H13        1.6082    3.3173    2.9458 H         1 RES1    0.0000
     36 H14        3.8439    1.8843    6.4210 H         1 RES1    0.0000
     37 H15        4.0855    3.4678    6.4050 H         1 RES1    0.0000
     38 H16        5.0894    2.5131    7.2069 H         1 RES1    0.0000
     39 H17        5.5413    0.3959    5.2172 H         1 RES1    0.0000
     40 H18        6.7121    1.1320    6.0238 H         1 RES1    0.0000
     41 H19        6.7425    1.0962    4.4240 H         1 RES1    0.0000
     42 H20        5.4869    5.0727    4.5589 H         1 RES1    0.0000
     43 H21        5.5823    5.0583    2.9531 H         1 RES1    0.0000
@<TRIPOS>BOND
     1    1    7 1
     2    2   15 1
     3    3   16 2
     4    4    6 2
     5    5    6 2
     6    6   20 1
     7    7    8 1
     8    8    9 1
     9    9   10 1
    10   10   11 1
    11   11    1 1
    12   12    8 1
    13   13   12 1
    14   14   12 1
    15   15    7 1
    16   16    2 1
    17   17   16 1
    18   18   17 ar
    19   19   18 ar
    20   20   19 ar
    21   21   20 ar
    22   22   17 ar
    23   23    7 1
    24   24    8 1
    25   25   12 1
    26   26   18 1
    27   27   19 1
    28   28   21 1
    29   29   22 1
    30   30    9 1
    31   31    9 1
    32   32   10 1
    33   33   10 1
    34   34   11 1
    35   35   11 1
    36   36   13 1
    37   37   13 1
    38   38   13 1
    39   39   14 1
    40   40   14 1
    41   41   14 1
    42   42   15 1
    43   43   15 1
    44   21   22 ar
@<TRIPOS>SUBSTRUCTURE
     1 RES1 1

@<TRIPOS>CRYSIN
   6.7177   17.9120    6.8078  90.0000 101.2600  90.0000   7 1

