# MOL2 file generated by ConQuest
# Please check atom types

@<TRIPOS>MOLECULE
EZEFUL
    40    41     1
SMALL
NO_CHARGES
****
Generated from CSD

@<TRIPOS>ATOM
      1 C1         2.7317    7.8864    0.5215 C.ar      1 RES1    0.0000
      2 C2         3.3719    7.1654   -0.4808 C.ar      1 RES1    0.0000
      3 H1         3.1526    6.2726   -0.6237 H         1 RES1    0.0000
      4 C3         4.3361    7.7744   -1.2648 C.ar      1 RES1    0.0000
      5 C4         4.6690    9.1130   -1.0395 C.ar      1 RES1    0.0000
      6 C5         4.0189    9.8249   -0.0348 C.ar      1 RES1    0.0000
      7 C6         3.0583    9.2131    0.7375 C.ar      1 RES1    0.0000
      8 H2         2.6271    9.6935    1.4077 H         1 RES1    0.0000
      9 C7         1.6908    7.3133    1.3926 C.2       1 RES1    0.0000
     10 H3         1.4436    7.8285    2.1278 H         1 RES1    0.0000
     11 C8         1.0772    6.1837    1.2637 C.2       1 RES1    0.0000
     12 H4         1.3242    5.6466    0.5459 H         1 RES1    0.0000
     13 C9         0.0141    5.6698    2.1615 C.ar      1 RES1    0.0000
     14 C10       -0.4457    4.3818    2.0093 C.ar      1 RES1    0.0000
     15 H5        -0.0922    3.8485    1.3333 H         1 RES1    0.0000
     16 C11       -1.4100    3.8692    2.8305 C.ar      1 RES1    0.0000
     17 H6        -1.7015    2.9920    2.7248 H         1 RES1    0.0000
     18 C12       -1.9430    4.6600    3.8119 C.ar      1 RES1    0.0000
     19 C13       -1.5384    5.9557    3.9931 C.ar      1 RES1    0.0000
     20 H7        -1.9202    6.4864    4.6551 H         1 RES1    0.0000
     21 C14       -0.5461    6.4580    3.1661 C.ar      1 RES1    0.0000
     22 H8        -0.2492    7.3326    3.2823 H         1 RES1    0.0000
     23 C15        4.7694    5.8089   -2.5366 C.3       1 RES1    0.0000
     24 H9         3.8393    5.6878   -2.7433 H         1 RES1    0.0000
     25 H10        4.9941    5.2937   -1.7584 H         1 RES1    0.0000
     26 H11        5.3017    5.5165   -3.2788 H         1 RES1    0.0000
     27 C16        3.8448   11.8779    1.1661 C.3       1 RES1    0.0000
     28 H12        4.0762   11.4671    2.0023 H         1 RES1    0.0000
     29 H13        2.8899   11.8985    1.0732 H         1 RES1    0.0000
     30 H14        4.1881   12.7744    1.1440 H         1 RES1    0.0000
     31 C17        6.9067    9.7257   -1.2706 C.3       1 RES1    0.0000
     32 H15        7.2047    8.8189   -1.1638 H         1 RES1    0.0000
     33 H16        6.8926   10.1610   -0.4146 H         1 RES1    0.0000
     34 H17        7.5065   10.1932   -1.8560 H         1 RES1    0.0000
     35 N1        -2.9708    4.1087    4.6992 N.pl3     1 RES1    0.0000
     36 O1        -3.4877    4.8403    5.5192 O.2       1 RES1    0.0000
     37 O2        -3.2270    2.9276    4.5970 O.2       1 RES1    0.0000
     38 O3         5.0217    7.1846   -2.2833 O.3       1 RES1    0.0000
     39 O4         5.6083    9.7328   -1.8237 O.3       1 RES1    0.0000
     40 O5         4.4069   11.1321    0.1029 O.3       1 RES1    0.0000
@<TRIPOS>BOND
     1    1    2 ar
     2    2    3 1
     3    4    2 ar
     4    5    4 ar
     5    6    5 ar
     6    7    1 ar
     7    8    7 1
     8    9    1 1
     9   10    9 1
    10   11    9 2
    11   12   11 1
    12   13   11 1
    13   14   13 ar
    14   15   14 1
    15   16   14 ar
    16   17   16 1
    17   18   16 ar
    18   19   18 ar
    19   20   19 1
    20   21   13 ar
    21   22   21 1
    22   23   24 1
    23   25   23 1
    24   26   23 1
    25   27   28 1
    26   29   27 1
    27   30   27 1
    28   31   32 1
    29   33   31 1
    30   34   31 1
    31   35   18 1
    32   36   35 2
    33   37   35 2
    34   38    4 1
    35   39    5 1
    36   40    6 1
    37    6    7 ar
    38   19   21 ar
    39   23   38 1
    40   27   40 1
    41   31   39 1
@<TRIPOS>SUBSTRUCTURE
     1 RES1 1

@<TRIPOS>CRYSIN
  10.4590   12.8800   14.0210  90.0000 124.0690  90.0000  14 1

