# MOL2 file generated by ConQuest
# Please check atom types

@<TRIPOS>MOLECULE
EZEGEW
    39    40     1
SMALL
NO_CHARGES
****
Generated from CSD

@<TRIPOS>ATOM
      1 C1        -0.0657    7.0102    0.8036 C.ar      1 RES1    0.0000
      2 C2        -0.3492    6.8385    2.1439 C.ar      1 RES1    0.0000
      3 H1        -0.5779    5.9967    2.4680 H         1 RES1    0.0000
      4 C3        -0.2929    7.9207    3.0019 C.ar      1 RES1    0.0000
      5 C4         0.0498    9.1907    2.5060 C.ar      1 RES1    0.0000
      6 C5         0.3095    9.3572    1.1530 C.ar      1 RES1    0.0000
      7 C6         0.2590    8.2726    0.2998 C.ar      1 RES1    0.0000
      8 H2         0.4401    8.3818   -0.6057 H         1 RES1    0.0000
      9 C7        -0.0887    5.8600   -0.1112 C.2       1 RES1    0.0000
     10 H3         0.1602    5.9779   -0.9998 H         1 RES1    0.0000
     11 C8        -0.5007    3.6316   -0.6178 C.ar      1 RES1    0.0000
     12 C9        -0.9704    3.7564   -1.9197 C.ar      1 RES1    0.0000
     13 H4        -1.2554    4.5855   -2.2301 H         1 RES1    0.0000
     14 C10       -1.0166    2.6564   -2.7550 C.ar      1 RES1    0.0000
     15 H5        -1.3326    2.7314   -3.6269 H         1 RES1    0.0000
     16 C11       -0.5779    1.4327   -2.2593 C.ar      1 RES1    0.0000
     17 C12       -0.1486    1.2780   -0.9720 C.ar      1 RES1    0.0000
     18 H6         0.1255    0.4444   -0.6626 H         1 RES1    0.0000
     19 C13       -0.1284    2.3765   -0.1387 C.ar      1 RES1    0.0000
     20 H7         0.1349    2.2783    0.7487 H         1 RES1    0.0000
     21 C14       -0.8146    6.5868    4.9039 C.3       1 RES1    0.0000
     22 H8        -1.5664    6.1915    4.4559 H         1 RES1    0.0000
     23 H9        -1.0144    6.6850    5.8380 H         1 RES1    0.0000
     24 H10       -0.0455    6.0227    4.7974 H         1 RES1    0.0000
     25 C15        1.3997   10.3975    3.9684 C.3       1 RES1    0.0000
     26 H11        1.6789    9.5506    4.3245 H         1 RES1    0.0000
     27 H12        1.3535   11.0440    4.6777 H         1 RES1    0.0000
     28 H13        2.0325   10.6919    3.3087 H         1 RES1    0.0000
     29 C16        0.7208   10.8780   -0.6217 C.3       1 RES1    0.0000
     30 H14        1.4675   10.3918   -0.9779 H         1 RES1    0.0000
     31 H15        0.8478   11.8159   -0.7735 H         1 RES1    0.0000
     32 H16       -0.0851   10.5880   -1.0552 H         1 RES1    0.0000
     33 N1        -0.5758    0.2713   -3.1511 N.pl3     1 RES1    0.0000
     34 N2        -0.4416    4.7106    0.2868 N.2       1 RES1    0.0000
     35 O1        -0.9711    0.4073   -4.2851 O.2       1 RES1    0.0000
     36 O2        -0.1724   -0.7985   -2.7118 O.2       1 RES1    0.0000
     37 O3        -0.5447    7.8729    4.3376 O.3       1 RES1    0.0000
     38 O4         0.1169   10.2603    3.3675 O.3       1 RES1    0.0000
     39 O5         0.6205   10.6355    0.7700 O.3       1 RES1    0.0000
@<TRIPOS>BOND
     1    1    2 ar
     2    2    3 1
     3    4    2 ar
     4    5    4 ar
     5    6    5 ar
     6    7    1 ar
     7    8    7 1
     8    9    1 1
     9   10    9 1
    10   11   12 ar
    11   12   13 1
    12   14   12 ar
    13   15   14 1
    14   16   14 ar
    15   17   16 ar
    16   18   17 1
    17   19   11 ar
    18   20   19 1
    19   21   22 1
    20   23   21 1
    21   24   21 1
    22   25   26 1
    23   27   25 1
    24   28   25 1
    25   29   30 1
    26   31   29 1
    27   32   29 1
    28   33   16 1
    29   34    9 2
    30   35   33 2
    31   36   33 2
    32   37    4 1
    33   38    5 1
    34   39    6 1
    35    6    7 ar
    36   11   34 1
    37   17   19 ar
    38   21   37 1
    39   25   38 1
    40   29   39 1
@<TRIPOS>SUBSTRUCTURE
     1 RES1 1

@<TRIPOS>CRYSIN
   7.2150   14.4290   14.5950  90.0000  90.0000  90.0000  19 1

