# MOL2 file generated by ConQuest
# Please check atom types

@<TRIPOS>MOLECULE
EZEGAS
    39    40     1
SMALL
NO_CHARGES
****
Generated from CSD

@<TRIPOS>ATOM
      1 C1         3.2508    6.8814   16.9525 C.ar      1 RES1    0.0000
      2 C2         2.9826    6.9997   18.3131 C.ar      1 RES1    0.0000
      3 H1         2.2635    7.5105   18.6064 H         1 RES1    0.0000
      4 C3         3.7977    6.3503   19.2257 C.ar      1 RES1    0.0000
      5 C4         4.8571    5.5717   18.7829 C.ar      1 RES1    0.0000
      6 C5         5.0997    5.4531   17.4196 C.ar      1 RES1    0.0000
      7 C6         4.3046    6.1131   16.5054 C.ar      1 RES1    0.0000
      8 H2         4.4781    6.0405   15.5958 H         1 RES1    0.0000
      9 C7         1.2771    7.7110   16.0897 C.2       1 RES1    0.0000
     10 H3         0.8670    7.3495   16.8415 H         1 RES1    0.0000
     11 C8         0.4516    8.4208   15.1108 C.ar      1 RES1    0.0000
     12 C9         0.9952    9.1835   14.0930 C.ar      1 RES1    0.0000
     13 H4         1.9178    9.2632   14.0149 H         1 RES1    0.0000
     14 C10        0.1727    9.8237   13.2002 C.ar      1 RES1    0.0000
     15 H5         0.5322   10.3472   12.5211 H         1 RES1    0.0000
     16 C11       -1.1918    9.6808   13.3217 C.ar      1 RES1    0.0000
     17 C12       -1.7606    8.9316   14.3124 C.ar      1 RES1    0.0000
     18 H6        -2.6839    8.8392   14.3731 H         1 RES1    0.0000
     19 C13       -0.9282    8.3198   15.2108 C.ar      1 RES1    0.0000
     20 H7        -1.2970    7.8247   15.9053 H         1 RES1    0.0000
     21 C14        2.6387    7.2239   21.1109 C.3       1 RES1    0.0000
     22 H8         2.7824    8.1319   20.8344 H         1 RES1    0.0000
     23 H9         2.6574    7.1742   22.0699 H         1 RES1    0.0000
     24 H10        1.7849    6.9231   20.7909 H         1 RES1    0.0000
     25 C15        6.9126    5.5115   19.9041 C.3       1 RES1    0.0000
     26 H11        7.4225    5.4720   19.0925 H         1 RES1    0.0000
     27 H12        7.3789    5.0394   20.5965 H         1 RES1    0.0000
     28 H13        6.7965    6.4281   20.1642 H         1 RES1    0.0000
     29 C16        6.3671    4.3738   15.7229 C.3       1 RES1    0.0000
     30 H14        5.5617    4.0075   15.3502 H         1 RES1    0.0000
     31 H15        7.0778    3.7343   15.6392 H         1 RES1    0.0000
     32 H16        6.6012    5.1768   15.2504 H         1 RES1    0.0000
     33 N1        -2.0794   10.3882   12.3878 N.pl3     1 RES1    0.0000
     34 N2         2.5218    7.5719   15.9521 N.2       1 RES1    0.0000
     35 O1        -1.5630   11.1391   11.5857 O.2       1 RES1    0.0000
     36 O2        -3.2803   10.1814   12.4528 O.2       1 RES1    0.0000
     37 O3         3.6561    6.4040   20.5771 O.3       1 RES1    0.0000
     38 O4         5.6361    4.9108   19.6943 O.3       1 RES1    0.0000
     39 O5         6.1639    4.6720   17.0847 O.3       1 RES1    0.0000
@<TRIPOS>BOND
     1    1    2 ar
     2    2    3 1
     3    4    2 ar
     4    5    4 ar
     5    6    5 ar
     6    7    1 ar
     7    8    7 1
     8    9   10 1
     9   11    9 1
    10   12   11 ar
    11   13   12 1
    12   14   12 ar
    13   15   14 1
    14   16   14 ar
    15   17   16 ar
    16   18   17 1
    17   19   11 ar
    18   20   19 1
    19   21   22 1
    20   23   21 1
    21   24   21 1
    22   25   26 1
    23   27   25 1
    24   28   25 1
    25   29   30 1
    26   31   29 1
    27   32   29 1
    28   33   16 1
    29   34    1 1
    30   35   33 2
    31   36   33 2
    32   37    4 1
    33   38    5 1
    34   39    6 1
    35    6    7 ar
    36    9   34 2
    37   17   19 ar
    38   21   37 1
    39   25   38 1
    40   29   39 1
@<TRIPOS>SUBSTRUCTURE
     1 RES1 1

@<TRIPOS>CRYSIN
   7.5120    7.8950   26.4410  90.0000 104.6670  90.0000  14 1

