# MOL2 file generated by ConQuest
# Please check atom types

@<TRIPOS>MOLECULE
EZESUY
    21    22     1
SMALL
NO_CHARGES
****
Generated from CSD

@<TRIPOS>ATOM
      1 O1         3.3167    1.8110   13.5253 O.2       1 RES1    0.0000
      2 O2         2.6381    3.7199   12.8384 O.2       1 RES1    0.0000
      3 N1         0.2982    1.7835   13.5649 N.2       1 RES1    0.0000
      4 N2        -0.6918    1.3580   14.3723 N.3       1 RES1    0.0000
      5 N3         2.7924    2.5242   12.6966 N.pl3     1 RES1    0.0000
      6 C1        -1.3107    0.2799   13.8968 C.2       1 RES1    0.0000
      7 C2        -0.7043   -0.0259   12.7074 C.2       1 RES1    0.0000
      8 C3         0.2913    0.9335   12.5433 C.2       1 RES1    0.0000
      9 C4         1.2227    1.0983   11.4142 C.ar      1 RES1    0.0000
     10 C5         2.3540    1.8929   11.4445 C.ar      1 RES1    0.0000
     11 C6         3.1831    2.1131   10.3521 C.ar      1 RES1    0.0000
     12 C7         2.8818    1.4777    9.1696 C.ar      1 RES1    0.0000
     13 C8         1.7924    0.6583    9.0920 C.ar      1 RES1    0.0000
     14 C9         0.9542    0.4597   10.1965 C.ar      1 RES1    0.0000
     15 H1        -0.8945    1.8516   15.1925 H         1 RES1    0.0000
     16 H2        -2.0971   -0.2357   14.3397 H         1 RES1    0.0000
     17 H3        -0.9416   -0.8079   12.0657 H         1 RES1    0.0000
     18 H4         4.0073    2.7442   10.4272 H         1 RES1    0.0000
     19 H5         3.4745    1.6246    8.3300 H         1 RES1    0.0000
     20 H6         1.5720    0.1560    8.2029 H         1 RES1    0.0000
     21 H7         0.1263   -0.1594   10.1134 H         1 RES1    0.0000
@<TRIPOS>BOND
     1    1    5 2
     2    2    5 2
     3    3    4 1
     4    4    6 1
     5    5   10 1
     6    6    7 2
     7    7    8 1
     8    8    3 2
     9    9    8 1
    10   10    9 ar
    11   11   10 ar
    12   12   11 ar
    13   13   12 ar
    14   14    9 ar
    15   15    4 1
    16   16    6 1
    17   17    7 1
    18   18   11 1
    19   19   12 1
    20   20   13 1
    21   21   14 1
    22   13   14 ar
@<TRIPOS>SUBSTRUCTURE
     1 RES1 1

@<TRIPOS>CRYSIN
  11.4686    5.1831   15.9689  90.0000 110.3480  90.0000 231 1

