# MOL2 file generated by ConQuest
# Please check atom types

@<TRIPOS>MOLECULE
EZESOS
    28    28     1
SMALL
NO_CHARGES
****
Generated from CSD

@<TRIPOS>ATOM
      1 O1         2.5771    2.8781    9.6974 O.2       1 RES1    0.0000
      2 O2         3.9106    1.7642    8.4452 O.2       1 RES1    0.0000
      3 O3         5.0583    3.9732   10.7708 O.2       1 RES1    0.0000
      4 N1         3.4490    2.0448    9.5306 N.pl3     1 RES1    0.0000
      5 N2         4.2741    6.3370   14.1039 N.3       1 RES1    0.0000
      6 C1         3.9344    1.3039   10.6988 C.ar      1 RES1    0.0000
      7 C2         4.3878    1.9851   11.8231 C.ar      1 RES1    0.0000
      8 C3         4.7632    1.2026   12.9101 C.ar      1 RES1    0.0000
      9 C4         4.6956   -0.1846   12.8582 C.ar      1 RES1    0.0000
     10 C5         4.2399   -0.8116   11.7164 C.ar      1 RES1    0.0000
     11 C6         3.8601   -0.0702   10.6223 C.ar      1 RES1    0.0000
     12 C7         4.6235    3.4759   11.8064 C.2       1 RES1    0.0000
     13 C8         4.3365    4.1768   13.0195 C.2       1 RES1    0.0000
     14 C9         4.5023    5.5269   13.0730 C.2       1 RES1    0.0000
     15 C10        3.8207    5.8489   15.3741 C.3       1 RES1    0.0000
     16 C11        4.4257    7.7777   13.9763 C.3       1 RES1    0.0000
     17 H1         5.1088    1.6684   13.7784 H         1 RES1    0.0000
     18 H2         4.9842   -0.7531   13.6837 H         1 RES1    0.0000
     19 H3         4.1926   -1.8498   11.6884 H         1 RES1    0.0000
     20 H4         3.5252   -0.5391    9.7527 H         1 RES1    0.0000
     21 H5         4.0111    3.6575   13.8606 H         1 RES1    0.0000
     22 H6         4.8497    5.9754   12.1970 H         1 RES1    0.0000
     23 H7         3.7124    4.8007   15.3342 H         1 RES1    0.0000
     24 H8         2.8899    6.2594   15.6165 H         1 RES1    0.0000
     25 H9         4.5026    6.0832   16.1187 H         1 RES1    0.0000
     26 H10        4.7493    8.0151   13.0203 H         1 RES1    0.0000
     27 H11        5.1075    8.1176   14.6773 H         1 RES1    0.0000
     28 H12        3.4988    8.2409   14.1471 H         1 RES1    0.0000
@<TRIPOS>BOND
     1    1    4 2
     2    2    4 2
     3    3   12 2
     4    4    6 1
     5    5   14 1
     6    6    7 ar
     7    7    8 ar
     8    8    9 ar
     9    9   10 ar
    10   10   11 ar
    11   11    6 ar
    12   12    7 1
    13   13   12 1
    14   14   13 2
    15   15    5 1
    16   16    5 1
    17   17    8 1
    18   18    9 1
    19   19   10 1
    20   20   11 1
    21   21   13 1
    22   22   14 1
    23   23   15 1
    24   24   15 1
    25   25   15 1
    26   26   16 1
    27   27   16 1
    28   28   16 1
@<TRIPOS>SUBSTRUCTURE
     1 RES1 1

@<TRIPOS>CRYSIN
   7.4332   11.8131   12.6750  90.0000  90.0000  90.0000  19 1

