# MOL2 file generated by ConQuest
# Please check atom types

@<TRIPOS>MOLECULE
EZICUM
    37    38     1
SMALL
NO_CHARGES
****
Generated from CSD

@<TRIPOS>ATOM
      1 C1         4.5771    6.8486    6.3976 C.ar      1 RES1    0.0000
      2 C2         4.1817    8.0957    5.8393 C.ar      1 RES1    0.0000
      3 C3         3.1865    8.8408    6.4524 C.ar      1 RES1    0.0000
      4 H1         2.9210    9.6475    6.0747 H         1 RES1    0.0000
      5 C4         2.5930    8.4127    7.5965 C.ar      1 RES1    0.0000
      6 H2         1.9216    8.9220    7.9888 H         1 RES1    0.0000
      7 C5         2.9909    7.1973    8.1877 C.ar      1 RES1    0.0000
      8 C6         3.9717    6.4361    7.5764 C.ar      1 RES1    0.0000
      9 H3         4.2301    5.6300    7.9615 H         1 RES1    0.0000
     10 C7         5.5766    6.0104    5.7553 C.2       1 RES1    0.0000
     11 H4         5.7695    5.1772    6.1203 H         1 RES1    0.0000
     12 C8         7.1701    5.5600    4.0765 C.ar      1 RES1    0.0000
     13 C9         7.6059    4.3200    4.5291 C.ar      1 RES1    0.0000
     14 H5         7.2718    3.9609    5.3192 H         1 RES1    0.0000
     15 C10        8.5565    3.6210    3.7755 C.ar      1 RES1    0.0000
     16 H6         8.8389    2.7873    4.0747 H         1 RES1    0.0000
     17 C11        9.0910    4.1235    2.6094 C.ar      1 RES1    0.0000
     18 C12        8.6616    5.3714    2.2061 C.ar      1 RES1    0.0000
     19 H7         9.0170    5.7492    1.4343 H         1 RES1    0.0000
     20 C13        7.7160    6.0697    2.9269 C.ar      1 RES1    0.0000
     21 H8         7.4423    6.9058    2.6277 H         1 RES1    0.0000
     22 C14       10.1073    3.3447    1.7865 C.3       1 RES1    0.0000
     23 H9         9.9165    3.5207    0.8522 H         1 RES1    0.0000
     24 H10       10.9798    3.7260    1.9708 H         1 RES1    0.0000
     25 C15       10.2218    1.9504    1.9343 C.3       1 RES1    0.0000
     26 H11        9.3488    1.5526    1.7901 H         1 RES1    0.0000
     27 H12       10.4840    1.7568    2.8466 H         1 RES1    0.0000
     28 C16       11.2246    1.2828    0.9872 C.3       1 RES1    0.0000
     29 H13       12.0962    1.6606    1.1259 H         1 RES1    0.0000
     30 H14       10.9531    1.4295    0.0785 H         1 RES1    0.0000
     31 H15       11.2533    0.3398    1.1642 H         1 RES1    0.0000
     32 N1         6.1975    6.3844    4.7024 N.2       1 RES1    0.0000
     33 N2         2.4032    6.7593    9.4249 N.pl3     1 RES1    0.0000
     34 O1         4.7726    8.5290    4.7243 O.3       1 RES1    0.0000
     35 O2         1.3792    7.2931    9.8264 O.2       1 RES1    0.0000
     36 O3         2.9577    5.8573   10.0600 O.2       1 RES1    0.0000
     37 H16        5.4157    7.9020    4.3612 H         1 RES1    0.0000
@<TRIPOS>BOND
     1    1    2 ar
     2    2    3 ar
     3    3    4 1
     4    5    3 ar
     5    6    5 1
     6    7    5 ar
     7    8    1 ar
     8    9    8 1
     9   10    1 1
    10   11   10 1
    11   12   13 ar
    12   13   14 1
    13   15   13 ar
    14   16   15 1
    15   17   15 ar
    16   18   17 ar
    17   19   18 1
    18   20   12 ar
    19   21   20 1
    20   22   17 1
    21   23   22 1
    22   24   22 1
    23   25   22 1
    24   26   25 1
    25   27   25 1
    26   28   25 1
    27   29   28 1
    28   30   28 1
    29   31   28 1
    30   32   10 2
    31   33    7 1
    32   34    2 1
    33   35   33 2
    34   36   33 2
    35   37   34 1
    36    7    8 ar
    37   12   32 1
    38   18   20 ar
@<TRIPOS>SUBSTRUCTURE
     1 RES1 1

@<TRIPOS>CRYSIN
   4.9508    8.4766   18.4380  83.0930  83.7780  73.8010   2 1

