# MOL2 file generated by ConQuest
# Please check atom types

@<TRIPOS>MOLECULE
EZOLAG
    39    41     1
SMALL
NO_CHARGES
****
Generated from CSD

@<TRIPOS>ATOM
      1 O1         5.5280    3.7191    1.5891 O.2       1 RES1    0.0000
      2 N1         5.4666    4.9746    1.8987 N.pl3     1 RES1    0.0000
      3 C1         2.2996    7.4167    4.2909 C.3       1 RES1    0.0000
      4 H1         3.2488    7.5974    4.5102 H         1 RES1    0.0000
      5 H2         1.7501    8.1255    4.7113 H         1 RES1    0.0000
      6 C2         2.1103    7.4745    2.7190 C.3       1 RES1    0.0000
      7 H3         1.3061    8.0128    2.5105 H         1 RES1    0.0000
      8 H4         2.8918    7.9281    2.3159 H         1 RES1    0.0000
      9 C3         1.9608    6.1081    2.0987 C.ar      1 RES1    0.0000
     10 C4         3.0151    5.1600    2.0578 C.ar      1 RES1    0.0000
     11 C5         2.6959    3.8001    2.0514 C.ar      1 RES1    0.0000
     12 H5         3.3994    3.1621    2.0406 H         1 RES1    0.0000
     13 C6         1.3779    3.3521    2.0600 C.ar      1 RES1    0.0000
     14 C7         0.3932    4.2919    1.7632 C.ar      1 RES1    0.0000
     15 H6        -0.4859    4.0060    1.5450 H         1 RES1    0.0000
     16 C8         0.6941    5.6368    1.7847 C.ar      1 RES1    0.0000
     17 H7         0.0100    6.2637    1.5772 H         1 RES1    0.0000
     18 C9         1.0498    1.9997    2.6384 C.3       1 RES1    0.0000
     19 H8         1.7001    1.3375    2.2944 H         1 RES1    0.0000
     20 H9         0.1501    1.7277    2.3277 H         1 RES1    0.0000
     21 C10        1.0766    1.9690    4.2253 C.3       1 RES1    0.0000
     22 H10        0.2215    1.5955    4.5554 H         1 RES1    0.0000
     23 H11        1.8046    1.3682    4.5242 H         1 RES1    0.0000
     24 C11        1.2841    3.3316    4.8349 C.ar      1 RES1    0.0000
     25 C12        0.2812    4.2947    4.8306 C.ar      1 RES1    0.0000
     26 H12       -0.6279    4.0199    4.8177 H         1 RES1    0.0000
     27 C13        0.5834    5.6452    4.8446 C.ar      1 RES1    0.0000
     28 H13       -0.1204    6.2851    4.8403 H         1 RES1    0.0000
     29 C14        1.9031    6.0746    4.8640 C.ar      1 RES1    0.0000
     30 C15        2.8726    5.1246    5.1800 C.ar      1 RES1    0.0000
     31 H14        3.7509    5.4058    5.4080 H         1 RES1    0.0000
     32 C16        2.5667    3.7722    5.1650 C.ar      1 RES1    0.0000
     33 H15        3.2391    3.1370    5.3822 H         1 RES1    0.0000
     34 C17        4.3812    5.6471    2.1524 C.2       1 RES1    0.0000
     35 H16        4.4943    6.5487    2.4288 H         1 RES1    0.0000
     36 C18        6.7637    5.6601    1.9062 C.3       1 RES1    0.0000
     37 H17        6.6340    6.6018    2.1438 H         1 RES1    0.0000
     38 H18        7.1699    5.6005    1.0160 H         1 RES1    0.0000
     39 H19        7.3534    5.2354    2.5631 H         1 RES1    0.0000
@<TRIPOS>BOND
     1    1    2 1
     2    2   34 2
     3    3    4 1
     4    5    3 1
     5    6    3 1
     6    7    6 1
     7    8    6 1
     8    9    6 1
     9   10    9 ar
    10   11   10 ar
    11   12   11 1
    12   13   11 ar
    13   14   13 ar
    14   15   14 1
    15   16    9 ar
    16   17   16 1
    17   18   13 1
    18   19   18 1
    19   20   18 1
    20   21   18 1
    21   22   21 1
    22   23   21 1
    23   24   21 1
    24   25   24 ar
    25   26   25 1
    26   27   25 ar
    27   28   27 1
    28   29    3 1
    29   30   29 ar
    30   31   30 1
    31   32   24 ar
    32   33   32 1
    33   34   10 1
    34   35   34 1
    35   36    2 1
    36   37   36 1
    37   38   36 1
    38   39   36 1
    39   14   16 ar
    40   27   29 ar
    41   30   32 ar
@<TRIPOS>SUBSTRUCTURE
     1 RES1 1

@<TRIPOS>CRYSIN
  13.5380    9.3140   11.4400  90.0000 109.9800  90.0000  14 1

