# MOL2 file generated by ConQuest
# Please check atom types

@<TRIPOS>MOLECULE
EZOLEK
    53    57     1
SMALL
NO_CHARGES
****
Generated from CSD

@<TRIPOS>ATOM
      1 C1        -0.5047    3.1592    6.5828 C.3       1 RES1    0.0000
      2 H1        -0.7903    2.4345    7.1954 H         1 RES1    0.0000
      3 H2        -1.3195    3.6188    6.2587 H         1 RES1    0.0000
      4 C2         0.3845    4.2005    7.3982 C.3       1 RES1    0.0000
      5 H3        -0.0243    5.0999    7.3283 H         1 RES1    0.0000
      6 H4         0.3910    3.9432    8.3550 H         1 RES1    0.0000
      7 C3         1.8077    4.2634    6.8925 C.ar      1 RES1    0.0000
      8 C4         2.8293    3.4154    7.3384 C.ar      1 RES1    0.0000
      9 C5         3.8707    3.0989    6.4735 C.ar      1 RES1    0.0000
     10 H5         4.5451    2.4972    6.7646 H         1 RES1    0.0000
     11 C6         3.9518    3.6379    5.1924 C.ar      1 RES1    0.0000
     12 C7         3.1244    4.7140    4.9219 C.ar      1 RES1    0.0000
     13 H6         3.2872    5.2495    4.1539 H         1 RES1    0.0000
     14 C8         2.0665    5.0153    5.7518 C.ar      1 RES1    0.0000
     15 H7         1.5041    5.7520    5.5407 H         1 RES1    0.0000
     16 C9         4.6876    2.9447    4.0692 C.3       1 RES1    0.0000
     17 H8         5.3154    2.2828    4.4540 H         1 RES1    0.0000
     18 H9         5.2208    3.6133    3.5709 H         1 RES1    0.0000
     19 C10        3.7188    2.2124    3.0704 C.3       1 RES1    0.0000
     20 H10        3.6690    2.7314    2.2291 H         1 RES1    0.0000
     21 H11        4.0897    1.3195    2.8550 H         1 RES1    0.0000
     22 C11        2.3288    2.0464    3.6292 C.ar      1 RES1    0.0000
     23 C12        1.3137    2.9315    3.2968 C.ar      1 RES1    0.0000
     24 H12        1.3378    3.3769    2.4585 H         1 RES1    0.0000
     25 C13        0.2632    3.1767    4.1691 C.ar      1 RES1    0.0000
     26 H13       -0.4254    3.7815    3.9203 H         1 RES1    0.0000
     27 C14        0.2096    2.5456    5.4033 C.ar      1 RES1    0.0000
     28 C15        1.0603    1.4636    5.5928 C.ar      1 RES1    0.0000
     29 H14        0.9249    0.8874    6.3359 H         1 RES1    0.0000
     30 C16        2.1016    1.2107    4.7155 C.ar      1 RES1    0.0000
     31 H15        2.6657    0.4596    4.8569 H         1 RES1    0.0000
     32 O1         2.7874    0.5025    8.5554 O.3       1 RES1    0.0000
     33 O2         4.8999    0.1131    9.2164 O.2       1 RES1    0.0000
     34 N1         1.8357    1.6023    8.7208 N.3       1 RES1    0.0000
     35 N2         3.9692    2.2410    9.2361 N.am      1 RES1    0.0000
     36 C17        2.7207    2.7842    8.7106 C.3       1 RES1    0.0000
     37 H16        2.3644    3.4615    9.3538 H         1 RES1    0.0000
     38 C18        4.0034    0.8951    9.0531 C.2       1 RES1    0.0000
     39 C19        1.2127    1.3800   10.0311 C.3       1 RES1    0.0000
     40 H17        0.7532    0.5146   10.0311 H         1 RES1    0.0000
     41 H18        0.5660    2.0936   10.2112 H         1 RES1    0.0000
     42 H19        1.9034    1.3833   10.7256 H         1 RES1    0.0000
     43 C20        4.9757    3.0085    9.8813 C.ar      1 RES1    0.0000
     44 C21        5.6959    2.4719   10.9285 C.ar      1 RES1    0.0000
     45 H20        5.5493    1.5713   11.1950 H         1 RES1    0.0000
     46 C22        6.6276    3.2449   11.5872 C.ar      1 RES1    0.0000
     47 H21        7.1237    2.8733   12.3074 H         1 RES1    0.0000
     48 C23        6.8465    4.5501   11.2125 C.ar      1 RES1    0.0000
     49 H22        7.4859    5.0802   11.6729 H         1 RES1    0.0000
     50 C24        6.1321    5.0780   10.1674 C.ar      1 RES1    0.0000
     51 H23        6.2820    5.9774    9.9025 H         1 RES1    0.0000
     52 C25        5.1996    4.3192    9.4974 C.ar      1 RES1    0.0000
     53 H24        4.7117    4.6942    8.7729 H         1 RES1    0.0000
@<TRIPOS>BOND
     1    1    2 1
     2    3    1 1
     3    4    1 1
     4    5    4 1
     5    6    4 1
     6    7    4 1
     7    8    7 ar
     8    9    8 ar
     9   10    9 1
    10   11    9 ar
    11   12   11 ar
    12   13   12 1
    13   14    7 ar
    14   15   14 1
    15   16   11 1
    16   17   16 1
    17   18   16 1
    18   19   16 1
    19   20   19 1
    20   21   19 1
    21   22   19 1
    22   23   22 ar
    23   24   23 1
    24   25   23 ar
    25   26   25 1
    26   27    1 1
    27   28   27 ar
    28   29   28 1
    29   30   22 ar
    30   31   30 1
    31   32   34 1
    32   33   38 2
    33   34   36 1
    34   35   36 1
    35   36    8 1
    36   37   36 1
    37   38   32 1
    38   39   34 1
    39   40   39 1
    40   41   39 1
    41   42   39 1
    42   43   35 1
    43   44   43 ar
    44   45   44 1
    45   46   44 ar
    46   47   46 1
    47   48   46 ar
    48   49   48 1
    49   50   48 ar
    50   51   50 1
    51   52   43 ar
    52   53   52 1
    53   12   14 ar
    54   25   27 ar
    55   28   30 ar
    56   35   38 1
    57   50   52 ar
@<TRIPOS>SUBSTRUCTURE
     1 RES1 1

@<TRIPOS>CRYSIN
   8.3100   10.9960   21.4340  90.0000  90.0600  90.0000  14 1

