# MOL2 file generated by ConQuest
# Please check atom types

@<TRIPOS>MOLECULE
EZOLIO
    55    59     1
SMALL
NO_CHARGES
****
Generated from CSD

@<TRIPOS>ATOM
      1 O1         4.0711    8.1786   10.7890 O.3       1 RES1    0.0000
      2 N1         4.7157    7.2002   11.6266 N.3       1 RES1    0.0000
      3 C1         4.1071    7.4093   12.9673 C.3       1 RES1    0.0000
      4 H1         4.8220    7.3238   13.6620 H         1 RES1    0.0000
      5 C2         3.5691    8.8599   12.9847 C.3       1 RES1    0.0000
      6 H2         2.5949    8.8763   13.1598 H         1 RES1    0.0000
      7 H3         4.0302    9.4032   13.6719 H         1 RES1    0.0000
      8 C3         3.8873    9.3726   11.5690 C.3       1 RES1    0.0000
      9 H4         4.7276    9.9140   11.5761 H         1 RES1    0.0000
     10 C4         6.1624    7.4446   11.5935 C.3       1 RES1    0.0000
     11 H5         6.4798    7.4014   10.6667 H         1 RES1    0.0000
     12 H6         6.6209    6.7636   12.1278 H         1 RES1    0.0000
     13 H7         6.3519    8.3321   11.9637 H         1 RES1    0.0000
     14 C5         2.7369   10.1817   10.9488 C.ar      1 RES1    0.0000
     15 C6         2.7801   11.5568   10.9941 C.ar      1 RES1    0.0000
     16 H8         3.5214   11.9974   11.3923 H         1 RES1    0.0000
     17 C7         1.7122   12.3143   10.4428 C.ar      1 RES1    0.0000
     18 H9         1.7295   13.2637   10.4729 H         1 RES1    0.0000
     19 C8         0.6548   11.6577    9.8663 C.ar      1 RES1    0.0000
     20 H10       -0.0646   12.1551    9.4962 H         1 RES1    0.0000
     21 C9         0.6305   10.2523    9.8197 C.ar      1 RES1    0.0000
     22 H11       -0.1054    9.8044    9.4171 H         1 RES1    0.0000
     23 C10        1.6731    9.5169   10.3572 C.ar      1 RES1    0.0000
     24 H12        1.6606    8.5688   10.3207 H         1 RES1    0.0000
     25 C11        4.2856    6.1301   16.3136 C.3       1 RES1    0.0000
     26 H13        5.1172    6.6472   16.1690 H         1 RES1    0.0000
     27 H14        4.1756    5.9973   17.2881 H         1 RES1    0.0000
     28 C12        3.0475    6.9629   15.7556 C.3       1 RES1    0.0000
     29 H15        2.3644    7.0404   16.4676 H         1 RES1    0.0000
     30 H16        3.3508    7.8774   15.5284 H         1 RES1    0.0000
     31 C13        2.4092    6.3351   14.5266 C.ar      1 RES1    0.0000
     32 C14        3.0151    6.3743   13.2543 C.ar      1 RES1    0.0000
     33 C15        2.7377    5.3690   12.3312 C.ar      1 RES1    0.0000
     34 H17        3.1460    5.4010   11.4733 H         1 RES1    0.0000
     35 C16        1.8699    4.3123   12.6371 C.ar      1 RES1    0.0000
     36 C17        1.0680    4.4503   13.7727 C.ar      1 RES1    0.0000
     37 H18        0.3397    3.8578   13.9131 H         1 RES1    0.0000
     38 C18        1.3348    5.4532   14.6973 C.ar      1 RES1    0.0000
     39 H19        0.7762    5.5427   15.4612 H         1 RES1    0.0000
     40 C19        2.0330    2.9687   11.9500 C.3       1 RES1    0.0000
     41 H20        2.1924    3.1184   10.9850 H         1 RES1    0.0000
     42 H21        1.1907    2.4564   12.0408 H         1 RES1    0.0000
     43 C20        3.2323    2.1037   12.5457 C.3       1 RES1    0.0000
     44 H22        2.8864    1.2169   12.8158 H         1 RES1    0.0000
     45 H23        3.9093    1.9617   11.8371 H         1 RES1    0.0000
     46 C21        3.8986    2.7592   13.7417 C.ar      1 RES1    0.0000
     47 C22        3.2922    2.7287   15.0031 C.ar      1 RES1    0.0000
     48 H24        2.7012    2.0178   15.2240 H         1 RES1    0.0000
     49 C23        3.5453    3.7277   15.9355 C.ar      1 RES1    0.0000
     50 H25        3.1214    3.6960   16.7859 H         1 RES1    0.0000
     51 C24        4.4166    4.7781   15.6382 C.ar      1 RES1    0.0000
     52 C25        5.2311    4.6318   14.5120 C.ar      1 RES1    0.0000
     53 H26        5.9695    5.2151   14.3857 H         1 RES1    0.0000
     54 C26        4.9685    3.6361   13.5699 C.ar      1 RES1    0.0000
     55 H27        5.5242    3.5556   12.8039 H         1 RES1    0.0000
@<TRIPOS>BOND
     1    1    2 1
     2    2    3 1
     3    3    4 1
     4    5    3 1
     5    6    5 1
     6    7    5 1
     7    8    1 1
     8    9    8 1
     9   10    2 1
    10   11   10 1
    11   12   10 1
    12   13   10 1
    13   14    8 1
    14   15   14 ar
    15   16   15 1
    16   17   15 ar
    17   18   17 1
    18   19   17 ar
    19   20   19 1
    20   21   19 ar
    21   22   21 1
    22   23   14 ar
    23   24   23 1
    24   25   26 1
    25   27   25 1
    26   28   25 1
    27   29   28 1
    28   30   28 1
    29   31   28 1
    30   32    3 1
    31   33   32 ar
    32   34   33 1
    33   35   33 ar
    34   36   35 ar
    35   37   36 1
    36   38   31 ar
    37   39   38 1
    38   40   35 1
    39   41   40 1
    40   42   40 1
    41   43   40 1
    42   44   43 1
    43   45   43 1
    44   46   43 1
    45   47   46 ar
    46   48   47 1
    47   49   47 ar
    48   50   49 1
    49   51   25 1
    50   52   51 ar
    51   53   52 1
    52   54   46 ar
    53   55   54 1
    54    5    8 1
    55   21   23 ar
    56   31   32 ar
    57   36   38 ar
    58   49   51 ar
    59   52   54 ar
@<TRIPOS>SUBSTRUCTURE
     1 RES1 1

@<TRIPOS>CRYSIN
   7.5380   13.3720   19.7790  90.0000  91.5900  90.0000 231 1

