# MOL2 file generated by ConQuest
# Please check atom types

@<TRIPOS>MOLECULE
EZORUI
    95   102     1
SMALL
NO_CHARGES
****
Generated from CSD

@<TRIPOS>ATOM
      1 O1         2.0540    3.3562    4.8831 O.3       1 RES1    0.0000
      2 O2         0.0020    1.3852    5.2800 O.3       1 RES1    0.0000
      3 O3         1.0499    2.0682    7.1672 O.3       1 RES1    0.0000
      4 O4        -2.0197    3.3544    5.7511 O.3       1 RES1    0.0000
      5 O5        -1.9786    5.0641    7.2374 O.3       1 RES1    0.0000
      6 O6         4.4347   -1.4576   10.9490 O.3       1 RES1    0.0000
      7 O7         0.1592    0.2864    9.4735 O.3       1 RES1    0.0000
      8 O8         4.1783    1.0615    6.2084 O.3       1 RES1    0.0000
      9 O9         4.7586   -1.1880    6.0383 O.3       1 RES1    0.0000
     10 O10        5.4319    9.0184    8.8582 O.3       1 RES1    0.0000
     11 O11        2.2206    7.7270    5.6147 O.3       1 RES1    0.0000
     12 O12        5.4749    4.0328    8.8549 O.3       1 RES1    0.0000
     13 O13        3.2840    4.1679    9.6000 O.3       1 RES1    0.0000
     14 N1         2.9954    4.2309    5.4812 N.2       1 RES1    0.0000
     15 N2         0.5346    0.2426    5.9798 N.2       1 RES1    0.0000
     16 C1         0.7330    3.6882    5.3643 C.3       1 RES1    0.0000
     17 H1         0.1395    3.8982    4.5872 H         1 RES1    0.0000
     18 C2         0.1530    2.5143    6.1412 C.3       1 RES1    0.0000
     19 C3        -1.1617    2.9132    6.7976 C.3       1 RES1    0.0000
     20 H2        -1.5659    2.1342    7.2774 H         1 RES1    0.0000
     21 C4        -1.0184    4.1326    7.7583 C.3       1 RES1    0.0000
     22 C5         0.3531    4.8025    7.6806 C.3       1 RES1    0.0000
     23 H3         0.9995    4.2723    8.2106 H         1 RES1    0.0000
     24 H4         0.2935    5.7019    8.0900 H         1 RES1    0.0000
     25 C6         0.8887    4.9455    6.2433 C.3       1 RES1    0.0000
     26 H5         0.4599    5.7301    5.7956 H         1 RES1    0.0000
     27 C7         2.3901    5.0887    6.2057 C.2       1 RES1    0.0000
     28 C8        -1.3407    3.7745    9.2021 C.3       1 RES1    0.0000
     29 H6        -1.3589    4.5900    9.7456 H         1 RES1    0.0000
     30 H7        -0.6545    3.1667    9.5493 H         1 RES1    0.0000
     31 H8        -2.2165    3.3358    9.2420 H         1 RES1    0.0000
     32 C9        -2.7832    4.4640    6.2343 C.3       1 RES1    0.0000
     33 C10       -2.9557    5.4563    5.1162 C.3       1 RES1    0.0000
     34 H9        -3.4562    6.2335    5.4432 H         1 RES1    0.0000
     35 H10       -3.4474    5.0370    4.3796 H         1 RES1    0.0000
     36 H11       -2.0748    5.7455    4.7980 H         1 RES1    0.0000
     37 C11       -4.0976    3.9854    6.7991 C.3       1 RES1    0.0000
     38 H12       -3.9293    3.4063    7.5719 H         1 RES1    0.0000
     39 H13       -4.5848    3.4819    6.1125 H         1 RES1    0.0000
     40 H14       -4.6330    4.7565    7.0795 H         1 RES1    0.0000
     41 C12        1.1197    0.7193    7.0021 C.2       1 RES1    0.0000
     42 C13        1.9228   -0.0195    7.9944 C.ar      1 RES1    0.0000
     43 C14        3.2187   -0.4511    7.7035 C.ar      1 RES1    0.0000
     44 C15        4.0239   -0.9558    8.7101 C.ar      1 RES1    0.0000
     45 H15        4.9037   -1.2567    8.5131 H         1 RES1    0.0000
     46 C16        3.5385   -1.0206   10.0153 C.ar      1 RES1    0.0000
     47 C17        2.2416   -0.6382   10.3253 C.ar      1 RES1    0.0000
     48 H16        1.9090   -0.7161   11.2114 H         1 RES1    0.0000
     49 C18        1.4356   -0.1358    9.2991 C.ar      1 RES1    0.0000
     50 C19        3.7473   -0.2535    6.3064 C.3       1 RES1    0.0000
     51 H17        2.9991   -0.3946    5.6572 H         1 RES1    0.0000
     52 C20        4.5943    1.3447    4.8606 C.3       1 RES1    0.0000
     53 H18        4.9122    2.2803    4.7980 H         1 RES1    0.0000
     54 H19        3.8286    1.2362    4.2429 H         1 RES1    0.0000
     55 C21        5.7134    0.3910    4.4669 C.3       1 RES1    0.0000
     56 H20        5.9491    0.5214    3.5140 H         1 RES1    0.0000
     57 H21        6.5183    0.5688    5.0152 H         1 RES1    0.0000
     58 C22        5.2375   -1.0174    4.6915 C.3       1 RES1    0.0000
     59 H22        4.5102   -1.2260    4.0530 H         1 RES1    0.0000
     60 H23        5.9825   -1.6474    4.5228 H         1 RES1    0.0000
     61 C23        4.0462   -1.4170   12.3201 C.3       1 RES1    0.0000
     62 H24        3.7243   -0.5188   12.5420 H         1 RES1    0.0000
     63 H25        4.8159   -1.6359   12.8847 H         1 RES1    0.0000
     64 H26        3.3300   -2.0676   12.4760 H         1 RES1    0.0000
     65 C24       -0.3520    0.3154   10.8054 C.3       1 RES1    0.0000
     66 H27        0.2137    0.8929   11.3594 H         1 RES1    0.0000
     67 H28       -0.3519   -0.5918   11.1744 H         1 RES1    0.0000
     68 H29       -1.2671    0.6649   10.7963 H         1 RES1    0.0000
     69 C25        3.1889    6.0846    6.9667 C.ar      1 RES1    0.0000
     70 C26        4.0561    5.7196    7.9995 C.ar      1 RES1    0.0000
     71 C27        4.8317    6.6752    8.6512 C.ar      1 RES1    0.0000
     72 H30        5.4271    6.4142    9.3434 H         1 RES1    0.0000
     73 C28        4.7332    8.0070    8.2872 C.ar      1 RES1    0.0000
     74 C29        3.8586    8.4021    7.2697 C.ar      1 RES1    0.0000
     75 H31        3.7909    9.3170    7.0216 H         1 RES1    0.0000
     76 C30        3.0930    7.4435    6.6300 C.ar      1 RES1    0.0000
     77 C31        4.1455    4.2928    8.4866 C.3       1 RES1    0.0000
     78 H32        3.8616    3.6651    7.7617 H         1 RES1    0.0000
     79 C32        5.6171    2.6685    9.2755 C.3       1 RES1    0.0000
     80 H33        6.5570    2.4916    9.5316 H         1 RES1    0.0000
     81 H34        5.3788    2.0612    8.5308 H         1 RES1    0.0000
     82 C33        4.7091    2.4132   10.4544 C.3       1 RES1    0.0000
     83 H35        5.0135    2.9413   11.2339 H         1 RES1    0.0000
     84 H36        4.7353    1.4540   10.6981 H         1 RES1    0.0000
     85 C34        3.2970    2.8124   10.0814 C.3       1 RES1    0.0000
     86 H37        2.9527    2.2060    9.3788 H         1 RES1    0.0000
     87 H38        2.7074    2.7337   10.8735 H         1 RES1    0.0000
     88 C35        6.3348    8.6871    9.9033 C.3       1 RES1    0.0000
     89 H39        6.9594    8.0001    9.5895 H         1 RES1    0.0000
     90 H40        5.8337    8.3447   10.6724 H         1 RES1    0.0000
     91 H41        6.8354    9.4874   10.1688 H         1 RES1    0.0000
     92 C36        1.9670    9.1014    5.3228 C.3       1 RES1    0.0000
     93 H42        1.6681    9.5578    6.1367 H         1 RES1    0.0000
     94 H43        1.2697    9.1671    4.6371 H         1 RES1    0.0000
     95 H44        2.7888    9.5233    4.9943 H         1 RES1    0.0000
@<TRIPOS>BOND
     1    1   14 1
     2    2   15 1
     3    3   18 1
     4    4   19 1
     5    5   21 1
     6    6   46 1
     7    7   49 1
     8    8   50 1
     9    9   50 1
    10   10   73 1
    11   11   76 1
    12   12   77 1
    13   13   77 1
    14   14   27 2
    15   15   41 2
    16   16    1 1
    17   17   16 1
    18   18    2 1
    19   19   18 1
    20   20   19 1
    21   21   19 1
    22   22   21 1
    23   23   22 1
    24   24   22 1
    25   25   16 1
    26   26   25 1
    27   27   25 1
    28   28   21 1
    29   29   28 1
    30   30   28 1
    31   31   28 1
    32   32    4 1
    33   33   32 1
    34   34   33 1
    35   35   33 1
    36   36   33 1
    37   37   32 1
    38   38   37 1
    39   39   37 1
    40   40   37 1
    41   41    3 1
    42   42   41 1
    43   43   42 ar
    44   44   43 ar
    45   45   44 1
    46   46   44 ar
    47   47   46 ar
    48   48   47 1
    49   49   42 ar
    50   50   43 1
    51   51   50 1
    52   52    8 1
    53   53   52 1
    54   54   52 1
    55   55   52 1
    56   56   55 1
    57   57   55 1
    58   58    9 1
    59   59   58 1
    60   60   58 1
    61   61    6 1
    62   62   61 1
    63   63   61 1
    64   64   61 1
    65   65    7 1
    66   66   65 1
    67   67   65 1
    68   68   65 1
    69   69   27 1
    70   70   69 ar
    71   71   70 ar
    72   72   71 1
    73   73   71 ar
    74   74   73 ar
    75   75   74 1
    76   76   69 ar
    77   77   70 1
    78   78   77 1
    79   79   12 1
    80   80   79 1
    81   81   79 1
    82   82   79 1
    83   83   82 1
    84   84   82 1
    85   85   13 1
    86   86   85 1
    87   87   85 1
    88   88   10 1
    89   89   88 1
    90   90   88 1
    91   91   88 1
    92   92   11 1
    93   93   92 1
    94   94   92 1
    95   95   92 1
    96    5   32 1
    97   16   18 1
    98   22   25 1
    99   47   49 ar
   100   55   58 1
   101   74   76 ar
   102   82   85 1
@<TRIPOS>SUBSTRUCTURE
     1 RES1 1

@<TRIPOS>CRYSIN
  16.6159   12.8104   16.3903  90.0000 100.9880  90.0000  14 1

