# MOL2 file generated by ConQuest
# Please check atom types

@<TRIPOS>MOLECULE
EZUFIO
    69    57     2
SMALL
NO_CHARGES
****
Generated from CSD

@<TRIPOS>ATOM
      1 O1         8.3467   11.1926   10.8542 O.2       1 RES1    0.0000
      2 O2         9.4407   10.4313   13.2325 O.3       1 RES1    0.0000
      3 O3         8.2025   14.3241   14.6279 O.2       1 RES1    0.0000
      4 N1        10.1146   10.3114   11.9679 N.am      1 RES1    0.0000
      5 N2         7.4295   12.7877   13.1289 N.am      1 RES1    0.0000
      6 C1         9.4418   10.6343   10.8142 C.2       1 RES1    0.0000
      7 C2        10.1493   10.2976    9.4969 C.3       1 RES1    0.0000
      8 C3         9.4172   10.9573    8.3196 C.3       1 RES1    0.0000
      9 H1         8.5737   10.5167    8.1797 H         1 RES1    0.0000
     10 H2         9.9510   10.8858    7.5274 H         1 RES1    0.0000
     11 H3         9.2608   11.8846    8.5176 H         1 RES1    0.0000
     12 C4        10.1994    8.7555    9.3189 C.3       1 RES1    0.0000
     13 H4         9.3334    8.3841    9.5042 H         1 RES1    0.0000
     14 H5        10.8436    8.3841    9.9239 H         1 RES1    0.0000
     15 H6        10.4499    8.5467    8.4159 H         1 RES1    0.0000
     16 C5        11.6044   10.7543    9.5769 C.3       1 RES1    0.0000
     17 H7        12.0522   10.2768   10.2800 H         1 RES1    0.0000
     18 H8        11.6340   11.6966    9.7622 H         1 RES1    0.0000
     19 H9        12.0410   10.5778    8.7411 H         1 RES1    0.0000
     20 C6         8.3968   13.4152   13.8175 C.2       1 RES1    0.0000
     21 C7         9.8170   12.8535   13.5323 C.3       1 RES1    0.0000
     22 H10        9.9540   12.8362   12.5711 H         1 RES1    0.0000
     23 H11       10.4724   13.4625   13.9084 H         1 RES1    0.0000
     24 C8        10.0767   11.4579   14.0846 C.3       1 RES1    0.0000
     25 H12       11.0440   11.3010   14.0882 H         1 RES1    0.0000
     26 C9         9.5440   11.2307   15.5181 C.3       1 RES1    0.0000
     27 H13        9.7863   12.0011   16.0559 H         1 RES1    0.0000
     28 H14        8.5747   11.2018   15.4782 H         1 RES1    0.0000
     29 C10       10.0205    9.9827   16.2431 C.3       1 RES1    0.0000
     30 H15        9.8221    9.2157   15.6671 H         1 RES1    0.0000
     31 C11       11.5001    9.9781   16.5029 C.3       1 RES1    0.0000
     32 H16       11.7199   10.6839   17.1152 H         1 RES1    0.0000
     33 H17       11.9704   10.1130   15.6780 H         1 RES1    0.0000
     34 H18       11.7557    9.1338   16.8826 H         1 RES1    0.0000
     35 C12        9.2424    9.7866   17.5494 C.3       1 RES1    0.0000
     36 H19        9.4080   10.5282   18.1363 H         1 RES1    0.0000
     37 H20        9.5297    8.9746   17.9746 H         1 RES1    0.0000
     38 H21        8.3037    9.7324   17.3587 H         1 RES1    0.0000
     39 C13        5.9908   13.0830   13.2852 C.3       1 RES1    0.0000
     40 H22        5.8313   13.3990   14.1991 H         1 RES1    0.0000
     41 C14        5.5399   14.1395   12.3240 C.3       1 RES1    0.0000
     42 H23        5.7761   13.8754   11.4210 H         1 RES1    0.0000
     43 H24        5.9980   14.9711   12.5221 H         1 RES1    0.0000
     44 C15        4.0164   14.3610   12.4112 C.3       1 RES1    0.0000
     45 H25        3.7884   14.7047   13.2888 H         1 RES1    0.0000
     46 H26        3.7464   15.0196   11.7517 H         1 RES1    0.0000
     47 C16        3.2751   13.0796   12.1696 C.3       1 RES1    0.0000
     48 H27        2.3221   13.2387   12.2514 H         1 RES1    0.0000
     49 H28        3.4509   12.7728   11.2666 H         1 RES1    0.0000
     50 C17        3.6841   12.0277   13.1344 C.3       1 RES1    0.0000
     51 H29        3.2168   11.2030   12.9309 H         1 RES1    0.0000
     52 H30        3.4356   12.2987   14.0319 H         1 RES1    0.0000
     53 C18        5.2158   11.7866   13.0708 C.3       1 RES1    0.0000
     54 H31        5.4683   11.1442   13.7521 H         1 RES1    0.0000
     55 H32        5.4469   11.4129   12.2059 H         1 RES1    0.0000
     56 C19        9.2229    9.3887    8.7030 Du        2 SUP2    0.0000
     57 H33        9.2863    8.4983    9.0445 Du        2 SUP2    0.0000
     58 H34        9.4878    9.4025    7.7800 Du        2 SUP2    0.0000
     59 H35        8.3242    9.7082    8.7847 Du        2 SUP2    0.0000
     60 C20       11.5573    9.7370    9.5841 Du        2 SUP2    0.0000
     61 H36       11.5164    8.7912    9.7404 Du        2 SUP2    0.0000
     62 H37       12.0256   10.1603   10.3073 Du        2 SUP2    0.0000
     63 H38       12.0205    9.9066    8.7611 Du        2 SUP2    0.0000
     64 C21       10.2761   11.6493    8.7411 Du        2 SUP2    0.0000
     65 H39       10.6115   11.4902    7.8563 Du        2 SUP2    0.0000
     66 H40       10.8825   12.2237    9.2135 Du        2 SUP2    0.0000
     67 H41        9.4142   12.0680    8.6866 Du        2 SUP2    0.0000
     68 H42        7.5870   12.1338   12.4458 H         1 RES1    0.0000
     69 H43       10.7772    9.6194   11.9915 H         1 RES1    0.0000
@<TRIPOS>BOND
     1    1    6 2
     2    2    4 1
     3    3   20 2
     4    4    6 1
     5    5   20 1
     6    6    7 1
     7    7    8 1
     8    8    9 1
     9   10    8 1
    10   11    8 1
    11   12    7 1
    12   13   12 1
    13   14   12 1
    14   15   12 1
    15   16    7 1
    16   17   16 1
    17   18   16 1
    18   19   16 1
    19   20   21 1
    20   21   22 1
    21   23   21 1
    22   24    2 1
    23   25   24 1
    24   26   24 1
    25   27   26 1
    26   28   26 1
    27   29   26 1
    28   30   29 1
    29   31   29 1
    30   32   31 1
    31   33   31 1
    32   34   31 1
    33   35   29 1
    34   36   35 1
    35   37   35 1
    36   38   35 1
    37   39    5 1
    38   40   39 1
    39   41   39 1
    40   42   41 1
    41   43   41 1
    42   44   41 1
    43   45   44 1
    44   46   44 1
    45   47   44 1
    46   48   47 1
    47   49   47 1
    48   50   47 1
    49   51   50 1
    50   52   50 1
    51   53   39 1
    52   54   53 1
    53   55   53 1
    54   68    5 1
    55   69    4 1
    56   21   24 1
    57   50   53 1
@<TRIPOS>SUBSTRUCTURE
     1 RES1 1
     2 SUP2 56

@<TRIPOS>CRYSIN
  10.2250   11.5340   18.1690  90.0000  90.0000  90.0000  19 1

