# MOL2 file generated by ConQuest
# Please check atom types

@<TRIPOS>MOLECULE
EZUJAL
    48    51     1
SMALL
NO_CHARGES
****
Generated from CSD

@<TRIPOS>ATOM
      1 O1         0.1352    4.9296    1.4810 O.2       1 RES1    0.0000
      2 O2         3.1821    4.8222   -3.9319 O.2       1 RES1    0.0000
      3 O3         4.9042    5.1415   -2.8302 O.2       1 RES1    0.0000
      4 N1         1.6067    6.5091   -0.1824 N.3       1 RES1    0.0000
      5 H1         1.5570    6.8953    0.5850 H         1 RES1    0.0000
      6 N2         3.7494    5.0174   -2.9132 N.pl3     1 RES1    0.0000
      7 C1        -1.8582    3.1186    0.7440 C.ar      1 RES1    0.0000
      8 H2        -1.4756    3.0210    1.5854 H         1 RES1    0.0000
      9 C2        -2.9424    2.3547    0.4033 C.ar      1 RES1    0.0000
     10 H3        -3.3052    1.7622    1.0232 H         1 RES1    0.0000
     11 C3        -3.4944    2.4578   -0.8332 C.ar      1 RES1    0.0000
     12 H4        -4.2069    1.9071   -1.0719 H         1 RES1    0.0000
     13 C4        -3.0018    3.3765   -1.7368 C.ar      1 RES1    0.0000
     14 H5        -3.3976    3.4699   -2.5732 H         1 RES1    0.0000
     15 C5        -1.9088    4.1642   -1.3885 C.ar      1 RES1    0.0000
     16 H6        -1.5702    4.7832   -1.9938 H         1 RES1    0.0000
     17 C6        -1.3265    4.0248   -0.1387 C.ar      1 RES1    0.0000
     18 C7        -0.1667    4.8599    0.3071 C.2       1 RES1    0.0000
     19 C8         0.6608    5.5444   -0.7661 C.3       1 RES1    0.0000
     20 H7         0.0506    6.0337   -1.3581 H         1 RES1    0.0000
     21 C9         1.5237    4.5420   -1.6576 C.3       1 RES1    0.0000
     22 H8         1.1897    4.5908   -2.5776 H         1 RES1    0.0000
     23 C10        1.5499    3.0991   -1.2511 C.ar      1 RES1    0.0000
     24 C11        2.0561    2.6809   -0.0424 C.ar      1 RES1    0.0000
     25 H9         2.3640    3.3138    0.5654 H         1 RES1    0.0000
     26 C12        2.1177    1.3356    0.2887 C.ar      1 RES1    0.0000
     27 H10        2.4630    1.0749    1.1125 H         1 RES1    0.0000
     28 C13        1.6757    0.3945   -0.5933 C.ar      1 RES1    0.0000
     29 H11        1.7263   -0.5075   -0.3723 H         1 RES1    0.0000
     30 C14        1.1633    0.7682   -1.7855 C.ar      1 RES1    0.0000
     31 H12        0.8466    0.1227   -2.3756 H         1 RES1    0.0000
     32 C15        1.1064    2.1246   -2.1394 C.ar      1 RES1    0.0000
     33 H13        0.7719    2.3728   -2.9702 H         1 RES1    0.0000
     34 C16        2.9041    5.2070   -1.6196 C.3       1 RES1    0.0000
     35 H14        3.4020    4.7804   -0.8915 H         1 RES1    0.0000
     36 C17        2.6356    6.6666   -1.1802 C.3       1 RES1    0.0000
     37 H15        2.2453    7.1434   -1.9425 H         1 RES1    0.0000
     38 C18        3.8840    7.4083   -0.7579 C.ar      1 RES1    0.0000
     39 C19        4.4026    8.3828   -1.5588 C.ar      1 RES1    0.0000
     40 H16        3.9738    8.6100   -2.3522 H         1 RES1    0.0000
     41 C20        5.5681    9.0324   -1.1859 C.ar      1 RES1    0.0000
     42 H17        5.9200    9.6946   -1.7361 H         1 RES1    0.0000
     43 C21        6.1926    8.7216   -0.0500 C.ar      1 RES1    0.0000
     44 H18        6.9755    9.1663    0.1842 H         1 RES1    0.0000
     45 C22        5.6978    7.7722    0.7585 C.ar      1 RES1    0.0000
     46 H19        6.1355    7.5561    1.5512 H         1 RES1    0.0000
     47 C23        4.5411    7.1183    0.4046 C.ar      1 RES1    0.0000
     48 H20        4.1959    6.4631    0.9694 H         1 RES1    0.0000
@<TRIPOS>BOND
     1    1   18 2
     2    2    6 2
     3    3    6 2
     4    4    5 1
     5    6   34 1
     6    7    8 1
     7    9    7 ar
     8   10    9 1
     9   11    9 ar
    10   12   11 1
    11   13   11 ar
    12   14   13 1
    13   15   13 ar
    14   16   15 1
    15   17    7 ar
    16   18   17 1
    17   19    4 1
    18   20   19 1
    19   21   19 1
    20   22   21 1
    21   23   21 1
    22   24   23 ar
    23   25   24 1
    24   26   24 ar
    25   27   26 1
    26   28   26 ar
    27   29   28 1
    28   30   28 ar
    29   31   30 1
    30   32   23 ar
    31   33   32 1
    32   34   21 1
    33   35   34 1
    34   36    4 1
    35   37   36 1
    36   38   36 1
    37   39   38 ar
    38   40   39 1
    39   41   39 ar
    40   42   41 1
    41   43   41 ar
    42   44   43 1
    43   45   43 ar
    44   46   45 1
    45   47   38 ar
    46   48   47 1
    47   15   17 ar
    48   18   19 1
    49   30   32 ar
    50   34   36 1
    51   45   47 ar
@<TRIPOS>SUBSTRUCTURE
     1 RES1 1

@<TRIPOS>CRYSIN
  21.9909   13.9411    6.3316  90.0000  90.0000  90.0000  33 1

