# MOL2 file generated by ConQuest
# Please check atom types

@<TRIPOS>MOLECULE
EZUJOZ
    47    48     1
SMALL
NO_CHARGES
****
Generated from CSD

@<TRIPOS>ATOM
      1 O1         5.1521   10.4660    2.9178 O.3       1 RES1    0.0000
      2 O2         9.6030   11.1309    2.8410 O.2       1 RES1    0.0000
      3 O3         7.8648   12.5109    2.8533 O.3       1 RES1    0.0000
      4 O4         7.0174    8.5619   -2.0486 O.2       1 RES1    0.0000
      5 O5         6.6426   10.0566    4.5064 O.2       1 RES1    0.0000
      6 N1         8.0391    8.9828    2.1030 N.3       1 RES1    0.0000
      7 C1         7.4179   10.2961    2.2390 C.3       1 RES1    0.0000
      8 C2         6.8439   10.5884    0.8769 C.2       1 RES1    0.0000
      9 H1         6.3850   11.3649    0.6531 H         1 RES1    0.0000
     10 C3         7.0824    9.5872    0.0409 C.2       1 RES1    0.0000
     11 C4         6.0848    6.9085    1.6481 C.ar      1 RES1    0.0000
     12 H2         5.8527    7.5719    2.2570 H         1 RES1    0.0000
     13 C5         7.8432    8.4740    0.7290 C.3       1 RES1    0.0000
     14 H3         8.7153    8.3619    0.2977 H         1 RES1    0.0000
     15 C6         5.4116    5.6963    1.6637 C.ar      1 RES1    0.0000
     16 H4         4.7226    5.5405    2.2685 H         1 RES1    0.0000
     17 O6         4.1947    3.2834    1.6010 O.2       1 RES1    0.0000
     18 C7         7.1052    7.1428    0.7292 C.ar      1 RES1    0.0000
     19 C8         6.3646   10.2655    3.3679 C.2       1 RES1    0.0000
     20 C9         6.7977    4.9207   -0.1587 C.ar      1 RES1    0.0000
     21 H5         7.0298    4.2508   -0.7607 H         1 RES1    0.0000
     22 C10        8.4504   11.3568    2.6746 C.2       1 RES1    0.0000
     23 C11        6.7092    9.5280   -1.3942 C.2       1 RES1    0.0000
     24 O7         5.4028    2.5800    0.0031 O.2       1 RES1    0.0000
     25 C12        7.4541    6.1420   -0.1579 C.ar      1 RES1    0.0000
     26 H6         8.1422    6.2899   -0.7664 H         1 RES1    0.0000
     27 C13        5.7907    4.7308    0.7597 C.ar      1 RES1    0.0000
     28 C14        5.9678   10.6750   -2.0119 C.3       1 RES1    0.0000
     29 H7         6.4382   11.4926   -1.8325 H         1 RES1    0.0000
     30 H8         5.0857   10.7256   -1.6366 H         1 RES1    0.0000
     31 H9         5.9058   10.5418   -2.9601 H         1 RES1    0.0000
     32 N2         5.0777    3.4417    0.7799 N.pl3     1 RES1    0.0000
     33 C15        4.0654   10.5385    3.8926 C.3       1 RES1    0.0000
     34 H10        4.2859    9.9982    4.6677 H         1 RES1    0.0000
     35 H11        3.2514   10.1864    3.4998 H         1 RES1    0.0000
     36 C16        3.8510   11.9448    4.3085 C.3       1 RES1    0.0000
     37 H12        4.6083   12.2475    4.8156 H         1 RES1    0.0000
     38 H13        3.0601   12.0021    4.8483 H         1 RES1    0.0000
     39 H14        3.7474   12.4961    3.5306 H         1 RES1    0.0000
     40 C17        8.6834   13.5976    3.4115 C.3       1 RES1    0.0000
     41 H15        9.2396   13.2565    4.1299 H         1 RES1    0.0000
     42 H16        9.2627   13.9608    2.7238 H         1 RES1    0.0000
     43 C18        7.8278   14.6067    3.9032 C.3       1 RES1    0.0000
     44 H17        7.3159   14.9731    3.1771 H         1 RES1    0.0000
     45 H18        8.3522   15.3022    4.3066 H         1 RES1    0.0000
     46 H19        7.2335   14.2326    4.5563 H         1 RES1    0.0000
     47 H20        8.9367    9.1003    2.2782 H         1 RES1    0.0000
@<TRIPOS>BOND
     1    1   19 1
     2    2   22 2
     3    3   22 1
     4    4   23 2
     5    5   19 2
     6    6    7 1
     7    7    8 1
     8    8    9 1
     9   10    8 2
    10   11   12 1
    11   13    6 1
    12   14   13 1
    13   15   11 ar
    14   16   15 1
    15   17   32 2
    16   18   11 ar
    17   19    7 1
    18   20   21 1
    19   22    7 1
    20   23   10 1
    21   24   32 2
    22   25   18 ar
    23   26   25 1
    24   27   15 ar
    25   28   23 1
    26   29   28 1
    27   30   28 1
    28   31   28 1
    29   32   27 1
    30   33    1 1
    31   34   33 1
    32   35   33 1
    33   36   33 1
    34   37   36 1
    35   38   36 1
    36   39   36 1
    37   40    3 1
    38   41   40 1
    39   42   40 1
    40   43   40 1
    41   44   43 1
    42   45   43 1
    43   46   43 1
    44   47    6 1
    45   10   13 1
    46   13   18 1
    47   20   25 ar
    48   20   27 ar
@<TRIPOS>SUBSTRUCTURE
     1 RES1 1

@<TRIPOS>CRYSIN
   8.8570   11.0040   19.2087  90.0000  90.0000  90.0000  19 1

