# MOL2 file generated by ConQuest
# Please check atom types

@<TRIPOS>MOLECULE
EZUMAO
    67    72     1
SMALL
NO_CHARGES
****
Generated from CSD

@<TRIPOS>ATOM
      1 C1         9.6525    3.3345    9.0384 C.2       1 RES1    0.0000
      2 N1        10.4490    3.0322    7.9718 N.am      1 RES1    0.0000
      3 C2        11.5448    2.2380    8.3067 C.2       1 RES1    0.0000
      4 C3        11.4062    1.8403    9.7615 C.3       1 RES1    0.0000
      5 H1        12.2316    2.0541   10.2454 H         1 RES1    0.0000
      6 C4        11.1513    0.3177    9.8035 C.3       1 RES1    0.0000
      7 H2        10.5245    0.0863    9.1017 H         1 RES1    0.0000
      8 H3        11.9844   -0.1436    9.6184 H         1 RES1    0.0000
      9 C5        10.5989   -0.1800   11.1439 C.3       1 RES1    0.0000
     10 H4        11.2744    0.0030   11.8296 H         1 RES1    0.0000
     11 C6         9.3777    0.6305   11.4807 C.2       1 RES1    0.0000
     12 C7         8.1993    0.3362   12.2566 C.ar      1 RES1    0.0000
     13 C8         7.7209   -0.7788   12.9415 C.ar      1 RES1    0.0000
     14 H5         8.2102   -1.5689   12.9775 H         1 RES1    0.0000
     15 C9         6.4984   -0.6666   13.5637 C.ar      1 RES1    0.0000
     16 C10        5.7152    0.4936   13.5312 C.ar      1 RES1    0.0000
     17 H6         4.8879    0.5097   13.9561 H         1 RES1    0.0000
     18 C11        6.1682    1.6023   12.8719 C.ar      1 RES1    0.0000
     19 H7         5.6646    2.3837   12.8392 H         1 RES1    0.0000
     20 C12        7.4060    1.5191   12.2538 C.ar      1 RES1    0.0000
     21 N2         8.0768    2.4659   11.5338 N.pl3     1 RES1    0.0000
     22 H8         7.8047    3.2693   11.3919 H         1 RES1    0.0000
     23 C13        9.2558    1.9294   11.0704 C.2       1 RES1    0.0000
     24 C14       10.2556    2.7066   10.2849 C.3       1 RES1    0.0000
     25 H9        10.6237    3.4163   10.8525 H         1 RES1    0.0000
     26 O1         8.6455    4.0041    8.9808 O.2       1 RES1    0.0000
     27 C15       10.1583    3.4522    6.6089 C.3       1 RES1    0.0000
     28 H10       10.9869    3.4744    6.1054 H         1 RES1    0.0000
     29 H11        9.8028    4.3546    6.6293 H         1 RES1    0.0000
     30 O2        12.3976    1.9126    7.5219 O.2       1 RES1    0.0000
     31 N3         5.9826   -1.8112   14.3113 N.pl3     1 RES1    0.0000
     32 O3         6.6256   -2.8349   14.3301 O.2       1 RES1    0.0000
     33 O4         4.9240   -1.6929   14.9131 O.2       1 RES1    0.0000
     34 C16       10.3896   -1.6828   11.0937 C.ar      1 RES1    0.0000
     35 C17        9.4356   -2.2441   10.2569 C.ar      1 RES1    0.0000
     36 H12        8.8704   -1.6936    9.7653 H         1 RES1    0.0000
     37 C18        9.3224   -3.6164   10.1512 C.ar      1 RES1    0.0000
     38 C19       10.1618   -4.4538   10.8771 C.ar      1 RES1    0.0000
     39 C20       11.1111   -3.8931   11.7224 C.ar      1 RES1    0.0000
     40 C21       11.2155   -2.5122   11.8423 C.ar      1 RES1    0.0000
     41 H13       11.8401   -2.1427   12.4241 H         1 RES1    0.0000
     42 O5         8.4020   -4.2596    9.3585 O.3       1 RES1    0.0000
     43 C22        7.8287   -3.5266    8.3108 C.3       1 RES1    0.0000
     44 H14        8.5178   -3.0623    7.8309 H         1 RES1    0.0000
     45 H15        7.2033   -2.8919    8.6682 H         1 RES1    0.0000
     46 H16        7.3702   -4.1250    7.7151 H         1 RES1    0.0000
     47 O6        10.0654   -5.8269   10.8015 O.3       1 RES1    0.0000
     48 C23       10.5499   -6.3831    9.5870 C.3       1 RES1    0.0000
     49 H17       11.4280   -6.0401    9.4052 H         1 RES1    0.0000
     50 H18        9.9591   -6.1453    8.8687 H         1 RES1    0.0000
     51 H19       10.5891   -7.3390    9.6664 H         1 RES1    0.0000
     52 O7        11.9266   -4.7901   12.3719 O.3       1 RES1    0.0000
     53 C24       12.8462   -4.2768   13.3355 C.3       1 RES1    0.0000
     54 H20       12.3739   -3.7335   13.9702 H         1 RES1    0.0000
     55 H21       13.5109   -3.7458   12.8914 H         1 RES1    0.0000
     56 H22       13.2712   -5.0067   13.7923 H         1 RES1    0.0000
     57 C25        9.1739    2.5583    5.8864 C.ar      1 RES1    0.0000
     58 C26        8.8279    2.8941    4.5932 C.ar      1 RES1    0.0000
     59 H23        9.1698    3.6690    4.2091 H         1 RES1    0.0000
     60 C27        7.9793    2.0887    3.8717 C.ar      1 RES1    0.0000
     61 H24        7.7526    2.3228    3.0005 H         1 RES1    0.0000
     62 C28        7.4682    0.9488    4.4223 C.ar      1 RES1    0.0000
     63 H25        6.8959    0.4089    3.9267 H         1 RES1    0.0000
     64 C29        7.7961    0.6028    5.6988 C.ar      1 RES1    0.0000
     65 H26        7.4465   -0.1712    6.0772 H         1 RES1    0.0000
     66 C30        8.6522    1.4096    6.4326 C.ar      1 RES1    0.0000
     67 H27        8.8760    1.1715    7.3028 H         1 RES1    0.0000
@<TRIPOS>BOND
     1    1    2 1
     2    2    3 1
     3    3    4 1
     4    4    5 1
     5    6    4 1
     6    7    6 1
     7    8    6 1
     8    9    6 1
     9   10    9 1
    10   11    9 1
    11   12   11 1
    12   13   12 ar
    13   14   13 1
    14   15   13 ar
    15   16   15 ar
    16   17   16 1
    17   18   16 ar
    18   19   18 1
    19   20   12 ar
    20   21   20 1
    21   22   21 1
    22   23   11 2
    23   24    1 1
    24   25   24 1
    25   26    1 2
    26   27    2 1
    27   28   27 1
    28   29   27 1
    29   30    3 2
    30   31   15 1
    31   32   31 2
    32   33   31 2
    33   34    9 1
    34   35   34 ar
    35   36   35 1
    36   37   35 ar
    37   38   37 ar
    38   39   38 ar
    39   40   34 ar
    40   41   40 1
    41   42   37 1
    42   43   42 1
    43   44   43 1
    44   45   43 1
    45   46   43 1
    46   47   38 1
    47   48   47 1
    48   49   48 1
    49   50   48 1
    50   51   48 1
    51   52   39 1
    52   53   52 1
    53   54   53 1
    54   55   53 1
    55   56   53 1
    56   57   27 1
    57   58   57 ar
    58   59   58 1
    59   60   58 ar
    60   61   60 1
    61   62   60 ar
    62   63   62 1
    63   64   62 ar
    64   65   64 1
    65   66   57 ar
    66   67   66 1
    67    4   24 1
    68   18   20 ar
    69   21   23 1
    70   23   24 1
    71   39   40 ar
    72   64   66 ar
@<TRIPOS>SUBSTRUCTURE
     1 RES1 1

@<TRIPOS>CRYSIN
   9.4540   10.6910   14.6120  82.9300  75.1500  66.6300   2 1

