# MOL2 file generated by ConQuest
# Please check atom types

@<TRIPOS>MOLECULE
EZUVOM
    73    76     1
SMALL
NO_CHARGES
****
Generated from CSD

@<TRIPOS>ATOM
      1 C1        10.5382   -5.2013    8.2140 C.ar      1 RES1    0.0000
      2 C2        10.9295   -5.3659    6.8938 C.ar      1 RES1    0.0000
      3 H1        11.1271   -6.2327    6.5598 H         1 RES1    0.0000
      4 C3        11.0306   -4.2667    6.0664 C.ar      1 RES1    0.0000
      5 H2        11.2826   -4.3775    5.1571 H         1 RES1    0.0000
      6 C4        10.7613   -2.9891    6.5658 C.ar      1 RES1    0.0000
      7 C5        10.4262   -2.8462    7.9107 C.ar      1 RES1    0.0000
      8 H3        10.2766   -1.9730    8.2558 H         1 RES1    0.0000
      9 C6        10.3017   -3.9381    8.7672 C.ar      1 RES1    0.0000
     10 C7         9.9444   -3.6328   10.2170 C.3       1 RES1    0.0000
     11 H4        10.2432   -4.3711   10.8217 H         1 RES1    0.0000
     12 C8         9.7817   -2.0364   11.7802 C.3       1 RES1    0.0000
     13 H5         9.7503   -1.0537   11.8959 H         1 RES1    0.0000
     14 H6        10.1793   -2.4442   12.5896 H         1 RES1    0.0000
     15 C9         8.3980   -2.5987   11.5102 C.3       1 RES1    0.0000
     16 H7         8.0828   -3.1420   12.2752 H         1 RES1    0.0000
     17 H8         7.7473   -1.8706   11.3461 H         1 RES1    0.0000
     18 C10       10.8287   -1.8468    5.5899 C.2       1 RES1    0.0000
     19 C11       10.8467    0.6408    5.4832 C.ar      1 RES1    0.0000
     20 C12       11.0392    0.7467    4.1066 C.ar      1 RES1    0.0000
     21 H9        11.0048   -0.0320    3.5640 H         1 RES1    0.0000
     22 C13       11.2792    1.9789    3.5283 C.ar      1 RES1    0.0000
     23 H10       11.4207    2.0370    2.5912 H         1 RES1    0.0000
     24 C14       11.3169    3.1329    4.2982 C.ar      1 RES1    0.0000
     25 C15       11.0602    3.0397    5.6611 C.ar      1 RES1    0.0000
     26 H11       11.0560    3.8295    6.1891 H         1 RES1    0.0000
     27 C16       10.8095    1.8162    6.2662 C.ar      1 RES1    0.0000
     28 C17       10.5079    1.7990    7.7376 C.3       1 RES1    0.0000
     29 H12       10.5792    2.7258    8.1064 H         1 RES1    0.0000
     30 C18       10.7261    0.7873    9.7133 C.3       1 RES1    0.0000
     31 H13       10.9182    1.5543   10.3085 H         1 RES1    0.0000
     32 H14       11.0080   -0.0487   10.1619 H         1 RES1    0.0000
     33 C19        9.2390    0.7388    9.3357 C.3       1 RES1    0.0000
     34 H15        8.8995   -0.1908    9.3512 H         1 RES1    0.0000
     35 H16        8.6980    1.2906    9.9546 H         1 RES1    0.0000
     36 C20       11.6589    4.4552    3.7113 C.2       1 RES1    0.0000
     37 C21       12.3855    5.5857    1.7647 C.3       1 RES1    0.0000
     38 H17       13.1997    5.9472    2.1979 H         1 RES1    0.0000
     39 H18       11.6636    6.2596    1.8426 H         1 RES1    0.0000
     40 C22       12.6605    5.2925    0.3212 C.3       1 RES1    0.0000
     41 H19       11.9314    4.7360   -0.0493 H         1 RES1    0.0000
     42 H20       12.6902    6.1405   -0.1903 H         1 RES1    0.0000
     43 C23       14.2084    4.4121   -1.1961 C.3       1 RES1    0.0000
     44 H21       14.1074    5.2673   -1.6847 H         1 RES1    0.0000
     45 H22       13.5773    3.7578   -1.5874 H         1 RES1    0.0000
     46 C24       15.6164    3.9079   -1.3478 C.3       1 RES1    0.0000
     47 H23       15.9147    4.0331   -2.2839 H         1 RES1    0.0000
     48 H24       16.2210    4.4274   -0.7599 H         1 RES1    0.0000
     49 C25       17.0154    2.0363   -1.1394 C.3       1 RES1    0.0000
     50 H25       17.6031    2.4621   -0.4652 H         1 RES1    0.0000
     51 H26       17.3675    2.2534   -2.0386 H         1 RES1    0.0000
     52 C26       17.0059    0.5464   -0.9405 C.3       1 RES1    0.0000
     53 H27       16.2528    0.1485   -1.4451 H         1 RES1    0.0000
     54 H28       17.8475    0.1600   -1.2900 H         1 RES1    0.0000
     55 C27       16.4466   -1.1030    0.6353 C.3       1 RES1    0.0000
     56 H29       16.3666   -1.2816    1.5959 H         1 RES1    0.0000
     57 H30       15.5763   -1.2342    0.2058 H         1 RES1    0.0000
     58 H31       17.1003   -1.7169    0.2425 H         1 RES1    0.0000
     59 N1        10.3573   -6.4282    9.0084 N.pl3     1 RES1    0.0000
     60 N2        10.6943   -0.5963    6.1283 N.am      1 RES1    0.0000
     61 H32       10.7341   -0.5544    6.8784 H         1 RES1    0.0000
     62 O1        10.8650   -7.4639    8.5916 O.2       1 RES1    0.0000
     63 O2         9.6736   -6.3618   10.0327 O.2       1 RES1    0.0000
     64 O3        10.5257   -2.3947   10.6006 O.3       1 RES1    0.0000
     65 O4         8.5605   -3.4181   10.3313 O.3       1 RES1    0.0000
     66 O5        10.9589   -2.0662    4.3961 O.2       1 RES1    0.0000
     67 O6         9.2057    1.2805    7.9942 O.3       1 RES1    0.0000
     68 O7        11.3768    0.9399    8.4446 O.3       1 RES1    0.0000
     69 O8        11.6836    5.4957    4.3188 O.2       1 RES1    0.0000
     70 O9        11.9858    4.3538    2.4085 O.3       1 RES1    0.0000
     71 O10       13.8985    4.6092    0.1841 O.3       1 RES1    0.0000
     72 O11       15.6860    2.5323   -1.0062 O.3       1 RES1    0.0000
     73 O12       16.8744    0.2346    0.4366 O.3       1 RES1    0.0000
@<TRIPOS>BOND
     1    1    2 ar
     2    2    3 1
     3    4    2 ar
     4    5    4 1
     5    6    4 ar
     6    7    6 ar
     7    8    7 1
     8    9    1 ar
     9   10    9 1
    10   11   10 1
    11   12   13 1
    12   14   12 1
    13   15   12 1
    14   16   15 1
    15   17   15 1
    16   18    6 1
    17   19   20 ar
    18   20   21 1
    19   22   20 ar
    20   23   22 1
    21   24   22 ar
    22   25   24 ar
    23   26   25 1
    24   27   19 ar
    25   28   27 1
    26   29   28 1
    27   30   31 1
    28   32   30 1
    29   33   30 1
    30   34   33 1
    31   35   33 1
    32   36   24 1
    33   37   38 1
    34   39   37 1
    35   40   37 1
    36   41   40 1
    37   42   40 1
    38   43   44 1
    39   45   43 1
    40   46   43 1
    41   47   46 1
    42   48   46 1
    43   49   50 1
    44   51   49 1
    45   52   49 1
    46   53   52 1
    47   54   52 1
    48   55   56 1
    49   57   55 1
    50   58   55 1
    51   59    1 1
    52   60   18 1
    53   61   60 1
    54   62   59 2
    55   63   59 2
    56   64   10 1
    57   65   10 1
    58   66   18 2
    59   67   28 1
    60   68   28 1
    61   69   36 2
    62   70   36 1
    63   71   40 1
    64   72   46 1
    65   73   52 1
    66    7    9 ar
    67   12   64 1
    68   15   65 1
    69   19   60 1
    70   25   27 ar
    71   30   68 1
    72   33   67 1
    73   37   70 1
    74   43   71 1
    75   49   72 1
    76   55   73 1
@<TRIPOS>SUBSTRUCTURE
     1 RES1 1

@<TRIPOS>CRYSIN
  14.5173   12.8034   14.6624  90.0000 105.9480  90.0000 231 1

