# MOL2 file generated by ConQuest
# Please check atom types

@<TRIPOS>MOLECULE
FABDOB
    47    49     1
SMALL
NO_CHARGES
****
Generated from CSD

@<TRIPOS>ATOM
      1 N1         1.4235    2.7003    0.6445 N.3       1 RES1    0.0000
      2 C1         0.9856    1.3109    0.4899 C.3       1 RES1    0.0000
      3 C2         0.3049    3.5649    0.3092 C.3       1 RES1    0.0000
      4 C3         0.7054    5.0254    0.3440 C.3       1 RES1    0.0000
      5 C4         1.2771    5.3854    1.6962 C.3       1 RES1    0.0000
      6 C5         2.3780    4.4295    2.0838 C.3       1 RES1    0.0000
      7 C6         2.9345    4.7465    3.4555 C.3       1 RES1    0.0000
      8 C7         4.0031    3.7956    3.9128 C.3       1 RES1    0.0000
      9 C8         3.4840    2.3682    3.8431 C.3       1 RES1    0.0000
     10 C9         3.0080    2.0385    2.4496 C.3       1 RES1    0.0000
     11 C10        1.9084    2.9767    2.0163 C.3       1 RES1    0.0000
     12 C11        3.5810    8.3976    3.7342 C.ar      1 RES1    0.0000
     13 C12        2.9079    9.5436    4.0870 C.ar      1 RES1    0.0000
     14 C13        3.4276   10.7733    3.7473 C.ar      1 RES1    0.0000
     15 N2         2.6702   11.9904    4.0913 N.pl3     1 RES1    0.0000
     16 O1         3.1367   13.0553    3.7517 O.2       1 RES1    0.0000
     17 O2         1.6225   11.8661    4.6727 O.2       1 RES1    0.0000
     18 C14        4.6134   10.8900    3.0854 C.ar      1 RES1    0.0000
     19 C15        5.2853    9.7389    2.7522 C.ar      1 RES1    0.0000
     20 N3         6.5548    9.8327    2.0184 N.pl3     1 RES1    0.0000
     21 O3         6.9933   10.9407    1.7572 O.2       1 RES1    0.0000
     22 O4         7.0922    8.8007    1.6853 O.2       1 RES1    0.0000
     23 C16        4.7991    8.4838    3.0701 C.ar      1 RES1    0.0000
     24 C17        2.9339    7.0664    4.0565 C.2       1 RES1    0.0000
     25 O5         3.5246    6.0928    3.3967 O.3       1 RES1    0.0000
     26 O6         1.9787    6.9752    4.7620 O.2       1 RES1    0.0000
     27 H1         1.7518    0.7480    0.6162 H         1 RES1    0.0000
     28 H2         0.5996    1.1359   -0.3723 H         1 RES1    0.0000
     29 H3         0.3372    1.1283    1.1736 H         1 RES1    0.0000
     30 H4        -0.0057    3.3443   -0.5727 H         1 RES1    0.0000
     31 H5        -0.4025    3.4204    0.9428 H         1 RES1    0.0000
     32 H6        -0.0659    5.5705    0.1698 H         1 RES1    0.0000
     33 H7         1.3690    5.1876   -0.3310 H         1 RES1    0.0000
     34 H8         0.5780    5.3448    2.3516 H         1 RES1    0.0000
     35 H9         1.6314    6.2779    1.6614 H         1 RES1    0.0000
     36 H10        3.0847    4.5436    1.4458 H         1 RES1    0.0000
     37 H11        2.2094    4.6755    4.0804 H         1 RES1    0.0000
     38 H12        4.7712    3.8819    3.3445 H         1 RES1    0.0000
     39 H13        4.2496    4.0036    4.8164 H         1 RES1    0.0000
     40 H14        2.7526    2.2718    4.4571 H         1 RES1    0.0000
     41 H15        4.1894    1.7647    4.0870 H         1 RES1    0.0000
     42 H16        2.6759    1.1384    2.4343 H         1 RES1    0.0000
     43 H17        3.7451    2.1171    1.8399 H         1 RES1    0.0000
     44 H18        1.1827    2.8322    2.6281 H         1 RES1    0.0000
     45 H19        2.0795    9.4878    4.5682 H         1 RES1    0.0000
     46 H20        4.9684   11.7520    2.8567 H         1 RES1    0.0000
     47 H21        5.2903    7.6927    2.8372 H         1 RES1    0.0000
@<TRIPOS>BOND
     1    1    2 1
     2    2   27 1
     3    3    1 1
     4    4    3 1
     5    5    4 1
     6    6    5 1
     7    7    6 1
     8    8    7 1
     9    9    8 1
    10   10    9 1
    11   11    1 1
    12   12   13 ar
    13   13   14 ar
    14   14   15 1
    15   15   16 2
    16   17   15 2
    17   18   14 ar
    18   19   18 ar
    19   20   19 1
    20   21   20 2
    21   22   20 2
    22   23   12 ar
    23   24   12 1
    24   25    7 1
    25   26   24 2
    26   28    2 1
    27   29    2 1
    28   30    3 1
    29   31    3 1
    30   32    4 1
    31   33    4 1
    32   34    5 1
    33   35    5 1
    34   36    6 1
    35   37    7 1
    36   38    8 1
    37   39    8 1
    38   40    9 1
    39   41    9 1
    40   42   10 1
    41   43   10 1
    42   44   11 1
    43   45   13 1
    44   46   18 1
    45   47   23 1
    46    6   11 1
    47   10   11 1
    48   19   23 ar
    49   24   25 1
@<TRIPOS>SUBSTRUCTURE
     1 RES1 1

@<TRIPOS>CRYSIN
   6.3380   25.3550   21.7740  90.0000  90.0000  90.0000  61 1

