# MOL2 file generated by ConQuest
# Please check atom types

@<TRIPOS>MOLECULE
FABRAD
    27    27     1
SMALL
NO_CHARGES
****
Generated from CSD

@<TRIPOS>ATOM
      1 N1         7.5321    4.3230    6.7693 N.2       1 RES1    0.0000
      2 N2         2.6974    5.2790   10.2808 N.pl3     1 RES1    0.0000
      3 O1         7.8364    6.2900    8.5341 O.3       1 RES1    0.0000
      4 H1         7.9653    5.9156    7.8154 H         1 RES1    0.0000
      5 O2         2.0883    4.3108    9.8391 O.2       1 RES1    0.0000
      6 O3         2.1887    6.0516   11.0826 O.2       1 RES1    0.0000
      7 C1         5.8857    4.9590    8.3982 C.ar      1 RES1    0.0000
      8 C2         6.6629    6.0730    8.9133 C.ar      1 RES1    0.0000
      9 C3         5.9938    6.9052    9.8652 C.ar      1 RES1    0.0000
     10 H2         6.4376    7.6540   10.1930 H         1 RES1    0.0000
     11 C4         4.7390    6.6471   10.3098 C.ar      1 RES1    0.0000
     12 H3         4.3406    7.2096   10.9340 H         1 RES1    0.0000
     13 C5         4.0401    5.5261    9.8247 C.ar      1 RES1    0.0000
     14 C6         4.6013    4.7136    8.8819 C.ar      1 RES1    0.0000
     15 H4         4.1199    3.9867    8.5580 H         1 RES1    0.0000
     16 C7         6.3807    4.1719    7.3256 C.2       1 RES1    0.0000
     17 H5         5.8319    3.4954    7.0003 H         1 RES1    0.0000
     18 C8         7.9450    3.5868    5.5569 C.3       1 RES1    0.0000
     19 H6         7.1533    3.1522    5.1746 H         1 RES1    0.0000
     20 C9         8.4750    4.5759    4.5510 C.3       1 RES1    0.0000
     21 H7         7.7995    5.2321    4.3626 H         1 RES1    0.0000
     22 H8         8.7083    4.1152    3.7414 H         1 RES1    0.0000
     23 H9         9.2528    5.0105    4.9081 H         1 RES1    0.0000
     24 C10        8.9448    2.5116    5.9290 C.3       1 RES1    0.0000
     25 H10        9.7201    2.9184    6.3239 H         1 RES1    0.0000
     26 H11        9.2039    2.0290    5.1414 H         1 RES1    0.0000
     27 H12        8.5462    1.9068    6.5588 H         1 RES1    0.0000
@<TRIPOS>BOND
     1    1   16 2
     2    2    5 2
     3    3    4 1
     4    6    2 2
     5    7    8 ar
     6    8    3 1
     7    9    8 ar
     8   10    9 1
     9   11    9 ar
    10   12   11 1
    11   13    2 1
    12   14    7 ar
    13   15   14 1
    14   16    7 1
    15   17   16 1
    16   18    1 1
    17   19   18 1
    18   20   18 1
    19   21   20 1
    20   22   20 1
    21   23   20 1
    22   24   18 1
    23   25   24 1
    24   26   24 1
    25   27   24 1
    26   11   13 ar
    27   13   14 ar
@<TRIPOS>SUBSTRUCTURE
     1 RES1 1

@<TRIPOS>CRYSIN
  11.1130    5.7871   16.2250  90.0000 103.6540  90.0000  14 1

