# MOL2 file generated by ConQuest
# Please check atom types

@<TRIPOS>MOLECULE
FACPUU
    46    46     1
SMALL
NO_CHARGES
****
Generated from CSD

@<TRIPOS>ATOM
      1 C1         4.0729    1.3521    2.9414 C.3       1 RES1    0.0000
      2 N1         5.2198    2.3624    2.8808 N.pl3     1 RES1    0.0000
      3 O1         4.9348    3.5540    2.9017 O.2       1 RES1    0.0000
      4 O2         6.3600    1.9227    2.8720 O.2       1 RES1    0.0000
      5 C2         2.9748    1.7176    1.9404 C.3       1 RES1    0.0000
      6 N2         3.5314    2.1354    0.6662 N.am      1 RES1    0.0000
      7 C3         1.9972    2.7545    2.4722 C.3       1 RES1    0.0000
      8 O3         0.8221    2.6852    1.6441 O.3       1 RES1    0.0000
      9 C4         1.5805    2.4260    3.9093 C.3       1 RES1    0.0000
     10 O4         0.7394    3.5141    4.3223 O.3       1 RES1    0.0000
     11 C5         2.8437    2.3367    4.7760 C.3       1 RES1    0.0000
     12 O5         3.6584    1.2571    4.2683 O.3       1 RES1    0.0000
     13 C6         2.5961    1.9921    6.2318 C.3       1 RES1    0.0000
     14 O6         3.8607    1.9246    6.9157 O.3       1 RES1    0.0000
     15 C7         4.0273    1.2258   -0.2026 C.2       1 RES1    0.0000
     16 O7         4.0516    0.0285    0.0848 O.2       1 RES1    0.0000
     17 C8         4.5166    1.7604   -1.5274 C.3       1 RES1    0.0000
     18 C9         0.3983    3.8303    1.0660 C.2       1 RES1    0.0000
     19 O8         0.9789    4.8681    1.1442 O.2       1 RES1    0.0000
     20 C10       -0.8966    3.6081    0.3282 C.3       1 RES1    0.0000
     21 C11       -0.3012    3.2122    5.1548 C.2       1 RES1    0.0000
     22 O9        -0.4015    2.1554    5.7131 O.2       1 RES1    0.0000
     23 C12       -1.2354    4.3724    5.2704 C.3       1 RES1    0.0000
     24 C13        4.2243    2.9719    7.6821 C.2       1 RES1    0.0000
     25 O10        3.5378    3.9471    7.8198 O.2       1 RES1    0.0000
     26 C14        5.5509    2.7289    8.3374 C.3       1 RES1    0.0000
     27 H1         4.4545    0.5479    2.6947 H         1 RES1    0.0000
     28 H2         2.4276    0.8840    1.8236 H         1 RES1    0.0000
     29 H3         3.6117    3.0004    0.4856 H         1 RES1    0.0000
     30 H4         2.3123    3.6100    2.4436 H         1 RES1    0.0000
     31 H5         1.0176    1.5866    4.0040 H         1 RES1    0.0000
     32 H6         3.3078    3.1818    4.7430 H         1 RES1    0.0000
     33 H7         2.0354    2.6292    6.6305 H         1 RES1    0.0000
     34 H8         2.1774    1.1441    6.3265 H         1 RES1    0.0000
     35 H9         4.5710    2.8048   -1.4988 H         1 RES1    0.0000
     36 H10        5.2987    1.3521   -1.7377 H         1 RES1    0.0000
     37 H11        3.9257    1.4993   -2.1848 H         1 RES1    0.0000
     38 H12       -0.9736    4.2120   -0.4383 H         1 RES1    0.0000
     39 H13       -1.0581    2.6377    0.0738 H         1 RES1    0.0000
     40 H14       -1.5964    3.9471    0.8898 H         1 RES1    0.0000
     41 H15       -1.8042    4.2547    6.0127 H         1 RES1    0.0000
     42 H16       -1.5288    4.5585    4.4941 H         1 RES1    0.0000
     43 H17       -0.8231    5.1615    5.3354 H         1 RES1    0.0000
     44 H18        5.9467    3.5825    8.7019 H         1 RES1    0.0000
     45 H19        6.2066    2.4051    7.7075 H         1 RES1    0.0000
     46 H20        5.3800    2.0728    8.9948 H         1 RES1    0.0000
@<TRIPOS>BOND
     1    1    2 1
     2    2    3 2
     3    4    2 2
     4    5    1 1
     5    6    5 1
     6    7    5 1
     7    8    7 1
     8    9    7 1
     9   10    9 1
    10   11    9 1
    11   12    1 1
    12   13   11 1
    13   14   13 1
    14   15    6 1
    15   16   15 2
    16   17   15 1
    17   18    8 1
    18   19   18 2
    19   20   18 1
    20   21   10 1
    21   22   21 2
    22   23   21 1
    23   24   14 1
    24   25   24 2
    25   26   24 1
    26   27    1 1
    27   28    5 1
    28   29    6 1
    29   30    7 1
    30   31    9 1
    31   32   11 1
    32   33   13 1
    33   34   13 1
    34   35   17 1
    35   36   17 1
    36   37   17 1
    37   38   20 1
    38   39   20 1
    39   40   20 1
    40   41   23 1
    41   42   23 1
    42   43   23 1
    43   44   26 1
    44   45   26 1
    45   46   26 1
    46   11   12 1
@<TRIPOS>SUBSTRUCTURE
     1 RES1 1

@<TRIPOS>CRYSIN
   8.3810    9.4950   11.5750  90.0000 107.9400  90.0000   4 1

