# MOL2 file generated by ConQuest
# Please check atom types

@<TRIPOS>MOLECULE
FACQAE
    23    24     1
SMALL
USER_CHARGES
****
Generated from CSD

@<TRIPOS>ATOM
      1 C1         4.4505    9.5750    0.3932 C.2       1 RES1    0.0000
      2 H1         5.1644    9.6489   -0.1990 H         1 RES1    0.0000
      3 C2         2.3016   11.6855   -1.4211 C.2       1 RES1    0.0000
      4 C3         3.7092    8.6182    2.6999 C.2       1 RES1    0.0000
      5 C4         4.5708    8.7484    1.5862 C.2       1 RES1    0.0000
      6 C5         2.4614    9.2932    3.0963 C.3       1 RES1    0.0000
      7 H2         1.8893    8.6684    3.5499 H         1 RES1    0.0000
      8 H3         2.0147    9.6258    2.3146 H         1 RES1    0.0000
      9 H4         2.6657   10.0237    3.6838 H         1 RES1    0.0000
     10 N1         3.3636   10.1940    0.1674 N.2       1 RES1    0.0000
     11 N2         3.3287   10.8829   -1.0311 N.pl3     1 RES1    0.0000
     12 N3         4.2771   10.7850   -2.0230 N.2       1 RES1    0.0000
     13 N4         3.8781   11.5033   -3.0009 N.2       1 RES1    0.0000
     14 N5         2.6925   12.0602   -2.6582 N.pl3     1 RES1    0.0000
     15 H5         2.2427   12.5890   -3.1662 H         1 RES1    0.0000
     16 N6         1.2554   11.8864   -0.6400 N.2       1 RES1    0.0000
     17 N7         0.3124   12.7458   -1.1587 N.pl3     1 RES1    0.0000
     18 N8         4.2560    7.6940    3.4726 N.pl3     1 RES1    1.0000
     19 N9         5.6072    7.9503    1.6578 N.2       1 RES1    0.0000
     20 O1        -0.6700   12.9022   -0.4472 O.2       1 RES1    0.0000
     21 O2         0.4648   13.2939   -2.2461 O.2       1 RES1    0.0000
     22 O3         5.4829    7.2412    2.8235 O.3       1 RES1    0.0000
     23 O4         3.9686    7.1742    4.5536 O.2       1 RES1   -1.0000
@<TRIPOS>BOND
     1    1    2 1
     2    3   11 1
     3    4    5 1
     4    5    1 1
     5    6    4 1
     6    7    6 1
     7    8    6 1
     8    9    6 1
     9   10    1 2
    10   11   10 1
    11   12   11 1
    12   13   12 2
    13   14    3 1
    14   15   14 1
    15   16    3 2
    16   17   16 1
    17   18    4 2
    18   19    5 2
    19   20   17 2
    20   21   17 2
    21   22   18 1
    22   23   18 1
    23   13   14 1
    24   19   22 1
@<TRIPOS>SUBSTRUCTURE
     1 RES1 1

@<TRIPOS>CRYSIN
   6.2680   16.5080    9.8620  90.0000 104.0160  90.0000  14 1

