# MOL2 file generated by ConQuest
# Please check atom types

@<TRIPOS>MOLECULE
FACRAC
    45    45     1
SMALL
NO_CHARGES
****
Generated from CSD

@<TRIPOS>ATOM
      1 C1         3.8123    7.5893    5.7459 C.3       1 RES1    0.0000
      2 N1         2.5329    8.2550    6.3272 N.pl3     1 RES1    0.0000
      3 O1         2.5218    9.4737    6.3759 O.2       1 RES1    0.0000
      4 O2         1.6320    7.5441    6.7122 O.2       1 RES1    0.0000
      5 C2         4.9201    7.6858    6.7990 C.3       1 RES1    0.0000
      6 O3         6.2023    7.6106    6.1735 O.3       1 RES1    0.0000
      7 C3         4.7540    6.3831    7.5887 C.3       1 RES1    0.0000
      8 O4         4.0573    6.7241    8.8091 O.3       1 RES1    0.0000
      9 C4         3.8457    5.4891    6.7213 C.3       1 RES1    0.0000
     10 O5         3.5776    6.2565    5.5131 O.3       1 RES1    0.0000
     11 C5         4.4219    4.1526    6.3044 C.3       1 RES1    0.0000
     12 O6         5.6457    4.4347    5.5922 O.3       1 RES1    0.0000
     13 C6         3.4310    3.4291    5.4020 C.3       1 RES1    0.0000
     14 O7         3.8903    2.1127    5.0247 O.3       1 RES1    0.0000
     15 C7         6.6820    8.7866    5.6835 C.2       1 RES1    0.0000
     16 O8         6.0177    9.7834    5.6303 O.2       1 RES1    0.0000
     17 C8         8.1015    8.6399    5.2377 C.3       1 RES1    0.0000
     18 C9         4.2670    5.8904    9.8500 C.2       1 RES1    0.0000
     19 O9         5.0602    4.9839    9.8104 O.2       1 RES1    0.0000
     20 C10        3.3698    6.2289   10.9958 C.3       1 RES1    0.0000
     21 C11        6.6746    3.5733    5.7262 C.2       1 RES1    0.0000
     22 O10        6.6180    2.5264    6.3303 O.2       1 RES1    0.0000
     23 C12        7.8817    4.1062    5.0140 C.3       1 RES1    0.0000
     24 C13        3.7372    1.1535    5.9712 C.2       1 RES1    0.0000
     25 O11        3.2594    1.3691    7.0531 O.2       1 RES1    0.0000
     26 C14        4.2503   -0.1693    5.5009 C.3       1 RES1    0.0000
     27 H1         3.9951    8.0582    4.9242 H         1 RES1    0.0000
     28 H2         4.8478    8.5334    7.3711 H         1 RES1    0.0000
     29 H3         5.5492    5.8101    7.7805 H         1 RES1    0.0000
     30 H4         3.0617    5.3186    7.1672 H         1 RES1    0.0000
     31 H5         4.5972    3.7062    7.0835 H         1 RES1    0.0000
     32 H6         2.6192    3.3890    5.7825 H         1 RES1    0.0000
     33 H7         3.3883    3.9357    4.4784 H         1 RES1    0.0000
     34 H8         8.1507    8.2701    4.3612 H         1 RES1    0.0000
     35 H9         8.4912    8.1146    5.8038 H         1 RES1    0.0000
     36 H10        8.5153    9.4750    5.3168 H         1 RES1    0.0000
     37 H11        2.8743    7.1078   10.9852 H         1 RES1    0.0000
     38 H12        3.8457    6.1261   11.8662 H         1 RES1    0.0000
     39 H13        2.5106    5.6822   10.8467 H         1 RES1    0.0000
     40 H14        7.7239    4.3093    4.0964 H         1 RES1    0.0000
     41 H15        8.5460    3.6486    4.9684 H         1 RES1    0.0000
     42 H16        8.0459    4.9801    5.4842 H         1 RES1    0.0000
     43 H17        3.7288   -0.6908    5.8433 H         1 RES1    0.0000
     44 H18        4.2697   -0.2821    4.5758 H         1 RES1    0.0000
     45 H19        5.1901    0.1066    5.5420 H         1 RES1    0.0000
@<TRIPOS>BOND
     1    1    2 1
     2    2    3 2
     3    4    2 2
     4    5    1 1
     5    6    5 1
     6    7    5 1
     7    8    7 1
     8    9    7 1
     9   10    1 1
    10   11    9 1
    11   12   11 1
    12   13   11 1
    13   14   13 1
    14   15    6 1
    15   16   15 2
    16   17   15 1
    17   18    8 1
    18   19   18 2
    19   20   18 1
    20   21   12 1
    21   22   21 2
    22   23   21 1
    23   24   14 1
    24   25   24 2
    25   26   24 1
    26   27    1 1
    27   28    5 1
    28   29    7 1
    29   30    9 1
    30   31   11 1
    31   32   13 1
    32   33   13 1
    33   34   17 1
    34   35   17 1
    35   36   17 1
    36   37   20 1
    37   38   20 1
    38   39   20 1
    39   40   23 1
    40   41   23 1
    41   42   23 1
    42   43   26 1
    43   44   26 1
    44   45   26 1
    45    9   10 1
@<TRIPOS>SUBSTRUCTURE
     1 RES1 1

@<TRIPOS>CRYSIN
   9.2780   12.5380   15.2170  90.0000  90.0000  90.0000  19 1

