# MOL2 file generated by ConQuest
# Please check atom types

@<TRIPOS>MOLECULE
FACREG
    21    21     1
SMALL
NO_CHARGES
****
Generated from CSD

@<TRIPOS>ATOM
      1 C1         2.9809    4.7652    6.7178 C.3       1 RES1    0.0000
      2 N1         2.0986    5.9606    7.1239 N.pl3     1 RES1    0.0000
      3 O1         1.0646    6.1724    6.5071 O.2       1 RES1    0.0000
      4 O2         2.4795    6.6160    8.0885 O.2       1 RES1    0.0000
      5 C2         2.4933    3.5198    7.4837 C.3       1 RES1    0.0000
      6 O3         3.5563    2.6071    7.6670 O.3       1 RES1    0.0000
      7 C3         1.4787    2.9306    6.4763 C.3       1 RES1    0.0000
      8 O4         1.2908    1.5288    6.5928 O.3       1 RES1    0.0000
      9 C4         2.0051    3.3789    5.1022 C.3       1 RES1    0.0000
     10 O5         2.8583    4.5303    5.3626 O.3       1 RES1    0.0000
     11 C5         0.8767    3.7632    4.1736 C.3       1 RES1    0.0000
     12 H1         3.8091    5.0802    6.9663 H         1 RES1    0.0000
     13 H2         2.0654    3.7701    8.3403 H         1 RES1    0.0000
     14 H3         3.7790    2.6695    8.4757 H         1 RES1    0.0000
     15 H4         0.6377    3.3327    6.6562 H         1 RES1    0.0000
     16 H5         2.0541    1.1283    6.3838 H         1 RES1    0.0000
     17 H6         2.5709    2.7080    4.6722 H         1 RES1    0.0000
     18 H7         0.3952    4.4702    4.5694 H         1 RES1    0.0000
     19 H8         0.3043    2.9868    4.0639 H         1 RES1    0.0000
     20 H9         0.7817    4.5488    2.4877 H         1 RES1    0.0000
     21 O6         1.3985    4.1591    2.9023 O.3       1 RES1    0.0000
@<TRIPOS>BOND
     1    1    2 1
     2    2    3 2
     3    4    2 2
     4    5    1 1
     5    6    5 1
     6    7    5 1
     7    8    7 1
     8    9    7 1
     9   10    1 1
    10   11    9 1
    11   12    1 1
    12   13    5 1
    13   14    6 1
    14   15    7 1
    15   16    8 1
    16   17    9 1
    17   18   11 1
    18   19   11 1
    19   20   21 1
    20   21   11 1
    21    9   10 1
@<TRIPOS>SUBSTRUCTURE
     1 RES1 1

@<TRIPOS>CRYSIN
   5.1060    7.7020   17.1330  90.0000  90.0000  90.0000  19 1

