# MOL2 file generated by ConQuest
# Please check atom types

@<TRIPOS>MOLECULE
FACSEH
    65    68     1
SMALL
NO_CHARGES
****
Generated from CSD

@<TRIPOS>ATOM
      1 O1         2.3489    7.0320   12.8391 O.3       1 RES1    0.0000
      2 O2         1.4934    3.4030   16.3986 O.3       1 RES1    0.0000
      3 O3        -0.6920    3.0309   16.4534 O.2       1 RES1    0.0000
      4 O4         0.7646   -3.6632   17.1591 O.2       1 RES1    0.0000
      5 O5         2.8601   -3.2134   17.0329 O.2       1 RES1    0.0000
      6 O6         3.3467    7.9917    9.4406 O.3       1 RES1    0.0000
      7 O7         3.0165    9.0632   12.1627 O.3       1 RES1    0.0000
      8 N1         1.6773   -2.9002   17.0384 N.pl3     1 RES1    0.0000
      9 C1         2.1918    5.6226   12.6728 C.3       1 RES1    0.0000
     10 C2         1.5309    5.3506   11.3455 C.3       1 RES1    0.0000
     11 C3         2.3174    6.0005   10.2176 C.3       1 RES1    0.0000
     12 C4         2.5234    7.4724   10.5046 C.3       1 RES1    0.0000
     13 C5         3.1788    7.6879   11.8611 C.3       1 RES1    0.0000
     14 C6         3.5569    9.4188   13.4479 C.3       1 RES1    0.0000
     15 C7         4.9846    9.0868   13.6253 C.3       1 RES1    0.0000
     16 C8         5.2063    7.6055   13.3035 C.3       1 RES1    0.0000
     17 C9         4.6283    7.2852   11.9525 C.3       1 RES1    0.0000
     18 C10        1.3829    5.1398   13.8593 C.3       1 RES1    0.0000
     19 C11        2.0665    5.4224   15.1920 C.3       1 RES1    0.0000
     20 C12        1.3246    4.8878   16.3785 C.3       1 RES1    0.0000
     21 C13        0.4292    2.6494   16.4735 C.2       1 RES1    0.0000
     22 C14        0.8067    1.1975   16.6033 C.ar      1 RES1    0.0000
     23 C15       -0.1955    0.3062   16.9105 C.ar      1 RES1    0.0000
     24 C16        0.0931   -1.0362   17.0476 C.ar      1 RES1    0.0000
     25 C17        1.3754   -1.4389   16.8812 C.ar      1 RES1    0.0000
     26 C18        2.3936   -0.5793   16.5796 C.ar      1 RES1    0.0000
     27 C19        2.0985    0.7642   16.4406 C.ar      1 RES1    0.0000
     28 C20        3.1515    9.3152    9.1207 C.3       1 RES1    0.0000
     29 C21        3.9386    9.6449    7.8629 C.ar      1 RES1    0.0000
     30 C22        4.9393   10.4939    7.9379 C.ar      1 RES1    0.0000
     31 C23        5.6490   10.8742    6.8263 C.ar      1 RES1    0.0000
     32 C24        5.3189   10.3785    5.6417 C.ar      1 RES1    0.0000
     33 C25        4.3144    9.5118    5.4900 C.ar      1 RES1    0.0000
     34 C26        3.6039    9.1256    6.6545 C.ar      1 RES1    0.0000
     35 H1         3.0642    5.1998   12.6874 H         1 RES1    0.0000
     36 H2         1.4926    4.3921   11.1993 H         1 RES1    0.0000
     37 H3         0.6309    5.7121   11.3565 H         1 RES1    0.0000
     38 H4         1.8279    5.9016    9.3858 H         1 RES1    0.0000
     39 H5         3.1809    5.5660   10.1353 H         1 RES1    0.0000
     40 H6         1.6642    7.9234   10.4918 H         1 RES1    0.0000
     41 H7         3.4517   10.3750   13.5668 H         1 RES1    0.0000
     42 H8         3.0507    8.9490   14.1298 H         1 RES1    0.0000
     43 H9         5.5208    9.6308   13.0256 H         1 RES1    0.0000
     44 H10        5.2472    9.2610   14.5412 H         1 RES1    0.0000
     45 H11        4.7710    7.0603   13.9763 H         1 RES1    0.0000
     46 H12        6.1572    7.4147   13.2998 H         1 RES1    0.0000
     47 H13        5.1316    7.7609   11.2742 H         1 RES1    0.0000
     48 H14        4.7006    6.3302   11.7971 H         1 RES1    0.0000
     49 H15        0.5226    5.5884   13.8519 H         1 RES1    0.0000
     50 H16        1.2485    4.1825   13.7770 H         1 RES1    0.0000
     51 H17        2.9471    5.0173   15.1755 H         1 RES1    0.0000
     52 H18        2.1529    6.3821   15.2944 H         1 RES1    0.0000
     53 H19        0.3837    5.1104   16.3053 H         1 RES1    0.0000
     54 H20        1.6859    5.2705   17.1920 H         1 RES1    0.0000
     55 H21       -1.1048    0.6217   17.0311 H         1 RES1    0.0000
     56 H22       -0.6045   -1.6756   17.2560 H         1 RES1    0.0000
     57 H23        3.3011   -0.9043   16.4626 H         1 RES1    0.0000
     58 H24        2.8021    1.3977   16.2304 H         1 RES1    0.0000
     59 H25        2.2082    9.4753    8.9635 H         1 RES1    0.0000
     60 H26        3.4582    9.8745    9.8501 H         1 RES1    0.0000
     61 H27        5.1843   10.8601    8.8026 H         1 RES1    0.0000
     62 H28        6.3842   11.5018    6.9068 H         1 RES1    0.0000
     63 H29        5.8244   10.6540    4.8611 H         1 RES1    0.0000
     64 H30        4.0860    9.1586    4.6161 H         1 RES1    0.0000
     65 H31        2.8753    8.4886    6.5868 H         1 RES1    0.0000
@<TRIPOS>BOND
     1    1    9 1
     2    2   20 1
     3    3   21 2
     4    4    8 2
     5    5    8 2
     6    6   12 1
     7    7   13 1
     8    8   25 1
     9    9   10 1
    10   10   11 1
    11   11   12 1
    12   12   13 1
    13   13    1 1
    14   14    7 1
    15   15   14 1
    16   16   15 1
    17   17   13 1
    18   18    9 1
    19   19   18 1
    20   20   19 1
    21   21    2 1
    22   22   21 1
    23   23   22 ar
    24   24   23 ar
    25   25   24 ar
    26   26   25 ar
    27   27   22 ar
    28   28    6 1
    29   29   28 1
    30   30   29 ar
    31   31   30 ar
    32   32   31 ar
    33   33   32 ar
    34   34   29 ar
    35   35    9 1
    36   36   10 1
    37   37   10 1
    38   38   11 1
    39   39   11 1
    40   40   12 1
    41   41   14 1
    42   42   14 1
    43   43   15 1
    44   44   15 1
    45   45   16 1
    46   46   16 1
    47   47   17 1
    48   48   17 1
    49   49   18 1
    50   50   18 1
    51   51   19 1
    52   52   19 1
    53   53   20 1
    54   54   20 1
    55   55   23 1
    56   56   24 1
    57   57   26 1
    58   58   27 1
    59   59   28 1
    60   60   28 1
    61   61   30 1
    62   62   31 1
    63   63   32 1
    64   64   33 1
    65   65   34 1
    66   16   17 1
    67   26   27 ar
    68   33   34 ar
@<TRIPOS>SUBSTRUCTURE
     1 RES1 1

@<TRIPOS>CRYSIN
  11.3520   11.7750   18.6020  90.0000 100.6500  90.0000  14 2

