# MOL2 file generated by ConQuest
# Please check atom types

@<TRIPOS>MOLECULE
FACZIV
    66    61     2
SMALL
NO_CHARGES
****
Generated from CSD

@<TRIPOS>ATOM
      1 C1         6.3622    1.6421    7.2826 C.ar      1 RES1    0.0000
      2 C2         5.4337    2.4694    7.9837 C.ar      1 RES1    0.0000
      3 C3         4.8697    3.5877    7.3849 C.ar      1 RES1    0.0000
      4 H1         4.2878    4.1552    7.8766 H         1 RES1    0.0000
      5 C4         5.1630    3.8630    6.0765 C.ar      1 RES1    0.0000
      6 C5         6.0133    3.0345    5.3210 C.ar      1 RES1    0.0000
      7 H2         6.1732    3.2209    4.4030 H         1 RES1    0.0000
      8 C6         6.6081    1.9576    5.9219 C.ar      1 RES1    0.0000
      9 H3         7.1975    1.4097    5.4166 H         1 RES1    0.0000
     10 C7         8.6858   -0.8767    7.9930 C.2       1 RES1    0.0000
     11 C8         8.3753   -1.2537    9.4215 C.3       1 RES1    0.0000
     12 H4         7.5229   -1.7548    9.4760 H         1 RES1    0.0000
     13 H5         8.3095   -0.4471    9.9914 H         1 RES1    0.0000
     14 C9         9.5642   -2.1411    9.8586 C.3       1 RES1    0.0000
     15 H6        10.2926   -1.5573   10.2179 H         1 RES1    0.0000
     16 C10       10.0444   -2.7955    8.5451 C.3       1 RES1    0.0000
     17 H7        10.9906   -3.0776    8.6076 H         1 RES1    0.0000
     18 H8         9.4867   -3.5779    8.3061 H         1 RES1    0.0000
     19 C11        9.1556   -3.1525   10.9359 C.3       1 RES1    0.0000
     20 H9         8.8736   -2.6924   11.7298 H         1 RES1    0.0000
     21 H10        8.4309   -3.6843   10.6005 H         1 RES1    0.0000
     22 H11        9.8999   -3.7212   11.1441 H         1 RES1    0.0000
     23 C12        9.8671   -1.6484    7.5258 C.2       1 RES1    0.0000
     24 C13       10.6903   -1.3706    6.4893 C.2       1 RES1    0.0000
     25 C14       10.5230   -0.2073    5.5356 C.3       1 RES1    0.0000
     26 H12       11.4071    0.2094    5.3760 H         1 RES1    0.0000
     27 H13        9.9388    0.4731    5.9555 H         1 RES1    0.0000
     28 C15        9.9182   -0.6233    4.1941 C.ar      1 RES1    0.0000
     29 C16        8.8578   -1.5190    4.1388 C.ar      1 RES1    0.0000
     30 H14        8.5004   -1.8731    4.9449 H         1 RES1    0.0000
     31 C17        8.3118   -1.9045    2.9195 C.ar      1 RES1    0.0000
     32 H15        7.5837   -2.5155    2.9004 H         1 RES1    0.0000
     33 C18        8.8230   -1.4042    1.7353 C.ar      1 RES1    0.0000
     34 H16        8.4542   -1.6745    0.9012 H         1 RES1    0.0000
     35 C19        9.8734   -0.5090    1.7782 C.ar      1 RES1    0.0000
     36 H17       10.2263   -0.1595    0.9699 H         1 RES1    0.0000
     37 C20       10.4183   -0.1150    2.9998 C.ar      1 RES1    0.0000
     38 H18       11.1372    0.5057    3.0160 H         1 RES1    0.0000
     39 C21       11.8680   -2.2552    6.2066 C.ar      1 RES1    0.0000
     40 C22       13.1670   -1.7696    6.3355 C.ar      1 RES1    0.0000
     41 H19       13.3066   -0.8758    6.6255 H         1 RES1    0.0000
     42 C23       14.2626   -2.5741    6.0465 C.ar      1 RES1    0.0000
     43 H20       15.1417   -2.2290    6.1429 H         1 RES1    0.0000
     44 C24       14.0756   -3.8763    5.6198 C.ar      1 RES1    0.0000
     45 H21       14.8251   -4.4244    5.4151 H         1 RES1    0.0000
     46 C25       12.7909   -4.3777    5.4919 C.ar      1 RES1    0.0000
     47 H22       12.6583   -5.2730    5.2026 H         1 RES1    0.0000
     48 C26       11.6930   -3.5761    5.7859 C.ar      1 RES1    0.0000
     49 H23       10.8154   -3.9306    5.6993 H         1 RES1    0.0000
     50 N1         6.9997    0.6060    7.8882 N.pl3     1 RES1    0.0000
     51 N2         8.0500   -0.0309    7.2434 N.2       1 RES1    0.0000
     52 N3         5.0493    2.2045    9.3588 N.pl3     1 RES1    0.0000
     53 N4         4.5658    5.0412    5.4550 N.pl3     1 RES1    0.0000
     54 O1         5.4101    1.1468    9.8953 O.2       1 RES1    0.0000
     55 O2         4.3536    3.0305    9.9514 O.2       1 RES1    0.0000
     56 O3         3.8348    5.7644    6.1476 O.2       1 RES1    0.0000
     57 O4         4.8078    5.2563    4.2663 O.2       1 RES1    0.0000
     58 H24        6.7658    0.4232    8.7263 H         1 RES1    0.0000
     59 H25        9.4962   -4.0500   10.9379 Du        2 SUP2    0.0000
     60 H26        9.7895   -2.5687   11.3580 Du        2 SUP2    0.0000
     61 H27        8.3252   -3.1243   11.4158 Du        2 SUP2    0.0000
     62 C27        8.9026   -2.7521    9.4713 Du        2 SUP2    0.0000
     63 H28        8.2679   -3.3804    9.0230 Du        2 SUP2    0.0000
     64 C28       10.1799   -2.5719    8.6591 Du        2 SUP2    0.0000
     65 H29       10.8929   -2.1845    9.2261 Du        2 SUP2    0.0000
     66 H30       10.4909   -3.4444    8.3139 Du        2 SUP2    0.0000
@<TRIPOS>BOND
     1    1    2 ar
     2    2    3 ar
     3    3    4 1
     4    5    3 ar
     5    6    5 ar
     6    7    6 1
     7    8    1 ar
     8    9    8 1
     9   10   11 1
    10   11   12 1
    11   13   11 1
    12   14   11 1
    13   15   14 1
    14   16   14 1
    15   17   16 1
    16   18   16 1
    17   19   14 1
    18   20   19 1
    19   21   19 1
    20   22   19 1
    21   23   10 1
    22   24   23 2
    23   25   24 1
    24   26   25 1
    25   27   25 1
    26   28   25 1
    27   29   28 ar
    28   30   29 1
    29   31   29 ar
    30   32   31 1
    31   33   31 ar
    32   34   33 1
    33   35   33 ar
    34   36   35 1
    35   37   28 ar
    36   38   37 1
    37   39   24 1
    38   40   39 ar
    39   41   40 1
    40   42   40 ar
    41   43   42 1
    42   44   42 ar
    43   45   44 1
    44   46   44 ar
    45   47   46 1
    46   48   39 ar
    47   49   48 1
    48   50    1 1
    49   51   10 2
    50   52    2 1
    51   53    5 1
    52   54   52 2
    53   55   52 2
    54   56   53 2
    55   57   53 2
    56   58   50 1
    57    6    8 ar
    58   16   23 1
    59   35   37 ar
    60   46   48 ar
    61   50   51 1
@<TRIPOS>SUBSTRUCTURE
     1 RES1 1
     2 SUP2 59

@<TRIPOS>CRYSIN
  13.4260   10.8520   15.8630  90.0000 100.0650  90.0000 231 1

