# MOL2 file generated by ConQuest
# Please check atom types

@<TRIPOS>MOLECULE
FADTOW
    31    32     1
SMALL
NO_CHARGES
****
Generated from CSD

@<TRIPOS>ATOM
      1 N1         5.9752    1.6980    8.1925 N.am      1 RES1    0.0000
      2 O1         3.7644    1.6980    8.2368 O.2       1 RES1    0.0000
      3 C1         5.4378    2.9756   10.9583 C.3       1 RES1    0.0000
      4 H1         6.3578    2.9905   10.6831 H         1 RES1    0.0000
      5 H2         5.3893    2.9878   11.9167 H         1 RES1    0.0000
      6 H3         4.9858    3.7458   10.6052 H         1 RES1    0.0000
      7 N2         7.2142    1.6980    8.8212 N.2       1 RES1    0.0000
      8 O2         3.5821    1.6980    3.6215 O.2       1 RES1    0.0000
      9 C2         3.2971    1.6980   10.8804 C.3       1 RES1    0.0000
     10 H4         2.8637    0.9040   10.5601 H         1 RES1    0.0000
     11 H5         3.2575    1.6980   11.8400 H         1 RES1    0.0000
     12 N3         4.7649    1.6980    3.3719 N.pl3     1 RES1    0.0000
     13 O3         5.2183    1.6980    2.2491 O.2       1 RES1    0.0000
     14 C3         4.7647    1.6980   10.4262 C.3       1 RES1    0.0000
     15 C4         4.7690    1.6980    8.9052 C.2       1 RES1    0.0000
     16 C5         6.1321    1.6980    6.8095 C.ar      1 RES1    0.0000
     17 C6         5.2011    1.6980    5.7732 C.ar      1 RES1    0.0000
     18 H6         4.2845    1.6980    5.9303 H         1 RES1    0.0000
     19 C7         5.7302    1.6980    4.5044 C.ar      1 RES1    0.0000
     20 C8         7.0898    1.6980    4.2158 C.ar      1 RES1    0.0000
     21 H7         7.3866    1.6980    3.3354 H         1 RES1    0.0000
     22 C9         7.9864    1.6980    5.2521 C.ar      1 RES1    0.0000
     23 H8         8.9012    1.6980    5.0864 H         1 RES1    0.0000
     24 C10        7.4991    1.6980    6.5696 C.ar      1 RES1    0.0000
     25 C11        8.0924    1.6980    7.8689 C.2       1 RES1    0.0000
     26 H9         9.0103    1.6980    8.0163 H         1 RES1    0.0000
     27 C1C        5.4378    0.4204   10.9583 C.3       1 RES1    0.0000
     28 H1C        6.3578    0.4055   10.6831 H         1 RES1    0.0000
     29 H2C        5.3893    0.4082   11.9167 H         1 RES1    0.0000
     30 H3C        4.9858   -0.3498   10.6052 H         1 RES1    0.0000
     31 H4C        2.8637    2.4920   10.5601 H         1 RES1    0.0000
@<TRIPOS>BOND
     1    1    7 1
     2    2   15 2
     3    3    4 1
     4    5    3 1
     5    6    3 1
     6    7   25 2
     7    8   12 2
     8    9   10 1
     9   11    9 1
    10   12   13 2
    11   14    3 1
    12   15    1 1
    13   16    1 1
    14   17   16 ar
    15   18   17 1
    16   19   12 1
    17   20   19 ar
    18   21   20 1
    19   22   20 ar
    20   23   22 1
    21   24   16 ar
    22   25   24 1
    23   26   25 1
    24   27   14 1
    25   28   27 1
    26   29   27 1
    27   30   27 1
    28   31    9 1
    29    9   14 1
    30   14   15 1
    31   17   19 ar
    32   22   24 ar
@<TRIPOS>SUBSTRUCTURE
     1 RES1 1

@<TRIPOS>CRYSIN
   7.4770    6.7920   12.1910  90.0000  92.7200  90.0000  11 1

