# MOL2 file generated by ConQuest
# Please check atom types

@<TRIPOS>MOLECULE
FADTIQ
    21    22     1
SMALL
USER_CHARGES
****
Generated from CSD

@<TRIPOS>ATOM
      1 C1        -1.5046    6.8584    0.3406 C.2       1 RES1    0.0000
      2 C2         1.2963    4.8441    1.1032 C.2       1 RES1    0.0000
      3 H1         1.7308    4.9910    0.2945 H         1 RES1    0.0000
      4 C3         1.8991    3.9891    2.1136 C.2       1 RES1    0.0000
      5 C4         1.4282    3.5661    3.3944 C.2       1 RES1    0.0000
      6 C5         0.2471    3.8850    4.1935 C.3       1 RES1    0.0000
      7 H2        -0.0235    3.1083    4.6883 H         1 RES1    0.0000
      8 H3        -0.4668    4.1603    3.6146 H         1 RES1    0.0000
      9 H4         0.4561    4.5962    4.8032 H         1 RES1    0.0000
     10 N1        -2.3115    6.8988    1.3968 N.3       1 RES1    0.0000
     11 H5        -3.0344    7.3638    1.3683 H         1 RES1    0.0000
     12 H6        -2.1101    6.4596    2.1080 H         1 RES1    0.0000
     13 N2        -1.6422    7.4664   -0.8448 N.2       1 RES1    0.0000
     14 N3        -0.5702    7.0788   -1.6015 N.2       1 RES1    0.0000
     15 N4         0.2320    6.2973   -0.9413 N.2       1 RES1    0.0000
     16 N5        -0.3381    6.1278    0.2864 N.pl3     1 RES1    0.0000
     17 N6         0.1664    5.3907    1.3359 N.2       1 RES1    0.0000
     18 N7         3.0399    3.4458    1.8130 N.2       1 RES1    0.0000
     19 N8         2.3533    2.7224    3.8370 N.pl3     1 RES1    1.0000
     20 O1         3.3816    2.6158    2.8494 O.3       1 RES1    0.0000
     21 O2         2.4701    2.0087    4.8546 O.2       1 RES1   -1.0000
@<TRIPOS>BOND
     1    1   10 1
     2    2    3 1
     3    4    2 1
     4    5    4 1
     5    6    5 1
     6    7    6 1
     7    8    6 1
     8    9    6 1
     9   10   11 1
    10   12   10 1
    11   13    1 2
    12   14   13 1
    13   15   14 2
    14   16    1 1
    15   17    2 2
    16   18    4 2
    17   19    5 2
    18   20   18 1
    19   21   19 1
    20   15   16 1
    21   16   17 1
    22   19   20 1
@<TRIPOS>SUBSTRUCTURE
     1 RES1 1

@<TRIPOS>CRYSIN
   6.2287    8.0735   17.9653  90.0000  91.8400  90.0000  14 1

