# MOL2 file generated by ConQuest
# Please check atom types

@<TRIPOS>MOLECULE
FAFYUG
    30    29     1
SMALL
NO_CHARGES
****
Generated from CSD

@<TRIPOS>ATOM
      1 C1         4.5081    0.4690    9.7855 C.2       1 RES1    0.0000
      2 O1         4.7823    1.0912   10.9100 O.2       1 RES1    0.0000
      3 C2         3.3952    0.9658    8.9167 C.3       1 RES1    0.0000
      4 C3         4.0016    1.6461    7.6686 C.3       1 RES1    0.0000
      5 C4         2.4343   -0.1273    8.5364 C.3       1 RES1    0.0000
      6 C5         2.6318    2.0619    9.6839 C.3       1 RES1    0.0000
      7 H1         4.5326    1.1060    7.3755 H         1 RES1    0.0000
      8 H2         4.6715    2.6014    8.1226 H         1 RES1    0.0000
      9 H3         3.2700    2.1503    7.0786 H         1 RES1    0.0000
     10 H4         2.9348   -0.8218    8.0747 H         1 RES1    0.0000
     11 H5         1.6277    0.3460    8.0173 H         1 RES1    0.0000
     12 H6         2.0302   -0.7538    9.1188 H         1 RES1    0.0000
     13 H7         1.8879    2.3851    9.0326 H         1 RES1    0.0000
     14 H8         3.2966    2.9906    9.8851 H         1 RES1    0.0000
     15 H9         2.2267    1.6004   10.5077 H         1 RES1    0.0000
     16 C1D        5.4218   -0.4690    9.3717 C.2       1 RES1    0.0000
     17 O1D        5.1476   -1.0912    8.2471 O.2       1 RES1    0.0000
     18 C2D        6.5348   -0.9658   10.2404 C.3       1 RES1    0.0000
     19 C3D        5.9284   -1.6461   11.4885 C.3       1 RES1    0.0000
     20 H1D        5.3973   -1.1060   11.7816 H         1 RES1    0.0000
     21 H2D        5.2584   -2.6014   11.0345 H         1 RES1    0.0000
     22 H3D        6.6600   -2.1503   12.0786 H         1 RES1    0.0000
     23 C4D        7.4956    0.1273   10.6207 C.3       1 RES1    0.0000
     24 H4D        6.9951    0.8218   11.0824 H         1 RES1    0.0000
     25 H5D        8.3022   -0.3460   11.1399 H         1 RES1    0.0000
     26 H6D        7.8998    0.7538   10.0383 H         1 RES1    0.0000
     27 C5D        7.2981   -2.0619    9.4732 C.3       1 RES1    0.0000
     28 H7D        8.0420   -2.3851   10.1245 H         1 RES1    0.0000
     29 H8D        6.6333   -2.9906    9.2721 H         1 RES1    0.0000
     30 H9D        7.7032   -1.6004    8.6494 H         1 RES1    0.0000
@<TRIPOS>BOND
     1    1    2 1
     2    3    1 1
     3    4    3 1
     4    5    3 1
     5    6    3 1
     6    7    4 1
     7    8    4 1
     8    9    4 1
     9   10    5 1
    10   11    5 1
    11   12    5 1
    12   13    6 1
    13   14    6 1
    14   15    6 1
    15   16    1 1
    16   17   16 1
    17   18   16 1
    18   19   18 1
    19   20   19 1
    20   21   19 1
    21   22   19 1
    22   23   18 1
    23   24   23 1
    24   25   23 1
    25   26   23 1
    26   27   18 1
    27   28   27 1
    28   29   27 1
    29   30   27 1
@<TRIPOS>SUBSTRUCTURE
     1 RES1 1

@<TRIPOS>CRYSIN
  17.7400    6.1790   10.3440  90.0000 112.1800  90.0000  15 1

