# MOL2 file generated by ConQuest
# Please check atom types

@<TRIPOS>MOLECULE
FAHZUJ
    49    52     1
SMALL
NO_CHARGES
****
Generated from CSD

@<TRIPOS>ATOM
      1 O1         7.7412    0.2890    3.4450 O.2       1 RES1    0.0000
      2 O2         7.7503    1.3728    1.5996 O.2       1 RES1    0.0000
      3 N1         7.5380    1.2954    2.7904 N.pl3     1 RES1    0.0000
      4 C1         7.0483    2.4953    3.4878 C.ar      1 RES1    0.0000
      5 C2         6.4449    2.3612    4.7193 C.ar      1 RES1    0.0000
      6 C3         5.9583    3.4992    5.3331 C.ar      1 RES1    0.0000
      7 C4         6.0887    4.7507    4.7283 C.ar      1 RES1    0.0000
      8 C5         6.7603    4.8436    3.5186 C.ar      1 RES1    0.0000
      9 C6         7.2257    3.7108    2.8790 C.ar      1 RES1    0.0000
     10 C7         5.4307    5.9093    5.3102 C.2       1 RES1    0.0000
     11 N2         4.7772    5.9506    6.4702 N.2       1 RES1    0.0000
     12 C8         4.1723    7.1970    6.5110 C.2       1 RES1    0.0000
     13 C9         4.4877    7.9170    5.3779 C.2       1 RES1    0.0000
     14 N3         5.2973    7.0835    4.6397 N.pl3     1 RES1    0.0000
     15 C10        4.1208    9.2330    4.8845 C.ar      1 RES1    0.0000
     16 C11        5.0532    9.9917    4.1682 C.ar      1 RES1    0.0000
     17 C12        4.7257   11.2097    3.5982 C.ar      1 RES1    0.0000
     18 C13        3.4355   11.6716    3.7126 C.ar      1 RES1    0.0000
     19 C14        2.5000   10.9542    4.4229 C.ar      1 RES1    0.0000
     20 C15        2.8306    9.7388    4.9790 C.ar      1 RES1    0.0000
     21 O3         2.9973   12.8431    3.1625 O.3       1 RES1    0.0000
     22 C16        3.7372   13.3722    2.0871 C.3       1 RES1    0.0000
     23 C17        3.3203    7.5970    7.6391 C.ar      1 RES1    0.0000
     24 C18        3.3703    8.8769    8.1673 C.ar      1 RES1    0.0000
     25 C19        2.5759    9.2356    9.2487 C.ar      1 RES1    0.0000
     26 C20        1.7329    8.3092    9.8038 C.ar      1 RES1    0.0000
     27 C21        1.6738    7.0293    9.2994 C.ar      1 RES1    0.0000
     28 C22        2.4546    6.6758    8.2220 C.ar      1 RES1    0.0000
     29 O4         0.9066    8.5724   10.8722 O.3       1 RES1    0.0000
     30 C23        1.0886    9.8136   11.5357 C.3       1 RES1    0.0000
     31 H1         6.3525    1.4193    5.1033 H         1 RES1    0.0000
     32 H2         5.5034    3.4321    6.1976 H         1 RES1    0.0000
     33 H3         6.9286    5.6771    3.0640 H         1 RES1    0.0000
     34 H4         7.6411    3.7417    2.0095 H         1 RES1    0.0000
     35 H5         5.5338    7.2512    3.8200 H         1 RES1    0.0000
     36 H6         5.9431    9.6769    4.1284 H         1 RES1    0.0000
     37 H7         5.4428   11.6897    3.1137 H         1 RES1    0.0000
     38 H8         1.5767   11.3026    4.4865 H         1 RES1    0.0000
     39 H9         2.1832    9.2124    5.4416 H         1 RES1    0.0000
     40 H10        3.9722   12.7219    1.4524 H         1 RES1    0.0000
     41 H11        4.5028   13.7541    2.5865 H         1 RES1    0.0000
     42 H12        3.1838   14.0895    1.7409 H         1 RES1    0.0000
     43 H13        4.0177    9.5479    7.7594 H         1 RES1    0.0000
     44 H14        2.6380   10.2188    9.5700 H         1 RES1    0.0000
     45 H15        1.0158    6.2964    9.6496 H         1 RES1    0.0000
     46 H16        2.4409    5.7545    7.8390 H         1 RES1    0.0000
     47 H17        0.5155    9.6253   12.3355 H         1 RES1    0.0000
     48 H18        2.0316    9.7801   11.8282 H         1 RES1    0.0000
     49 H19        1.0309   10.6575   11.0323 H         1 RES1    0.0000
@<TRIPOS>BOND
     1    1    3 2
     2    2    3 2
     3    3    4 1
     4    4    5 ar
     5    5    6 ar
     6    6    7 ar
     7    7    8 ar
     8    8    9 ar
     9    9    4 ar
    10   10    7 1
    11   11   10 2
    12   12   11 1
    13   13   12 2
    14   14   10 1
    15   15   13 1
    16   16   15 ar
    17   17   16 ar
    18   18   17 ar
    19   19   18 ar
    20   20   15 ar
    21   21   18 1
    22   22   21 1
    23   23   12 1
    24   24   23 ar
    25   25   24 ar
    26   26   25 ar
    27   27   26 ar
    28   28   23 ar
    29   29   26 1
    30   30   29 1
    31   31    5 1
    32   32    6 1
    33   33    8 1
    34   34    9 1
    35   35   14 1
    36   36   16 1
    37   37   17 1
    38   38   19 1
    39   39   20 1
    40   40   22 1
    41   41   22 1
    42   42   22 1
    43   43   24 1
    44   44   25 1
    45   45   27 1
    46   46   28 1
    47   47   30 1
    48   48   30 1
    49   49   30 1
    50   13   14 1
    51   19   20 ar
    52   27   28 ar
@<TRIPOS>SUBSTRUCTURE
     1 RES1 1

@<TRIPOS>CRYSIN
  15.1610   25.8050    9.9480  90.0000  90.0000  90.0000  61 1

