# MOL2 file generated by ConQuest
# Please check atom types

@<TRIPOS>MOLECULE
FAJXUM
    38    41     1
SMALL
NO_CHARGES
****
Generated from CSD

@<TRIPOS>ATOM
      1 C1         1.1333    2.6703    8.7221 C.2       1 RES1    0.0000
      2 C2         1.2696    3.3063   10.1226 C.3       1 RES1    0.0000
      3 C3         2.3144    2.5250   10.9525 C.3       1 RES1    0.0000
      4 C4         1.9146    1.0691   11.1195 C.3       1 RES1    0.0000
      5 H1         1.0120    0.8180   11.4678 H         1 RES1    0.0000
      6 C5         2.5228    0.3438   10.0105 C.3       1 RES1    0.0000
      7 H2         2.0494   -0.4178    9.5682 H         1 RES1    0.0000
      8 C6         3.2394    1.4165    9.1865 C.3       1 RES1    0.0000
      9 C7         4.5015    0.9869    8.4807 C.3       1 RES1    0.0000
     10 H3         4.2496    0.3873    7.7345 H         1 RES1    0.0000
     11 H4         5.0459    0.4565    9.1147 H         1 RES1    0.0000
     12 C8         5.3758    2.1082    7.9207 C.3       1 RES1    0.0000
     13 H5         6.1683    1.6969    7.4928 H         1 RES1    0.0000
     14 H6         5.7007    2.6541    8.6800 H         1 RES1    0.0000
     15 C9         4.7176    3.0493    6.9035 C.3       1 RES1    0.0000
     16 H7         5.4173    3.6262    6.5075 H         1 RES1    0.0000
     17 H8         4.0820    3.6372    7.3820 H         1 RES1    0.0000
     18 C10        3.9656    2.3348    5.7644 C.3       1 RES1    0.0000
     19 H9         4.1316    2.8284    4.9230 H         1 RES1    0.0000
     20 H10        4.3485    1.4285    5.6579 H         1 RES1    0.0000
     21 C11        2.4671    2.2012    5.9533 C.3       1 RES1    0.0000
     22 H11        2.0883    3.1005    6.1201 H         1 RES1    0.0000
     23 H12        2.0718    1.8620    5.1111 H         1 RES1    0.0000
     24 C12        1.7490    4.7535    9.9067 C.3       1 RES1    0.0000
     25 H13        1.7693    5.2225   10.7665 H         1 RES1    0.0000
     26 H14        1.1341    5.2142    9.2978 H         1 RES1    0.0000
     27 H15        2.6484    4.7448    9.5183 H         1 RES1    0.0000
     28 C13       -0.0939    3.3108   10.8207 C.3       1 RES1    0.0000
     29 H16       -0.4562    2.3996   10.8375 H         1 RES1    0.0000
     30 H17       -0.7082    3.8973   10.3330 H         1 RES1    0.0000
     31 H18        0.0095    3.6372   11.7394 H         1 RES1    0.0000
     32 N1         2.2229    1.9855    8.2648 N.am      1 RES1    0.0000
     33 O1         0.1404    2.8684    8.0235 O.2       1 RES1    0.0000
     34 O2         2.0675    1.3208    7.0403 O.3       1 RES1    0.0000
     35 O3         3.5095    2.4323   10.1249 O.3       1 RES1    0.0000
     36 O4         2.6160    3.2185   12.0992 O.3       1 RES1    0.0000
     37 H19        2.9865    2.7030   12.6488 H         1 RES1    0.0000
     38 O5         3.0661    0.2137   11.3357 O.3       1 RES1    0.0000
@<TRIPOS>BOND
     1    1    2 1
     2    2    3 1
     3    3    4 1
     4    4    5 1
     5    6    4 1
     6    7    6 1
     7    8    6 1
     8    9    8 1
     9   10    9 1
    10   11    9 1
    11   12    9 1
    12   13   12 1
    13   14   12 1
    14   15   12 1
    15   16   15 1
    16   17   15 1
    17   18   15 1
    18   19   18 1
    19   20   18 1
    20   21   18 1
    21   22   21 1
    22   23   21 1
    23   24    2 1
    24   25   24 1
    25   26   24 1
    26   27   24 1
    27   28    2 1
    28   29   28 1
    29   30   28 1
    30   31   28 1
    31   32    1 1
    32   33    1 2
    33   34   21 1
    34   35    3 1
    35   36    3 1
    36   37   36 1
    37   38    4 1
    38    6   38 1
    39    8   32 1
    40    8   35 1
    41   32   34 1
@<TRIPOS>SUBSTRUCTURE
     1 RES1 1

@<TRIPOS>CRYSIN
  10.9816    9.2222   13.0751  90.0000 107.6889  90.0000 231 1

