# MOL2 file generated by ConQuest
# Please check atom types

@<TRIPOS>MOLECULE
FAJXIA
    37    38     1
SMALL
NO_CHARGES
****
Generated from CSD

@<TRIPOS>ATOM
      1 C1         6.8471    8.4838    3.6331 C.2       1 RES1    0.0000
      2 C2         5.7651    7.9213    4.5452 C.3       1 RES1    0.0000
      3 C3         6.5369    7.5668    5.8089 C.2       1 RES1    0.0000
      4 C4         8.0285    7.7855    5.6130 C.3       1 RES1    0.0000
      5 H1         8.3480    8.5427    6.1837 H         1 RES1    0.0000
      6 C5         8.8606    6.5447    5.8651 C.3       1 RES1    0.0000
      7 H2         8.6523    5.8601    5.1814 H         1 RES1    0.0000
      8 H3         8.6393    6.1703    6.7544 H         1 RES1    0.0000
      9 C6        10.3552    6.8945    5.8087 C.2       1 RES1    0.0000
     10 C7        11.2109    6.0082    4.9674 C.3       1 RES1    0.0000
     11 H4        10.6485    5.6046    4.2600 H         1 RES1    0.0000
     12 H5        11.5538    5.2708    5.5333 H         1 RES1    0.0000
     13 C8        12.3870    6.6965    4.3111 C.3       1 RES1    0.0000
     14 H6        12.8066    6.0562    3.6833 H         1 RES1    0.0000
     15 H7        13.0541    6.9001    5.0138 H         1 RES1    0.0000
     16 C9        12.0948    7.9930    3.5422 C.3       1 RES1    0.0000
     17 H8        12.9573    8.3607    3.2256 H         1 RES1    0.0000
     18 H9        11.7138    8.6473    4.1815 H         1 RES1    0.0000
     19 C10       11.1442    7.9043    2.3340 C.3       1 RES1    0.0000
     20 H10       11.2114    8.7529    1.8286 H         1 RES1    0.0000
     21 H11       11.4714    7.1830    1.7406 H         1 RES1    0.0000
     22 C11        9.6795    7.6460    2.6232 C.3       1 RES1    0.0000
     23 H12        9.1421    7.7789    1.8024 H         1 RES1    0.0000
     24 H13        9.5527    6.7134    2.9319 H         1 RES1    0.0000
     25 C12        5.1842    6.6446    3.9295 C.3       1 RES1    0.0000
     26 H14        4.6601    6.8756    3.1341 H         1 RES1    0.0000
     27 H15        4.6075    6.1996    4.5834 H         1 RES1    0.0000
     28 H16        5.9154    6.0430    3.6750 H         1 RES1    0.0000
     29 C13        4.6603    8.9330    4.8437 C.3       1 RES1    0.0000
     30 H17        5.0531    9.7392    5.2385 H         1 RES1    0.0000
     31 H18        4.0192    8.5408    5.4739 H         1 RES1    0.0000
     32 H19        4.1986    9.1678    4.0127 H         1 RES1    0.0000
     33 N1         8.0338    8.1749    4.1929 N.am      1 RES1    0.0000
     34 O1         6.6840    9.0569    2.5621 O.2       1 RES1    0.0000
     35 O2         9.2533    8.5814    3.6606 O.3       1 RES1    0.0000
     36 O3        10.8211    7.8504    6.4189 O.2       1 RES1    0.0000
     37 O4         6.0597    7.1547    6.8389 O.2       1 RES1    0.0000
@<TRIPOS>BOND
     1    1    2 1
     2    2    3 1
     3    3    4 1
     4    4    5 1
     5    6    4 1
     6    7    6 1
     7    8    6 1
     8    9    6 1
     9   10    9 1
    10   11   10 1
    11   12   10 1
    12   13   10 1
    13   14   13 1
    14   15   13 1
    15   16   13 1
    16   17   16 1
    17   18   16 1
    18   19   16 1
    19   20   19 1
    20   21   19 1
    21   22   19 1
    22   23   22 1
    23   24   22 1
    24   25    2 1
    25   26   25 1
    26   27   25 1
    27   28   25 1
    28   29    2 1
    29   30   29 1
    30   31   29 1
    31   32   29 1
    32   33    1 1
    33   34    1 2
    34   35   22 1
    35   36    9 2
    36   37    3 2
    37    4   33 1
    38   33   35 1
@<TRIPOS>SUBSTRUCTURE
     1 RES1 1

@<TRIPOS>CRYSIN
  11.3134    9.4290   12.7345  90.0000 110.9907  90.0000 231 1

