# MOL2 file generated by ConQuest
# Please check atom types

@<TRIPOS>MOLECULE
FAJYIY
    36    37     1
SMALL
NO_CHARGES
****
Generated from CSD

@<TRIPOS>ATOM
      1 C1         3.7183    6.7447    5.8070 C.2       1 RES1    0.0000
      2 C2         2.3867    6.6668    5.7806 C.2       1 RES1    0.0000
      3 C3         4.4137    8.0519    5.8591 C.ar      1 RES1    0.0000
      4 C4         3.8396    9.1727    6.4440 C.ar      1 RES1    0.0000
      5 C5         4.4419   10.4132    6.3912 C.ar      1 RES1    0.0000
      6 C6         5.6760   10.6107    5.7588 C.ar      1 RES1    0.0000
      7 C7         6.2470    9.4731    5.1700 C.ar      1 RES1    0.0000
      8 C8         5.6419    8.2354    5.2353 C.ar      1 RES1    0.0000
      9 C9         4.5244    5.4903    5.7759 C.ar      1 RES1    0.0000
     10 C10        5.6348    5.3318    6.6012 C.ar      1 RES1    0.0000
     11 C11        6.3427    4.1525    6.6214 C.ar      1 RES1    0.0000
     12 C12        5.9458    3.1290    5.8008 C.ar      1 RES1    0.0000
     13 C13        4.8604    3.2486    4.9662 C.ar      1 RES1    0.0000
     14 C14        4.1544    4.4306    4.9585 C.ar      1 RES1    0.0000
     15 C15        7.4788   12.0236    4.9234 C.3       1 RES1    0.0000
     16 C16        5.5534   13.0332    6.0653 C.3       1 RES1    0.0000
     17 N1         6.2981   11.8344    5.7269 N.pl3     1 RES1    0.0000
     18 N2         6.7264    1.8857    5.8086 N.pl3     1 RES1    0.0000
     19 O1         7.6812    1.7995    6.5164 O.2       1 RES1    0.0000
     20 O2         6.4139    1.0124    5.0425 O.2       1 RES1    0.0000
     21 H1         2.0369    5.8296    5.8047 H         1 RES1    0.0000
     22 H2         1.8162    7.4483    5.7674 H         1 RES1    0.0000
     23 H3         2.9660    9.0531    6.9029 H         1 RES1    0.0000
     24 H4         3.9969   11.1502    6.8112 H         1 RES1    0.0000
     25 H5         7.0454    9.5037    4.7119 H         1 RES1    0.0000
     26 H6         6.0708    7.4789    4.6831 H         1 RES1    0.0000
     27 H7         5.9010    6.1133    7.2109 H         1 RES1    0.0000
     28 H8         7.0442    4.0607    7.1907 H         1 RES1    0.0000
     29 H9         4.5244    2.6367    4.4397 H         1 RES1    0.0000
     30 H10        3.4380    4.6281    4.3751 H         1 RES1    0.0000
     31 H11        8.2027   11.4284    5.1755 H         1 RES1    0.0000
     32 H12        7.8087   12.7300    5.0930 H         1 RES1    0.0000
     33 H13        7.2901   11.8595    4.0228 H         1 RES1    0.0000
     34 H14        5.1833   12.8858    6.9138 H         1 RES1    0.0000
     35 H15        6.1668   13.9315    6.0458 H         1 RES1    0.0000
     36 H16        4.8536   13.1305    5.6056 H         1 RES1    0.0000
@<TRIPOS>BOND
     1    1    2 2
     2    2   21 1
     3    3    1 1
     4    4    3 ar
     5    5    4 ar
     6    6    5 ar
     7    7    6 ar
     8    8    3 ar
     9    9    1 1
    10   10    9 ar
    11   11   10 ar
    12   12   11 ar
    13   13   12 ar
    14   14    9 ar
    15   15   17 1
    16   16   17 1
    17   17    6 1
    18   18   12 1
    19   19   18 2
    20   20   18 2
    21   22    2 1
    22   23    4 1
    23   24    5 1
    24   25    7 1
    25   26    8 1
    26   27   10 1
    27   28   11 1
    28   29   13 1
    29   30   14 1
    30   31   15 1
    31   32   15 1
    32   33   15 1
    33   34   16 1
    34   35   16 1
    35   36   16 1
    36    7    8 ar
    37   13   14 ar
@<TRIPOS>SUBSTRUCTURE
     1 RES1 1

@<TRIPOS>CRYSIN
   6.5970   27.8130    7.7930  90.0000  93.5600  90.0000 231 1

