# MOL2 file generated by ConQuest
# Please check atom types

@<TRIPOS>MOLECULE
FAKDUS
    50    52     1
SMALL
NO_CHARGES
****
Generated from CSD

@<TRIPOS>ATOM
      1 O1         2.1980    1.2202    4.2294 O.2       1 RES1    0.0000
      2 N1         0.2669    0.4759    7.6140 N.pl3     1 RES1    0.0000
      3 N2         2.1558   -0.1558    8.5261 N.pl3     1 RES1    0.0000
      4 N3         2.3601    0.7626    6.3306 N.2       1 RES1    0.0000
      5 N4         1.5987    0.7846    5.2365 N.2       1 RES1    0.0000
      6 C1         1.6119    0.3763    7.3990 C.2       1 RES1    0.0000
      7 C2         1.1407   -0.4089    9.4511 C.2       1 RES1    0.0000
      8 H1         1.2494   -0.7864   10.3158 H         1 RES1    0.0000
      9 C3        -0.0193   -0.0179    8.8912 C.2       1 RES1    0.0000
     10 H2        -0.8792   -0.0680    9.2913 H         1 RES1    0.0000
     11 C4        -0.6731    1.2528    6.8284 C.ar      1 RES1    0.0000
     12 C5        -1.5378    0.6098    5.9308 C.ar      1 RES1    0.0000
     13 C6        -2.4076    1.4173    5.1863 C.ar      1 RES1    0.0000
     14 H3        -2.9950    1.0100    4.5619 H         1 RES1    0.0000
     15 C7        -2.4319    2.8099    5.3378 C.ar      1 RES1    0.0000
     16 C8        -1.5729    3.3982    6.2651 C.ar      1 RES1    0.0000
     17 H4        -1.6018    4.3402    6.3864 H         1 RES1    0.0000
     18 C9        -0.6721    2.6429    7.0212 C.ar      1 RES1    0.0000
     19 C10       -1.5055   -0.8884    5.7485 C.3       1 RES1    0.0000
     20 H5        -0.6125   -1.1622    5.4534 H         1 RES1    0.0000
     21 H6        -2.1675   -1.1495    5.0742 H         1 RES1    0.0000
     22 H7        -1.7182   -1.3254    6.5996 H         1 RES1    0.0000
     23 C11       -3.3442    3.6626    4.4781 C.3       1 RES1    0.0000
     24 H8        -3.5470    4.4992    4.9469 H         1 RES1    0.0000
     25 H9        -4.1752    3.1772    4.3029 H         1 RES1    0.0000
     26 H10       -2.8990    3.8641    3.6289 H         1 RES1    0.0000
     27 C12        0.3054    3.3021    7.9718 C.3       1 RES1    0.0000
     28 H11        1.2072    3.2664    7.5898 H         1 RES1    0.0000
     29 H12        0.2965    2.8303    8.8305 H         1 RES1    0.0000
     30 H13        0.0478    4.2373    8.1093 H         1 RES1    0.0000
     31 C13        3.5552   -0.4838    8.7358 C.ar      1 RES1    0.0000
     32 C14        4.4803    0.5575    8.9058 C.ar      1 RES1    0.0000
     33 C15        5.8155    0.2057    9.1333 C.ar      1 RES1    0.0000
     34 H14        6.4608    0.8918    9.2483 H         1 RES1    0.0000
     35 C16        6.2220   -1.1359    9.1961 C.ar      1 RES1    0.0000
     36 C17        5.2669   -2.1399    9.0285 C.ar      1 RES1    0.0000
     37 H15        5.5376   -3.0496    9.0723 H         1 RES1    0.0000
     38 C18        3.9207   -1.8374    8.7979 C.ar      1 RES1    0.0000
     39 C19        4.0685    2.0138    8.8449 C.3       1 RES1    0.0000
     40 H16        4.8556    2.5820    8.9793 H         1 RES1    0.0000
     41 H17        3.4115    2.1969    9.5474 H         1 RES1    0.0000
     42 H18        3.6746    2.2054    7.9691 H         1 RES1    0.0000
     43 C20        7.6780   -1.4938    9.4296 C.3       1 RES1    0.0000
     44 H19        8.2443   -0.7371    9.1739 H         1 RES1    0.0000
     45 H20        7.9117   -2.2760    8.8877 H         1 RES1    0.0000
     46 H21        7.8168   -1.6995   10.3774 H         1 RES1    0.0000
     47 C21        2.9135   -2.9564    8.6124 C.3       1 RES1    0.0000
     48 H22        2.5099   -3.1789    9.4773 H         1 RES1    0.0000
     49 H23        3.3668   -3.7468    8.2510 H         1 RES1    0.0000
     50 H24        2.2126   -2.6670    7.9905 H         1 RES1    0.0000
@<TRIPOS>BOND
     1    1    5 2
     2    2    6 1
     3    3    6 1
     4    4    5 1
     5    6    4 2
     6    7    3 1
     7    8    7 1
     8    9    2 1
     9   10    9 1
    10   11    2 1
    11   12   11 ar
    12   13   12 ar
    13   14   13 1
    14   15   13 ar
    15   16   15 ar
    16   17   16 1
    17   18   11 ar
    18   19   12 1
    19   20   19 1
    20   21   19 1
    21   22   19 1
    22   23   15 1
    23   24   23 1
    24   25   23 1
    25   26   23 1
    26   27   18 1
    27   28   27 1
    28   29   27 1
    29   30   27 1
    30   31    3 1
    31   32   31 ar
    32   33   32 ar
    33   34   33 1
    34   35   33 ar
    35   36   35 ar
    36   37   36 1
    37   38   31 ar
    38   39   32 1
    39   40   39 1
    40   41   39 1
    41   42   39 1
    42   43   35 1
    43   44   43 1
    44   45   43 1
    45   46   43 1
    46   47   38 1
    47   48   47 1
    48   49   47 1
    49   50   47 1
    50    7    9 2
    51   16   18 ar
    52   36   38 ar
@<TRIPOS>SUBSTRUCTURE
     1 RES1 1

@<TRIPOS>CRYSIN
  31.7920    8.5019   15.5570  90.0000 113.1000  90.0000  15 1

