# MOL2 file generated by ConQuest
# Please check atom types

@<TRIPOS>MOLECULE
FAKSAM
    55    56     1
SMALL
NO_CHARGES
****
Generated from CSD

@<TRIPOS>ATOM
      1 O1         5.4226    5.9977    4.1662 O.2       1 RES1    0.0000
      2 O2         7.6752    2.4790    1.5159 O.2       1 RES1    0.0000
      3 O3         5.0220    2.1567    1.2444 O.3       1 RES1    0.0000
      4 N1         7.0057    4.5763    3.4192 N.am      1 RES1    0.0000
      5 N2         5.8937    1.0872    1.4480 N.am      1 RES1    0.0000
      6 C1         5.8690    5.2527    3.2771 C.2       1 RES1    0.0000
      7 C2         5.1085    5.0153    1.9962 C.3       1 RES1    0.0000
      8 H1         5.7132    4.6676    1.3216 H         1 RES1    0.0000
      9 H2         4.7500    5.8569    1.6728 H         1 RES1    0.0000
     10 C3         3.9648    4.0236    2.2146 C.3       1 RES1    0.0000
     11 H3         3.4220    4.3289    2.9580 H         1 RES1    0.0000
     12 H4         3.4042    4.0110    1.4238 H         1 RES1    0.0000
     13 C4         4.4420    2.6148    2.5001 C.3       1 RES1    0.0000
     14 H5         5.1488    2.6516    3.1789 H         1 RES1    0.0000
     15 C5         3.3730    1.6707    2.9644 C.ar      1 RES1    0.0000
     16 C6         3.4349    1.0838    4.2166 C.ar      1 RES1    0.0000
     17 H6         4.1479    1.2803    4.7800 H         1 RES1    0.0000
     18 C7         2.4569    0.2161    4.6404 C.ar      1 RES1    0.0000
     19 H7         2.5143   -0.1716    5.4837 H         1 RES1    0.0000
     20 C8         1.3992   -0.0776    3.8267 C.ar      1 RES1    0.0000
     21 H8         0.7371   -0.6625    4.1163 H         1 RES1    0.0000
     22 C9         1.3159    0.4981    2.5694 C.ar      1 RES1    0.0000
     23 H9         0.5970    0.3014    2.0135 H         1 RES1    0.0000
     24 C10        2.2960    1.3586    2.1476 C.ar      1 RES1    0.0000
     25 H10        2.2390    1.7399    1.3004 H         1 RES1    0.0000
     26 C11        7.2026    1.3463    1.5673 C.2       1 RES1    0.0000
     27 C12        8.0487    0.1165    1.8042 C.3       1 RES1    0.0000
     28 H11        7.6094   -0.6596    1.3979 H         1 RES1    0.0000
     29 C13        8.1716   -0.1052    3.3009 C.3       1 RES1    0.0000
     30 H12        8.6192    0.6446    3.6993 H         1 RES1    0.0000
     31 H13        8.6775   -0.9043    3.4655 H         1 RES1    0.0000
     32 H14        7.2956   -0.1955    3.6840 H         1 RES1    0.0000
     33 C14        9.4184    0.2987    1.1799 C.3       1 RES1    0.0000
     34 H15        9.3282    0.3745    0.2267 H         1 RES1    0.0000
     35 H16        9.9684   -0.4596    1.3897 H         1 RES1    0.0000
     36 H17        9.8248    1.0968    1.5272 H         1 RES1    0.0000
     37 C15        7.8475    4.6128    4.6086 C.3       1 RES1    0.0000
     38 H18        7.8036    5.5167    4.9833 H         1 RES1    0.0000
     39 C16        7.3760    3.6353    5.6790 C.3       1 RES1    0.0000
     40 H19        6.4699    3.8573    5.9442 H         1 RES1    0.0000
     41 H20        7.3715    2.7352    5.3169 H         1 RES1    0.0000
     42 C17        8.2884    3.6889    6.8948 C.3       1 RES1    0.0000
     43 H21        8.2133    4.5617    7.3128 H         1 RES1    0.0000
     44 H22        7.9998    3.0232    7.5395 H         1 RES1    0.0000
     45 C18        9.7402    3.4336    6.5270 C.3       1 RES1    0.0000
     46 H23       10.2955    3.5485    7.3140 H         1 RES1    0.0000
     47 H24        9.8393    2.5188    6.2215 H         1 RES1    0.0000
     48 C19       10.2072    4.3781    5.4408 C.3       1 RES1    0.0000
     49 H25       11.1086    4.1379    5.1724 H         1 RES1    0.0000
     50 H26       10.2310    5.2824    5.7903 H         1 RES1    0.0000
     51 C20        9.2902    4.3307    4.2281 C.3       1 RES1    0.0000
     52 H27        9.5854    4.9869    3.5771 H         1 RES1    0.0000
     53 H28        9.3471    3.4544    3.8167 H         1 RES1    0.0000
     54 H29        7.2408    4.0409    2.7947 H         1 RES1    0.0000
     55 H30        5.5123    0.2417    1.5894 H         1 RES1    0.0000
@<TRIPOS>BOND
     1    1    6 2
     2    2   26 2
     3    3    5 1
     4    4    6 1
     5    5   26 1
     6    6    7 1
     7    7    8 1
     8    9    7 1
     9   10    7 1
    10   11   10 1
    11   12   10 1
    12   13    3 1
    13   14   13 1
    14   15   13 1
    15   16   15 ar
    16   17   16 1
    17   18   16 ar
    18   19   18 1
    19   20   18 ar
    20   21   20 1
    21   22   20 ar
    22   23   22 1
    23   24   15 ar
    24   25   24 1
    25   26   27 1
    26   27   28 1
    27   29   27 1
    28   30   29 1
    29   31   29 1
    30   32   29 1
    31   33   27 1
    32   34   33 1
    33   35   33 1
    34   36   33 1
    35   37    4 1
    36   38   37 1
    37   39   37 1
    38   40   39 1
    39   41   39 1
    40   42   39 1
    41   43   42 1
    42   44   42 1
    43   45   42 1
    44   46   45 1
    45   47   45 1
    46   48   45 1
    47   49   48 1
    48   50   48 1
    49   51   37 1
    50   52   51 1
    51   53   51 1
    52   54    4 1
    53   55    5 1
    54   10   13 1
    55   22   24 ar
    56   48   51 1
@<TRIPOS>SUBSTRUCTURE
     1 RES1 1

@<TRIPOS>CRYSIN
  22.3670   14.9220   11.9410  90.0000 100.3300  90.0000  15 1

