# MOL2 file generated by ConQuest
# Please check atom types

@<TRIPOS>MOLECULE
FAKTUG
    48    44     2
SMALL
NO_CHARGES
****
Generated from CSD

@<TRIPOS>ATOM
      1 O1        27.1222    5.5637   11.5798 O.3       1 RES1    0.0000
      2 C1        26.0203    4.7525   11.1891 C.3       1 RES1    0.0000
      3 C2        25.6476    3.8984   12.4153 C.3       1 RES1    0.0000
      4 C3        26.7321    4.2311   13.4466 C.3       1 RES1    0.0000
      5 C4        27.2178    5.5993   12.9965 C.3       1 RES1    0.0000
      6 C5        26.3793    3.9679    9.9176 C.3       1 RES1    0.0000
      7 C6        26.7547    4.9773    8.8346 C.3       1 RES1    0.0000
      8 O2        27.0215    4.2983    7.5988 O.3       1 RES1    0.0000
      9 C7        27.5569    3.0313   10.1608 C.3       1 RES1    0.0000
     10 C8        25.1618    3.1708    9.4738 C.3       1 RES1    0.0000
     11 N1        24.2894    4.2475   12.9092 N.pl3     1 RES1    0.0000
     12 C9        23.3914    3.3199   13.0480 C.2       1 RES1    0.0000
     13 C10       22.0252    3.4809   13.5012 C.ar      1 RES1    0.0000
     14 C11       21.5200    4.6158   14.1452 C.ar      1 RES1    0.0000
     15 C12       20.1893    4.6593   14.5190 C.ar      1 RES1    0.0000
     16 C13       19.3418    3.6069   14.2485 C.ar      1 RES1    0.0000
     17 C14       19.8208    2.4856   13.6074 C.ar      1 RES1    0.0000
     18 C15       21.1529    2.4195   13.2487 C.ar      1 RES1    0.0000
     19 O3        24.0962    5.5134   13.1740 O.2       1 RES1    0.0000
     20 C16       26.3146    4.1272   14.8978 C.3       1 RES1    0.0000
     21 O4        26.3206    2.6985   15.2075 O.3       1 RES1    0.0000
     22 H1        25.1819    5.3214   10.9682 H         1 RES1    0.0000
     23 H2        25.6300    2.9318   12.2090 H         1 RES1    0.0000
     24 H3        27.4571    3.5984   13.3262 H         1 RES1    0.0000
     25 H4        28.1356    5.7959   13.2170 H         1 RES1    0.0000
     26 H5        26.6782    6.2873   13.3711 H         1 RES1    0.0000
     27 H6        27.5090    5.5247    9.1174 H         1 RES1    0.0000
     28 H7        25.9712    5.6321    8.6936 H         1 RES1    0.0000
     29 H8        27.2064    4.9513    6.7273 H         1 RES1    0.0000
     30 H9        27.6087    2.4347   11.0420 H         1 RES1    0.0000
     31 H10       27.8521    2.4856    9.2779 H         1 RES1    0.0000
     32 H11       28.2208    3.3950   10.4979 H         1 RES1    0.0000
     33 H12       24.2884    3.7566    9.2009 H         1 RES1    0.0000
     34 H13       25.3186    2.8189    8.6519 H         1 RES1    0.0000
     35 H14       24.9075    2.5308   10.1447 H         1 RES1    0.0000
     36 H15       23.6826    2.4743   12.7869 H         1 RES1    0.0000
     37 H16       22.1281    5.3270   14.3118 H         1 RES1    0.0000
     38 H17       19.8739    5.4569   14.9924 H         1 RES1    0.0000
     39 H18       18.3415    3.5815   14.5269 H         1 RES1    0.0000
     40 H19       19.2565    1.6665   13.4032 H         1 RES1    0.0000
     41 H20       21.4849    1.6721   12.8462 H         1 RES1    0.0000
     42 H21       26.9390    4.6034   15.4675 H         1 RES1    0.0000
     43 H22       25.6095    4.7740   15.0614 H         1 RES1    0.0000
     44 O5        27.2912    4.3283   15.7950 Du        2 SUP2    0.0000
     45 H23       25.4279    4.4994   15.0261 Du        2 SUP2    0.0000
     46 H24       25.9411    3.2448   15.0453 Du        2 SUP2    0.0000
     47 H25       25.5516    2.4262   15.2620 Du        2 SUP2    0.0000
     48 H26       27.7607    4.9530   15.5510 Du        2 SUP2    0.0000
@<TRIPOS>BOND
     1    1    2 1
     2    2    3 1
     3    3    4 1
     4    4    5 1
     5    5    1 1
     6    6    2 1
     7    7    6 1
     8    8    7 1
     9    9    6 1
    10   10    6 1
    11   11    3 1
    12   12   11 2
    13   13   12 1
    14   14   13 ar
    15   15   14 ar
    16   16   15 ar
    17   17   16 ar
    18   18   13 ar
    19   19   11 1
    20   20    4 1
    21   21   20 1
    22   22    2 1
    23   23    3 1
    24   24    4 1
    25   25    5 1
    26   26    5 1
    27   27    7 1
    28   28    7 1
    29   29    8 1
    30   30    9 1
    31   31    9 1
    32   32    9 1
    33   33   10 1
    34   34   10 1
    35   35   10 1
    36   36   12 1
    37   37   14 1
    38   38   15 1
    39   39   16 1
    40   40   17 1
    41   41   18 1
    42   42   20 1
    43   43   20 1
    44   17   18 ar
@<TRIPOS>SUBSTRUCTURE
     1 RES1 1
     2 SUP2 44

@<TRIPOS>CRYSIN
  33.5740    5.6490   17.1270  90.0000 110.4100  90.0000  15 1

