# MOL2 file generated by ConQuest
# Please check atom types

@<TRIPOS>MOLECULE
FAMFUU
    53    56     1
SMALL
NO_CHARGES
****
Generated from CSD

@<TRIPOS>ATOM
      1 O1         4.4389    3.8210    8.4767 O.3       1 RES1    0.0000
      2 C1         5.1801    3.3271    9.6251 C.3       1 RES1    0.0000
      3 C2         4.6394    5.1714    8.0453 C.3       1 RES1    0.0000
      4 C3         3.5660    6.1065    8.5927 C.3       1 RES1    0.0000
      5 C4         6.6673    3.1487    9.2823 C.ar      1 RES1    0.0000
      6 C5         7.1244    3.2221    7.9749 C.ar      1 RES1    0.0000
      7 C6         8.4597    3.0045    7.6764 C.ar      1 RES1    0.0000
      8 C7         9.3622    2.6997    8.6735 C.ar      1 RES1    0.0000
      9 C8         8.9132    2.5793    9.9692 C.ar      1 RES1    0.0000
     10 C9         7.5839    2.8001   10.2756 C.ar      1 RES1    0.0000
     11 C10        4.6045    1.9200    9.8493 C.ar      1 RES1    0.0000
     12 C11        4.1432    1.1759    8.7804 C.ar      1 RES1    0.0000
     13 C12        3.6279   -0.0909    8.9707 C.ar      1 RES1    0.0000
     14 C13        3.5755   -0.6435   10.2286 C.ar      1 RES1    0.0000
     15 C14        4.0620    0.0657   11.2949 C.ar      1 RES1    0.0000
     16 C15        4.5778    1.3387   11.1098 C.ar      1 RES1    0.0000
     17 C16        4.9057    4.2499   10.8217 C.ar      1 RES1    0.0000
     18 C17        5.8466    5.1282   11.3392 C.ar      1 RES1    0.0000
     19 C18        5.5090    6.0203   12.3429 C.ar      1 RES1    0.0000
     20 C19        4.2202    6.0627   12.8330 C.ar      1 RES1    0.0000
     21 C20        3.2758    5.1944   12.3312 C.ar      1 RES1    0.0000
     22 C21        3.6214    4.2895   11.3431 C.ar      1 RES1    0.0000
     23 C22        4.5728    5.1953    6.5319 C.ar      1 RES1    0.0000
     24 C23        5.0544    6.2978    5.8410 C.ar      1 RES1    0.0000
     25 C24        4.9268    6.4042    4.4697 C.ar      1 RES1    0.0000
     26 C25        4.2995    5.3797    3.7932 C.ar      1 RES1    0.0000
     27 C26        3.8155    4.2709    4.4332 C.ar      1 RES1    0.0000
     28 C27        3.9524    4.1817    5.8084 C.ar      1 RES1    0.0000
     29 N1         4.1326    5.5003    2.3346 N.pl3     1 RES1    0.0000
     30 O2         4.6506    6.4440    1.7663 O.2       1 RES1    0.0000
     31 O3         3.4723    4.6579    1.7636 O.2       1 RES1    0.0000
     32 H1         5.4904    5.4743    8.3698 H         1 RES1    0.0000
     33 H2         3.6146    6.9510    8.1391 H         1 RES1    0.0000
     34 H3         2.7261    5.6848    8.3946 H         1 RES1    0.0000
     35 H4         6.5074    3.4272    7.2684 H         1 RES1    0.0000
     36 H5         8.7599    3.0655    6.7665 H         1 RES1    0.0000
     37 H6        10.2911    2.5727    8.4663 H         1 RES1    0.0000
     38 H7         9.5291    2.3409   10.6653 H         1 RES1    0.0000
     39 H8         7.2870    2.7120   11.1841 H         1 RES1    0.0000
     40 H9         4.1825    1.5442    7.8940 H         1 RES1    0.0000
     41 H10        3.3025   -0.5899    8.2173 H         1 RES1    0.0000
     42 H11        3.2032   -1.5185   10.3577 H         1 RES1    0.0000
     43 H12        4.0437   -0.3210   12.1735 H         1 RES1    0.0000
     44 H13        4.9212    1.8244   11.8632 H         1 RES1    0.0000
     45 H14        6.7437    5.1174   10.9964 H         1 RES1    0.0000
     46 H15        6.1749    6.6129   12.7001 H         1 RES1    0.0000
     47 H16        3.9832    6.6908   13.5187 H         1 RES1    0.0000
     48 H17        2.3758    5.2173   12.6662 H         1 RES1    0.0000
     49 H18        2.9605    3.6766   11.0133 H         1 RES1    0.0000
     50 H19        5.4857    7.0038    6.3272 H         1 RES1    0.0000
     51 H20        5.2656    7.1702    4.0005 H         1 RES1    0.0000
     52 H21        3.3897    3.5671    3.9379 H         1 RES1    0.0000
     53 H22        3.6139    3.4107    6.2699 H         1 RES1    0.0000
@<TRIPOS>BOND
     1    1    2 1
     2    2    5 1
     3    3    1 1
     4    4    3 1
     5    5    6 ar
     6    6    7 ar
     7    7    8 ar
     8    8    9 ar
     9    9   10 ar
    10   10    5 ar
    11   11    2 1
    12   12   11 ar
    13   13   12 ar
    14   14   13 ar
    15   15   14 ar
    16   16   11 ar
    17   17    2 1
    18   18   17 ar
    19   19   18 ar
    20   20   19 ar
    21   21   20 ar
    22   22   17 ar
    23   23    3 1
    24   24   23 ar
    25   25   24 ar
    26   26   25 ar
    27   27   26 ar
    28   28   23 ar
    29   29   26 1
    30   30   29 2
    31   31   29 2
    32   32    3 1
    33   33    4 1
    34   34    4 1
    35   35    6 1
    36   36    7 1
    37   37    8 1
    38   38    9 1
    39   39   10 1
    40   40   12 1
    41   41   13 1
    42   42   14 1
    43   43   15 1
    44   44   16 1
    45   45   18 1
    46   46   19 1
    47   47   20 1
    48   48   21 1
    49   49   22 1
    50   50   24 1
    51   51   25 1
    52   52   27 1
    53   53   28 1
    54   15   16 ar
    55   21   22 ar
    56   27   28 ar
@<TRIPOS>SUBSTRUCTURE
     1 RES1 1

@<TRIPOS>CRYSIN
   8.6010    9.8290   13.7310  72.8300  79.7600  75.6400   2 1

