# MOL2 file generated by ConQuest
# Please check atom types

@<TRIPOS>MOLECULE
FAMJEL
    75    76     1
SMALL
NO_CHARGES
****
Generated from CSD

@<TRIPOS>ATOM
      1 O1        -1.7187    2.4985   -3.2819 O.2       1 RES1    0.0000
      2 O2        -0.9423    0.5408   -3.7265 O.2       1 RES1    0.0000
      3 O3         2.5992   -1.2404   -1.1280 O.2       1 RES1    0.0000
      4 O4         3.0904   -0.4501    0.8236 O.2       1 RES1    0.0000
      5 O5        -0.8566    3.7213    4.8009 O.3       1 RES1    0.0000
      6 N1        -0.9898    1.5509   -3.0328 N.pl3     1 RES1    0.0000
      7 N2         2.4663   -0.3924   -0.2462 N.pl3     1 RES1    0.0000
      8 N3         2.2425    1.9260    1.5260 N.pl3     1 RES1    0.0000
      9 H1         2.7615    1.2623    1.7817 H         1 RES1    0.0000
     10 N4         2.1997    3.1091    2.2553 N.2       1 RES1    0.0000
     11 C1        -0.1462    1.6325   -1.8557 C.ar      1 RES1    0.0000
     12 C2         0.7401    0.6249   -1.5941 C.ar      1 RES1    0.0000
     13 H2         0.8069   -0.1207   -2.1804 H         1 RES1    0.0000
     14 C3         1.5414    0.7000   -0.4623 C.ar      1 RES1    0.0000
     15 C4         1.4772    1.8086    0.4215 C.ar      1 RES1    0.0000
     16 C5         0.5408    2.8256    0.0974 C.ar      1 RES1    0.0000
     17 H3         0.4571    3.5813    0.6663 H         1 RES1    0.0000
     18 C6        -0.2402    2.7366   -1.0159 C.ar      1 RES1    0.0000
     19 H4        -0.8534    3.4346   -1.2189 H         1 RES1    0.0000
     20 C7         2.9206    3.1195    3.3275 C.2       1 RES1    0.0000
     21 C8         3.7256    1.9629    3.8175 C.3       1 RES1    0.0000
     22 H5         3.1485    1.1775    3.9047 H         1 RES1    0.0000
     23 H6         4.1142    2.1821    4.6899 H         1 RES1    0.0000
     24 H7         4.4442    1.7711    3.1789 H         1 RES1    0.0000
     25 C9         2.9289    4.4062    4.0953 C.3       1 RES1    0.0000
     26 H8         2.7091    4.2206    5.0426 H         1 RES1    0.0000
     27 H9         2.2286    5.0034    3.7335 H         1 RES1    0.0000
     28 C10        4.2893    5.1222    4.0256 C.3       1 RES1    0.0000
     29 H10        4.9797    4.4555    4.3086 H         1 RES1    0.0000
     30 C11        4.6108    5.4999    2.5700 C.3       1 RES1    0.0000
     31 H11        4.5766    4.6968    2.0082 H         1 RES1    0.0000
     32 H12        5.5079    5.8939    2.5249 H         1 RES1    0.0000
     33 H13        3.9529    6.1516    2.2481 H         1 RES1    0.0000
     34 C12        4.3811    6.3238    5.0313 C.3       1 RES1    0.0000
     35 C13        3.3263    7.3861    4.7176 C.3       1 RES1    0.0000
     36 H14        3.4877    7.7531    3.8227 H         1 RES1    0.0000
     37 H15        3.3808    8.1053    5.3798 H         1 RES1    0.0000
     38 H16        2.4349    6.9800    4.7483 H         1 RES1    0.0000
     39 C14        5.8090    6.9272    4.9277 C.3       1 RES1    0.0000
     40 H17        6.4601    6.1809    4.9462 H         1 RES1    0.0000
     41 H18        5.8932    7.3714    4.0472 H         1 RES1    0.0000
     42 C15        6.2065    7.9295    6.0021 C.3       1 RES1    0.0000
     43 H19        6.2042    7.4791    6.8826 H         1 RES1    0.0000
     44 H20        5.5334    8.6533    6.0318 H         1 RES1    0.0000
     45 C16        7.5869    8.5398    5.7591 C.3       1 RES1    0.0000
     46 H21        8.2496    7.8052    5.7079 H         1 RES1    0.0000
     47 H22        7.5778    8.9958    4.8806 H         1 RES1    0.0000
     48 C17        8.0356    9.5092    6.7883 C.3       1 RES1    0.0000
     49 H23        8.9053    9.8797    6.5290 H         1 RES1    0.0000
     50 H24        8.1196    9.0545    7.6515 H         1 RES1    0.0000
     51 H25        7.3803   10.2352    6.8632 H         1 RES1    0.0000
     52 C18        4.1915    5.7455    6.4172 C.2       1 RES1    0.0000
     53 H26        4.7972    5.0556    6.6633 H         1 RES1    0.0000
     54 C19        3.2964    6.0730    7.3265 C.2       1 RES1    0.0000
     55 H27        2.7245    6.8039    7.1266 H         1 RES1    0.0000
     56 C20        3.1010    5.3997    8.6397 C.3       1 RES1    0.0000
     57 H28        3.3227    6.0341    9.3675 H         1 RES1    0.0000
     58 H29        3.7180    4.6284    8.7073 H         1 RES1    0.0000
     59 C21        1.6465    4.9076    8.8160 C.3       1 RES1    0.0000
     60 H30        1.5493    4.4914    9.7089 H         1 RES1    0.0000
     61 H31        1.0319    5.6819    8.7709 H         1 RES1    0.0000
     62 C22        1.2606    3.9043    7.7550 C.ar      1 RES1    0.0000
     63 C23        1.8691    2.6540    7.7181 C.ar      1 RES1    0.0000
     64 H32        2.5046    2.4202    8.3834 H         1 RES1    0.0000
     65 C24        1.5593    1.7610    6.7330 C.ar      1 RES1    0.0000
     66 H33        1.9834    0.9100    6.7309 H         1 RES1    0.0000
     67 C25        0.6468    2.0568    5.7366 C.ar      1 RES1    0.0000
     68 H34        0.4429    1.4221    5.0590 H         1 RES1    0.0000
     69 C26        0.0395    3.2940    5.7489 C.ar      1 RES1    0.0000
     70 C27        0.3370    4.2020    6.7586 C.ar      1 RES1    0.0000
     71 H35       -0.1011    5.0458    6.7688 H         1 RES1    0.0000
     72 C28       -1.1202    2.8409    3.7099 C.3       1 RES1    0.0000
     73 H36       -1.7001    3.2911    3.0600 H         1 RES1    0.0000
     74 H37       -1.5654    2.0320    4.0420 H         1 RES1    0.0000
     75 H38       -0.2759    2.5931    3.2783 H         1 RES1    0.0000
@<TRIPOS>BOND
     1    1    6 2
     2    2    6 2
     3    3    7 2
     4    4    7 2
     5    5   69 1
     6    6   11 1
     7    7   14 1
     8    8    9 1
     9   10    8 1
    10   11   12 ar
    11   12   13 1
    12   14   12 ar
    13   15    8 1
    14   16   15 ar
    15   17   16 1
    16   18   11 ar
    17   19   18 1
    18   20   10 2
    19   21   20 1
    20   22   21 1
    21   23   21 1
    22   24   21 1
    23   25   20 1
    24   26   25 1
    25   27   25 1
    26   28   25 1
    27   29   28 1
    28   30   28 1
    29   31   30 1
    30   32   30 1
    31   33   30 1
    32   34   28 1
    33   35   34 1
    34   36   35 1
    35   37   35 1
    36   38   35 1
    37   39   34 1
    38   40   39 1
    39   41   39 1
    40   42   39 1
    41   43   42 1
    42   44   42 1
    43   45   42 1
    44   46   45 1
    45   47   45 1
    46   48   45 1
    47   49   48 1
    48   50   48 1
    49   51   48 1
    50   52   34 1
    51   53   52 1
    52   54   52 2
    53   55   54 1
    54   56   54 1
    55   57   56 1
    56   58   56 1
    57   59   56 1
    58   60   59 1
    59   61   59 1
    60   62   59 1
    61   63   62 ar
    62   64   63 1
    63   65   63 ar
    64   66   65 1
    65   67   65 ar
    66   68   67 1
    67   69   67 ar
    68   70   62 ar
    69   71   70 1
    70   72    5 1
    71   73   72 1
    72   74   72 1
    73   75   72 1
    74   14   15 ar
    75   16   18 ar
    76   69   70 ar
@<TRIPOS>SUBSTRUCTURE
     1 RES1 1

@<TRIPOS>CRYSIN
   8.5260   32.6170   10.3730  90.0000  98.7900  90.0000  14 1

