# MOL2 file generated by ConQuest
# Please check atom types

@<TRIPOS>MOLECULE
FANDUW
    47    51     1
SMALL
NO_CHARGES
****
Generated from CSD

@<TRIPOS>ATOM
      1 O1         0.2819    3.8280    3.1753 O.3       1 RES1    0.0000
      2 C1         0.9931    4.3826    2.1558 C.ar      1 RES1    0.0000
      3 C2         0.9658    3.7299    0.9454 C.ar      1 RES1    0.0000
      4 H1         0.4692    2.9513    0.8406 H         1 RES1    0.0000
      5 C3         1.6831    4.2472   -0.1009 C.ar      1 RES1    0.0000
      6 H2         1.6855    3.8024   -0.9177 H         1 RES1    0.0000
      7 C4         2.3987    5.4097    0.0316 C.ar      1 RES1    0.0000
      8 H3         2.8617    5.7553   -0.6982 H         1 RES1    0.0000
      9 C5         2.4341    6.0593    1.2262 C.ar      1 RES1    0.0000
     10 H4         2.9286    6.8422    1.3093 H         1 RES1    0.0000
     11 C6         1.7393    5.5665    2.3279 C.ar      1 RES1    0.0000
     12 C7         1.8436    6.1948    3.6352 C.2       1 RES1    0.0000
     13 O2         2.4441    7.2357    3.8355 O.2       1 RES1    0.0000
     14 C8         1.2218    5.4097    4.8120 C.3       1 RES1    0.0000
     15 N1         2.2950    4.3752    5.1047 N.2       1 RES1    0.0000
     16 N2         2.8585    4.6194    6.1826 N.2       1 RES1    0.0000
     17 C9         2.3655    5.8065    6.8629 C.3       1 RES1    0.0000
     18 H5         3.0317    6.5105    6.8412 H         1 RES1    0.0000
     19 H6         2.1532    5.6060    7.7865 H         1 RES1    0.0000
     20 C10        1.1055    6.2353    6.1015 C.3       1 RES1    0.0000
     21 H7         1.1980    7.1824    5.8681 H         1 RES1    0.0000
     22 C11       -0.1707    6.0700    6.9064 C.ar      1 RES1    0.0000
     23 C12       -0.5074    4.8658    7.4859 C.ar      1 RES1    0.0000
     24 H8         0.0732    4.1437    7.4108 H         1 RES1    0.0000
     25 C13       -1.7026    4.7143    8.1821 C.ar      1 RES1    0.0000
     26 H9        -1.9460    3.8941    8.5460 H         1 RES1    0.0000
     27 C14       -2.5024    5.8076    8.3126 C.ar      1 RES1    0.0000
     28 C15       -2.1881    7.0256    7.7984 C.ar      1 RES1    0.0000
     29 H10       -2.7488    7.7573    7.9230 H         1 RES1    0.0000
     30 C16       -1.0036    7.1504    7.0765 C.ar      1 RES1    0.0000
     31 H11       -0.7740    7.9717    6.7067 H         1 RES1    0.0000
     32 C17       -0.0196    4.6642    4.3294 C.3       1 RES1    0.0000
     33 H12       -0.2741    4.0541    5.0532 H         1 RES1    0.0000
     34 C18       -1.2316    5.5015    4.0386 C.ar      1 RES1    0.0000
     35 C19       -2.4740    4.8679    4.0327 C.ar      1 RES1    0.0000
     36 H13       -2.5251    3.9538    4.1969 H         1 RES1    0.0000
     37 C20       -3.6228    5.5783    3.7855 C.ar      1 RES1    0.0000
     38 H14       -4.4434    5.1420    3.7795 H         1 RES1    0.0000
     39 C21       -3.5666    6.9446    3.5481 C.ar      1 RES1    0.0000
     40 H15       -4.3433    7.4320    3.3939 H         1 RES1    0.0000
     41 C22       -2.3586    7.5515    3.5442 C.ar      1 RES1    0.0000
     42 H16       -2.3128    8.4645    3.3781 H         1 RES1    0.0000
     43 C23       -1.2024    6.8603    3.7795 C.ar      1 RES1    0.0000
     44 H17       -0.3876    7.3093    3.7637 H         1 RES1    0.0000
     45 N3        -3.7852    5.6668    9.0543 N.pl3     1 RES1    0.0000
     46 O3        -4.3936    6.6694    9.3450 O.2       1 RES1    0.0000
     47 O4        -4.1162    4.5501    9.3885 O.2       1 RES1    0.0000
@<TRIPOS>BOND
     1    1    2 1
     2    2    3 ar
     3    3    4 1
     4    5    3 ar
     5    6    5 1
     6    7    5 ar
     7    8    7 1
     8    9    7 ar
     9   10    9 1
    10   11    2 ar
    11   12   11 1
    12   13   12 2
    13   14   12 1
    14   15   14 1
    15   16   15 2
    16   17   16 1
    17   18   17 1
    18   19   17 1
    19   20   14 1
    20   21   20 1
    21   22   20 1
    22   23   22 ar
    23   24   23 1
    24   25   23 ar
    25   26   25 1
    26   27   25 ar
    27   28   27 ar
    28   29   28 1
    29   30   22 ar
    30   31   30 1
    31   32    1 1
    32   33   32 1
    33   34   32 1
    34   35   34 ar
    35   36   35 1
    36   37   35 ar
    37   38   37 1
    38   39   37 ar
    39   40   39 1
    40   41   39 ar
    41   42   41 1
    42   43   34 ar
    43   44   43 1
    44   45   27 1
    45   46   45 2
    46   47   45 2
    47    9   11 ar
    48   14   32 1
    49   17   20 1
    50   28   30 ar
    51   41   43 ar
@<TRIPOS>SUBSTRUCTURE
     1 RES1 1

@<TRIPOS>CRYSIN
   9.2308   10.6659   20.0260  90.0000  99.0290  90.0000 231 1

