# MOL2 file generated by ConQuest
# Please check atom types

@<TRIPOS>MOLECULE
FAPHUA
    77    79     1
SMALL
NO_CHARGES
****
Generated from CSD

@<TRIPOS>ATOM
      1 C1         6.9333   -2.0627   -4.4128 C.3       1 RES1    0.0000
      2 H1         7.0796   -2.3805   -5.3066 H         1 RES1    0.0000
      3 H2         7.1658   -2.7523   -3.7861 H         1 RES1    0.0000
      4 H3         7.4798   -1.2895   -4.2544 H         1 RES1    0.0000
      5 C2         5.4963   -1.7004   -4.2421 C.2       1 RES1    0.0000
      6 C3         3.8393   -0.9659   -2.6936 C.3       1 RES1    0.0000
      7 H4         3.4117   -1.7514   -2.3180 H         1 RES1    0.0000
      8 H5         3.3516   -0.7021   -3.4902 H         1 RES1    0.0000
      9 C4         3.8319    0.1589   -1.6869 C.3       1 RES1    0.0000
     10 H6         2.9114    0.3701   -1.4654 H         1 RES1    0.0000
     11 H7         4.2225    0.9457   -2.0974 H         1 RES1    0.0000
     12 C5         4.5869   -0.1447   -0.3974 C.3       1 RES1    0.0000
     13 H8         5.5378   -0.1722   -0.5839 H         1 RES1    0.0000
     14 H9         4.3216   -1.0187   -0.0709 H         1 RES1    0.0000
     15 C6         4.3156    0.9098    0.6977 C.3       1 RES1    0.0000
     16 H10        4.4224    1.7968    0.2941 H         1 RES1    0.0000
     17 C7         5.3523    0.7811    1.8558 C.3       1 RES1    0.0000
     18 H11        5.1626    1.4379    2.5290 H         1 RES1    0.0000
     19 H12        6.2371    0.9219    1.5109 H         1 RES1    0.0000
     20 H13        5.2951   -0.0975    2.2401 H         1 RES1    0.0000
     21 C8         2.8744    0.8030    1.2317 C.2       1 RES1    0.0000
     22 C9         1.9112    1.7138    1.0776 C.2       1 RES1    0.0000
     23 C10        0.5369    1.4724    1.6956 C.3       1 RES1    0.0000
     24 H14        0.5734    1.6747    2.6437 H         1 RES1    0.0000
     25 H15       -0.1066    2.0731    1.2877 H         1 RES1    0.0000
     26 C11        0.0681    0.0381    1.5083 C.3       1 RES1    0.0000
     27 H16       -0.7085   -0.1343    2.0799 H         1 RES1    0.0000
     28 C12        0.3050   -1.1743   -0.4841 C.2       1 RES1    0.0000
     29 C13        1.1694   -1.8361    0.5007 C.2       1 RES1    0.0000
     30 C14        1.1542   -1.0312    1.7639 C.3       1 RES1    0.0000
     31 H17        0.8776   -1.6032    2.5106 H         1 RES1    0.0000
     32 C15        2.5547   -0.4437    2.0572 C.3       1 RES1    0.0000
     33 H18        3.2299   -1.1284    1.8681 H         1 RES1    0.0000
     34 C16        2.0202    3.0159    0.3502 C.3       1 RES1    0.0000
     35 H19        2.9025    3.1042   -0.0175 H         1 RES1    0.0000
     36 H20        1.8534    3.7382    0.9594 H         1 RES1    0.0000
     37 H21        1.3738    3.0401   -0.3598 H         1 RES1    0.0000
     38 C17        1.8148   -2.9710    0.2819 C.2       1 RES1    0.0000
     39 H22        1.7363   -3.4003   -0.5392 H         1 RES1    0.0000
     40 H23        2.3483   -3.3383    0.9489 H         1 RES1    0.0000
     41 C18        3.2424   -0.9829    4.2894 C.2       1 RES1    0.0000
     42 C19        3.4187   -0.5178    5.7076 C.2       1 RES1    0.0000
     43 C20        4.5698   -1.1551    6.4473 C.3       1 RES1    0.0000
     44 H24        4.5720   -2.1110    6.2853 H         1 RES1    0.0000
     45 H25        4.4642   -1.0109    7.4014 H         1 RES1    0.0000
     46 C21        5.8903   -0.5524    5.9807 C.ar      1 RES1    0.0000
     47 C22        6.9584   -1.3448    5.6025 C.ar      1 RES1    0.0000
     48 H26        6.8728   -2.2707    5.6279 H         1 RES1    0.0000
     49 C23        8.1604   -0.7796    5.1841 C.ar      1 RES1    0.0000
     50 H27        8.8694   -1.3306    4.9425 H         1 RES1    0.0000
     51 C24        8.3043    0.5627    5.1272 C.ar      1 RES1    0.0000
     52 H28        9.0997    0.9350    4.8208 H         1 RES1    0.0000
     53 C25        7.2579    1.3831    5.5281 C.ar      1 RES1    0.0000
     54 H29        7.3690    2.3062    5.5316 H         1 RES1    0.0000
     55 C26        6.0516    0.8350    5.9220 C.ar      1 RES1    0.0000
     56 H30        5.3434    1.3933    6.1496 H         1 RES1    0.0000
     57 C27        2.1076    1.8446    7.8847 C.3       1 RES1    0.0000
     58 H31        1.1797    1.7237    7.6299 H         1 RES1    0.0000
     59 H32        2.4407    2.6535    7.4636 H         1 RES1    0.0000
     60 C28        2.2302    1.9475    9.3965 C.3       1 RES1    0.0000
     61 H33        1.6377    2.6443    9.7195 H         1 RES1    0.0000
     62 H34        1.9550    1.1093    9.7983 H         1 RES1    0.0000
     63 C29        3.5001    2.2294    9.7711 C.3       1 RES1    0.0000
     64 H35        3.7516    3.0947    9.4113 H         1 RES1    0.0000
     65 H36        4.0971    1.5661    9.3912 H         1 RES1    0.0000
     66 C30        3.6851    2.2512   11.3530 C.3       1 RES1    0.0000
     67 H37        4.6101    2.3992   11.5648 H         1 RES1    0.0000
     68 H38        3.4036    1.4096   11.7197 H         1 RES1    0.0000
     69 H39        3.1539    2.9572   11.7276 H         1 RES1    0.0000
     70 N1         2.6247    0.3921    6.1260 N.2       1 RES1    0.0000
     71 O1         5.2257   -1.2662   -3.0332 O.3       1 RES1    0.0000
     72 O2         4.6750   -1.7419   -5.0913 O.2       1 RES1    0.0000
     73 O3         2.6447   -0.0687    3.4788 O.3       1 RES1    0.0000
     74 O4         3.6320   -2.0574    3.9130 O.2       1 RES1    0.0000
     75 O5        -0.3139   -0.1177    0.0840 O.3       1 RES1    0.0000
     76 O6         0.1246   -1.4648   -1.6545 O.2       1 RES1    0.0000
     77 O7         2.8905    0.7103    7.4750 O.3       1 RES1    0.0000
@<TRIPOS>BOND
     1    1    2 1
     2    3    1 1
     3    4    1 1
     4    5    1 1
     5    6    7 1
     6    8    6 1
     7    9    6 1
     8   10    9 1
     9   11    9 1
    10   12    9 1
    11   13   12 1
    12   14   12 1
    13   15   12 1
    14   16   15 1
    15   17   15 1
    16   18   17 1
    17   19   17 1
    18   20   17 1
    19   21   15 1
    20   22   21 2
    21   23   22 1
    22   24   23 1
    23   25   23 1
    24   26   23 1
    25   27   26 1
    26   28   29 1
    27   29   30 1
    28   30   26 1
    29   31   30 1
    30   32   21 1
    31   33   32 1
    32   34   22 1
    33   35   34 1
    34   36   34 1
    35   37   34 1
    36   38   29 2
    37   39   38 1
    38   40   38 1
    39   41   42 1
    40   42   43 1
    41   43   44 1
    42   45   43 1
    43   46   43 1
    44   47   46 ar
    45   48   47 1
    46   49   47 ar
    47   50   49 1
    48   51   49 ar
    49   52   51 1
    50   53   51 ar
    51   54   53 1
    52   55   46 ar
    53   56   55 1
    54   57   58 1
    55   59   57 1
    56   60   57 1
    57   61   60 1
    58   62   60 1
    59   63   60 1
    60   64   63 1
    61   65   63 1
    62   66   63 1
    63   67   66 1
    64   68   66 1
    65   69   66 1
    66   70   42 2
    67   71    5 1
    68   72    5 2
    69   73   32 1
    70   74   41 2
    71   75   26 1
    72   76   28 2
    73   77   57 1
    74    6   71 1
    75   28   75 1
    76   30   32 1
    77   41   73 1
    78   53   55 ar
    79   70   77 1
@<TRIPOS>SUBSTRUCTURE
     1 RES1 1

@<TRIPOS>CRYSIN
   9.1860    9.4700    9.8400 108.8400 107.3250  94.3030   1 1

