# MOL2 file generated by ConQuest
# Please check atom types

@<TRIPOS>MOLECULE
FAPXEZ
    34    36     1
SMALL
NO_CHARGES
****
Generated from CSD

@<TRIPOS>ATOM
      1 C1        12.1849    2.8951   10.2355 C.2       1 RES1    0.0000
      2 C2        12.9445    2.6324    9.1312 C.2       1 RES1    0.0000
      3 C3        12.6767    1.4995    8.2621 C.2       1 RES1    0.0000
      4 C4        11.4834    0.9904    7.9354 C.2       1 RES1    0.0000
      5 C5        10.2111    1.4771    8.3902 C.2       1 RES1    0.0000
      6 C6        10.0278    1.9838    9.6213 C.2       1 RES1    0.0000
      7 C7         8.9738    2.8963   10.0930 C.2       1 RES1    0.0000
      8 C8         7.8284    2.5714   10.7125 C.2       1 RES1    0.0000
      9 C9         7.0797    3.4694   11.5358 C.2       1 RES1    0.0000
     10 C10        7.5930    4.4574   12.2964 C.2       1 RES1    0.0000
     11 C11        8.9820    4.7956   12.4454 C.2       1 RES1    0.0000
     12 C12        9.9172    4.6168   11.4862 C.2       1 RES1    0.0000
     13 C13       11.3459    4.6935   11.7528 C.2       1 RES1    0.0000
     14 C14       12.3322    4.0467   11.1320 C.2       1 RES1    0.0000
     15 C15       11.1641    1.8642   10.5857 C.3       1 RES1    0.0000
     16 C16        9.4142    4.3324   10.1061 C.3       1 RES1    0.0000
     17 C17       14.0542    3.5111    8.7809 C.2       1 RES1    0.0000
     18 N1        14.7639    3.2937    7.7485 N.2       1 RES1    0.0000
     19 O1        15.7719    4.2527    7.5995 O.3       1 RES1    0.0000
     20 H1        13.4865    1.2018    7.8151 H         1 RES1    0.0000
     21 H2        11.4805    0.2597    7.2663 H         1 RES1    0.0000
     22 H3         9.4494    1.5339    7.8021 H         1 RES1    0.0000
     23 H4         7.5167    1.5943   10.6641 H         1 RES1    0.0000
     24 H5         6.0761    3.2248   11.5790 H         1 RES1    0.0000
     25 H6         6.9694    4.8856   12.8858 H         1 RES1    0.0000
     26 H7         9.3138    5.1271   13.2648 H         1 RES1    0.0000
     27 H8        11.6014    5.3445   12.4154 H         1 RES1    0.0000
     28 H9        13.2475    4.2877   11.3045 H         1 RES1    0.0000
     29 H10       11.6172    0.9904   10.5073 H         1 RES1    0.0000
     30 H11       10.8191    1.9868   11.4875 H         1 RES1    0.0000
     31 H12        8.6036    4.9097    9.9192 H         1 RES1    0.0000
     32 H13       10.1170    4.5051    9.4095 H         1 RES1    0.0000
     33 H14       14.2115    4.2756    9.3442 H         1 RES1    0.0000
     34 H15       16.2134    3.9616    6.8611 H         1 RES1    0.0000
@<TRIPOS>BOND
     1    1    2 2
     2    2    3 1
     3    3    4 2
     4    4    5 1
     5    5    6 2
     6    6    7 1
     7    7    8 2
     8    8    9 1
     9    9   10 2
    10   10   11 1
    11   11   12 2
    12   12   13 1
    13   13   14 2
    14   14    1 1
    15   15    1 1
    16   16    7 1
    17   17    2 1
    18   18   17 2
    19   19   18 1
    20   20    3 1
    21   21    4 1
    22   22    5 1
    23   23    8 1
    24   24    9 1
    25   25   10 1
    26   26   11 1
    27   27   13 1
    28   28   14 1
    29   29   15 1
    30   30   15 1
    31   31   16 1
    32   32   16 1
    33   33   17 1
    34   34   19 1
    35    6   15 1
    36   12   16 1
@<TRIPOS>SUBSTRUCTURE
     1 RES1 1

@<TRIPOS>CRYSIN
  16.7680    6.0390   13.2700  90.0000  99.9900  90.0000  14 1

