# MOL2 file generated by ConQuest
# Please check atom types

@<TRIPOS>MOLECULE
FAQQOD
    51    54     1
SMALL
USER_CHARGES
****
Generated from CSD

@<TRIPOS>ATOM
      1 O1        12.0095    5.3542    0.3855 O.2       1 RES1   -1.0000
      2 O2        15.7847    4.1085    3.3613 O.3       1 RES1    0.0000
      3 O3        11.5081    6.2028   -3.5915 O.2       1 RES1    0.0000
      4 O4        17.7021    5.9895   -8.1135 O.3       1 RES1    0.0000
      5 N1        13.0286    5.3268   -0.4324 N.pl3     1 RES1    1.0000
      6 N2        14.0658    5.8440   -3.8719 N.3       1 RES1    0.0000
      7 N3        15.3230    5.2520   -2.0272 N.ar      1 RES1    0.0000
      8 N4        10.4946    5.7885   -1.5946 N.am      1 RES1    0.0000
      9 C1        12.9130    5.5957   -1.7582 C.ar      1 RES1    0.0000
     10 C2        14.1471    5.5552   -2.5471 C.ar      1 RES1    0.0000
     11 C3        15.3757    4.9701   -0.6985 C.ar      1 RES1    0.0000
     12 C4        16.6239    4.6298   -0.1065 C.ar      1 RES1    0.0000
     13 C5        16.7067    4.3719    1.2303 C.ar      1 RES1    0.0000
     14 C6        15.5549    4.4096    2.0502 C.ar      1 RES1    0.0000
     15 C7        14.3242    4.7135    1.5203 C.ar      1 RES1    0.0000
     16 C8        14.2561    4.9982    0.1446 C.ar      1 RES1    0.0000
     17 C9        11.5694    5.8962   -2.3877 C.2       1 RES1    0.0000
     18 C10        9.1262    5.9325   -1.9275 C.ar      1 RES1    0.0000
     19 C11        8.2305    5.5943   -0.9075 C.ar      1 RES1    0.0000
     20 C12        6.8647    5.7192   -1.1193 C.ar      1 RES1    0.0000
     21 C13        6.3832    6.1809   -2.3349 C.ar      1 RES1    0.0000
     22 C14        7.2772    6.5170   -3.3403 C.ar      1 RES1    0.0000
     23 C15        8.6514    6.3983   -3.1431 C.ar      1 RES1    0.0000
     24 C16       15.0797    5.8358   -4.8685 C.ar      1 RES1    0.0000
     25 C17       14.7262    6.4196   -6.0944 C.ar      1 RES1    0.0000
     26 C18       15.6178    6.4436   -7.1453 C.ar      1 RES1    0.0000
     27 C19       16.8852    5.8934   -7.0014 C.ar      1 RES1    0.0000
     28 C20       17.2486    5.3151   -5.8042 C.ar      1 RES1    0.0000
     29 C21       16.3476    5.2829   -4.7333 C.ar      1 RES1    0.0000
     30 C22       19.0071    5.4050   -8.0035 C.3       1 RES1    0.0000
     31 C23       14.6526    4.1524    4.2515 C.3       1 RES1    0.0000
     32 H1        13.2042    6.0985   -4.1529 H         1 RES1    0.0000
     33 H2        17.4567    4.5619   -0.7360 H         1 RES1    0.0000
     34 H3        17.5047    4.1503    1.7019 H         1 RES1    0.0000
     35 H4        13.4933    4.7403    2.0195 H         1 RES1    0.0000
     36 H5        10.7373    5.5772   -0.7644 H         1 RES1    0.0000
     37 H6         8.5602    5.2753    0.0263 H         1 RES1    0.0000
     38 H7         6.2607    5.4743   -0.3745 H         1 RES1    0.0000
     39 H8         5.4174    6.2357   -2.4269 H         1 RES1    0.0000
     40 H9         6.9276    6.8326   -4.2098 H         1 RES1    0.0000
     41 H10        9.2298    6.6473   -3.8221 H         1 RES1    0.0000
     42 H11       13.8392    6.7845   -6.2469 H         1 RES1    0.0000
     43 H12       15.3625    6.8669   -7.9663 H         1 RES1    0.0000
     44 H13       18.1090    4.9392   -5.6445 H         1 RES1    0.0000
     45 H14       16.5957    4.8843   -3.9098 H         1 RES1    0.0000
     46 H15       18.9558    4.4521   -7.9290 H         1 RES1    0.0000
     47 H16       19.5821    5.8036   -7.2500 H         1 RES1    0.0000
     48 H17       19.4529    5.5840   -8.9169 H         1 RES1    0.0000
     49 H18       13.9243    3.4643    4.0171 H         1 RES1    0.0000
     50 H19       14.2366    5.0352    4.2974 H         1 RES1    0.0000
     51 H20       15.0273    3.9171    5.1407 H         1 RES1    0.0000
@<TRIPOS>BOND
     1    1    5 1
     2    2   14 1
     3    3   17 2
     4    4   27 1
     5    5    9 ar
     6    6   10 1
     7    7   10 ar
     8    8   17 1
     9    9   10 ar
    10   11    7 ar
    11   12   11 ar
    12   13   12 ar
    13   14   13 ar
    14   15   14 ar
    15   16    5 ar
    16   17    9 1
    17   18    8 1
    18   19   18 ar
    19   20   19 ar
    20   21   20 ar
    21   22   21 ar
    22   23   18 ar
    23   24    6 1
    24   25   24 ar
    25   26   25 ar
    26   27   26 ar
    27   28   27 ar
    28   29   24 ar
    29   30    4 1
    30   31    2 1
    31   32    6 1
    32   33   12 1
    33   34   13 1
    34   35   15 1
    35   36    8 1
    36   37   19 1
    37   38   20 1
    38   39   21 1
    39   40   22 1
    40   41   23 1
    41   42   25 1
    42   43   26 1
    43   44   28 1
    44   45   29 1
    45   46   30 1
    46   47   30 1
    47   48   30 1
    48   49   31 1
    49   50   31 1
    50   51   31 1
    51   11   16 ar
    52   15   16 ar
    53   22   23 ar
    54   28   29 ar
@<TRIPOS>SUBSTRUCTURE
     1 RES1 1

@<TRIPOS>CRYSIN
  13.2390    6.8600   22.3740  90.0000 101.7720  90.0000 231 1

