# MOL2 file generated by ConQuest
# Please check atom types

@<TRIPOS>MOLECULE
FASJUF
    37    39     1
SMALL
NO_CHARGES
****
Generated from CSD

@<TRIPOS>ATOM
      1 O1         1.1678    8.6875    6.5667 O.3       1 RES1    0.0000
      2 C1         0.8548   10.0826    6.4982 C.3       1 RES1    0.0000
      3 O2        -0.5679   10.1415    6.7570 O.3       1 RES1    0.0000
      4 C2        -1.1421    8.9623    6.3158 C.3       1 RES1    0.0000
      5 H1        -1.8316    8.6391    6.9635 H         1 RES1    0.0000
      6 O3        -1.7192    9.1243    4.9812 O.3       1 RES1    0.0000
      7 C3        -1.1067    8.3306    4.0624 C.2       1 RES1    0.0000
      8 C4        -0.0122    7.5762    4.7133 C.2       1 RES1    0.0000
      9 C5         0.0113    7.9348    6.1821 C.3       1 RES1    0.0000
     10 C6         0.8467    6.7870    4.0732 C.2       1 RES1    0.0000
     11 H2         1.6401    6.5425    4.5339 H         1 RES1    0.0000
     12 C7         0.6663    6.2554    2.6924 C.ar      1 RES1    0.0000
     13 C8         1.2116    6.7578    1.5131 C.ar      1 RES1    0.0000
     14 C9         0.9960    6.1610    0.2723 C.ar      1 RES1    0.0000
     15 H3         1.3719    6.5380   -0.5142 H         1 RES1    0.0000
     16 C10        0.2273    5.0133    0.2008 C.ar      1 RES1    0.0000
     17 H4         0.0655    4.6006   -0.6396 H         1 RES1    0.0000
     18 C11       -0.3063    4.4657    1.3580 C.ar      1 RES1    0.0000
     19 H5        -0.8209    3.6688    1.3124 H         1 RES1    0.0000
     20 C12       -0.0893    5.0828    2.5869 C.ar      1 RES1    0.0000
     21 H6        -0.4626    4.6983    3.3720 H         1 RES1    0.0000
     22 C13       -0.1273    6.7326    7.0987 C.3       1 RES1    0.0000
     23 H7         0.6925    6.1968    7.0621 H         1 RES1    0.0000
     24 H8        -0.8875    6.1863    6.8085 H         1 RES1    0.0000
     25 H9        -0.2777    7.0385    8.0179 H         1 RES1    0.0000
     26 C14        1.1876   10.6755    5.1413 C.3       1 RES1    0.0000
     27 H10        2.1564   10.6351    4.9953 H         1 RES1    0.0000
     28 H11        0.8914   11.6090    5.1118 H         1 RES1    0.0000
     29 H12        0.7305   10.1647    4.4408 H         1 RES1    0.0000
     30 C15        1.5773   10.7858    7.6212 C.3       1 RES1    0.0000
     31 H13        1.3768   10.3390    8.4694 H         1 RES1    0.0000
     32 H14        1.2822   11.7187    7.6659 H         1 RES1    0.0000
     33 H15        2.5431   10.7568    7.4571 H         1 RES1    0.0000
     34 N1         2.0285    7.9786    1.5323 N.pl3     1 RES1    0.0000
     35 O4        -1.4458    8.3477    2.9046 O.2       1 RES1    0.0000
     36 O5         2.5430    8.3516    0.4830 O.2       1 RES1    0.0000
     37 O6         2.1601    8.5786    2.5968 O.2       1 RES1    0.0000
@<TRIPOS>BOND
     1    1    2 1
     2    2    3 1
     3    3    4 1
     4    4    5 1
     5    6    4 1
     6    7    6 1
     7    8    7 1
     8    9    1 1
     9   10    8 2
    10   11   10 1
    11   12   10 1
    12   13   12 ar
    13   14   13 ar
    14   15   14 1
    15   16   14 ar
    16   17   16 1
    17   18   16 ar
    18   19   18 1
    19   20   12 ar
    20   21   20 1
    21   22    9 1
    22   23   22 1
    23   24   22 1
    24   25   22 1
    25   26    2 1
    26   27   26 1
    27   28   26 1
    28   29   26 1
    29   30    2 1
    30   31   30 1
    31   32   30 1
    32   33   30 1
    33   34   13 1
    34   35    7 2
    35   36   34 2
    36   37   34 2
    37    4    9 1
    38    8    9 1
    39   18   20 ar
@<TRIPOS>SUBSTRUCTURE
     1 RES1 1

@<TRIPOS>CRYSIN
  10.3547   15.0298   10.1790  90.0000 118.3450  90.0000  14 1

