# MOL2 file generated by ConQuest
# Please check atom types

@<TRIPOS>MOLECULE
FASRUP
    33    34     1
SMALL
NO_CHARGES
****
Generated from CSD

@<TRIPOS>ATOM
      1 O1        16.9914    4.3894    4.5456 O.2       1 RES1    0.0000
      2 O2        21.8247    0.2451    6.9339 O.2       1 RES1    0.0000
      3 O3        23.2670    1.0627    5.5673 O.2       1 RES1    0.0000
      4 N1        22.1557    1.0208    6.0441 N.pl3     1 RES1    0.0000
      5 C1        19.2113    3.6596    4.5428 C.ar      1 RES1    0.0000
      6 C2        18.9484    2.8298    5.6283 C.ar      1 RES1    0.0000
      7 H1        18.1075    2.8525    6.0259 H         1 RES1    0.0000
      8 C3        19.9090    1.9740    6.1278 C.ar      1 RES1    0.0000
      9 H2        19.7253    1.4236    6.8556 H         1 RES1    0.0000
     10 C4        21.1428    1.9562    5.5227 C.ar      1 RES1    0.0000
     11 C5        21.4392    2.7623    4.4582 C.ar      1 RES1    0.0000
     12 H3        22.2822    2.7348    4.0679 H         1 RES1    0.0000
     13 C6        20.4664    3.6219    3.9660 C.ar      1 RES1    0.0000
     14 H4        20.6614    4.1757    3.2445 H         1 RES1    0.0000
     15 C7        18.0997    4.5366    4.0524 C.2       1 RES1    0.0000
     16 C8        18.3336    5.5048    2.9916 C.2       1 RES1    0.0000
     17 H5        19.1870    5.5950    2.6367 H         1 RES1    0.0000
     18 C9        17.3422    6.2665    2.5166 C.2       1 RES1    0.0000
     19 H6        16.5076    6.1237    2.9024 H         1 RES1    0.0000
     20 C10       17.3877    7.2849    1.4849 C.ar      1 RES1    0.0000
     21 C11       18.5964    7.6197    0.8716 C.ar      1 RES1    0.0000
     22 H7        19.3784    7.1879    1.1346 H         1 RES1    0.0000
     23 C12       18.6535    8.5835   -0.1192 C.ar      1 RES1    0.0000
     24 H8        19.4622    8.7808   -0.5313 H         1 RES1    0.0000
     25 C13       17.5022    9.2531   -0.4968 C.ar      1 RES1    0.0000
     26 H9        17.5363    9.9126   -1.1509 H         1 RES1    0.0000
     27 C14       16.3099    8.9357    0.1028 C.ar      1 RES1    0.0000
     28 H10       15.5356    9.3766   -0.1665 H         1 RES1    0.0000
     29 C15       16.2259    7.9709    1.1064 C.ar      1 RES1    0.0000
     30 C16       14.8927    7.6930    1.7478 C.3       1 RES1    0.0000
     31 H11       14.2348    8.2965    1.3939 H         1 RES1    0.0000
     32 H12       14.9615    7.8160    2.6968 H         1 RES1    0.0000
     33 H13       14.6295    6.7885    1.5604 H         1 RES1    0.0000
@<TRIPOS>BOND
     1    1   15 2
     2    2    4 2
     3    3    4 2
     4    4   10 1
     5    5    6 ar
     6    6    7 1
     7    8    6 ar
     8    9    8 1
     9   10    8 ar
    10   11   10 ar
    11   12   11 1
    12   13    5 ar
    13   14   13 1
    14   15    5 1
    15   16   15 1
    16   17   16 1
    17   18   16 2
    18   19   18 1
    19   20   18 1
    20   21   20 ar
    21   22   21 1
    22   23   21 ar
    23   24   23 1
    24   25   23 ar
    25   26   25 1
    26   27   25 ar
    27   28   27 1
    28   29   20 ar
    29   30   29 1
    30   31   30 1
    31   32   30 1
    32   33   30 1
    33   11   13 ar
    34   27   29 ar
@<TRIPOS>SUBSTRUCTURE
     1 RES1 1

@<TRIPOS>CRYSIN
  29.9050    4.8241    9.0984  90.0000  90.0000  90.0000  29 1

