# MOL2 file generated by ConQuest
# Please check atom types

@<TRIPOS>MOLECULE
FASWON
    34    35     1
SMALL
NO_CHARGES
****
Generated from CSD

@<TRIPOS>ATOM
      1 C1         4.7632   12.7630    2.1994 C.ar      1 RES1    0.0000
      2 H1         4.9827   12.3604    3.0318 H         1 RES1    0.0000
      3 C2         3.8501   12.1549    1.3458 C.ar      1 RES1    0.0000
      4 H2         3.4401   11.3359    1.5980 H         1 RES1    0.0000
      5 C3         3.5357   12.7346    0.1332 C.ar      1 RES1    0.0000
      6 H3         2.9265   12.3041   -0.4551 H         1 RES1    0.0000
      7 C4         4.1076   13.9406   -0.2253 C.ar      1 RES1    0.0000
      8 H4         3.8779   14.3435   -1.0546 H         1 RES1    0.0000
      9 C5         5.0123   14.5650    0.6137 C.ar      1 RES1    0.0000
     10 H5         5.3990   15.3970    0.3668 H         1 RES1    0.0000
     11 C6         5.3529   13.9662    1.8233 C.ar      1 RES1    0.0000
     12 C7         7.7158   14.5951    1.9735 C.3       1 RES1    0.0000
     13 H6         8.3350   15.1215    2.5383 H         1 RES1    0.0000
     14 H7         7.6276   15.0619    1.1045 H         1 RES1    0.0000
     15 C8         8.3101   13.2173    1.7380 C.3       1 RES1    0.0000
     16 H8         8.4045   12.7519    2.5954 H         1 RES1    0.0000
     17 H9         9.1899   13.3093    1.3175 H         1 RES1    0.0000
     18 H10        7.7189   12.7019    1.1502 H         1 RES1    0.0000
     19 C9         6.2933   14.5561    3.9960 C.ar      1 RES1    0.0000
     20 C10        5.0669   14.7294    4.6910 C.ar      1 RES1    0.0000
     21 C11        4.9631   14.6315    6.0639 C.ar      1 RES1    0.0000
     22 H11        4.1192   14.7075    6.4938 H         1 RES1    0.0000
     23 C12        6.1126   14.4216    6.7972 C.ar      1 RES1    0.0000
     24 C13        7.3577   14.3320    6.1840 C.ar      1 RES1    0.0000
     25 H12        8.1442   14.2339    6.7078 H         1 RES1    0.0000
     26 C14        7.4401   14.3876    4.8151 C.ar      1 RES1    0.0000
     27 H13        8.2926   14.3112    4.4023 H         1 RES1    0.0000
     28 N1         6.3917   14.5424    2.6297 N.pl3     1 RES1    0.0000
     29 N2         3.8441   15.1768    4.0134 N.pl3     1 RES1    0.0000
     30 N3         6.0177   14.3215    8.2444 N.pl3     1 RES1    0.0000
     31 O1         3.9465   16.0222    3.1294 O.2       1 RES1    0.0000
     32 O2         2.7696   14.7368    4.4170 O.2       1 RES1    0.0000
     33 O3         4.9059   14.3522    8.7603 O.2       1 RES1    0.0000
     34 O4         7.0586   14.2236    8.8868 O.2       1 RES1    0.0000
@<TRIPOS>BOND
     1    1    2 1
     2    3    1 ar
     3    4    3 1
     4    5    3 ar
     5    6    5 1
     6    7    5 ar
     7    8    7 1
     8    9    7 ar
     9   10    9 1
    10   11    1 ar
    11   12   13 1
    12   14   12 1
    13   15   12 1
    14   16   15 1
    15   17   15 1
    16   18   15 1
    17   19   20 ar
    18   20   21 ar
    19   21   22 1
    20   23   21 ar
    21   24   23 ar
    22   25   24 1
    23   26   19 ar
    24   27   26 1
    25   28   11 1
    26   29   20 1
    27   30   23 1
    28   31   29 2
    29   32   29 2
    30   33   30 2
    31   34   30 2
    32    9   11 ar
    33   12   28 1
    34   19   28 1
    35   24   26 ar
@<TRIPOS>SUBSTRUCTURE
     1 RES1 1

@<TRIPOS>CRYSIN
   8.0781   16.1090   10.6222  90.0000 102.0010  90.0000  14 1

