# MOL2 file generated by ConQuest
# Please check atom types

@<TRIPOS>MOLECULE
FASXEE
    58    59     1
SMALL
NO_CHARGES
****
Generated from CSD

@<TRIPOS>ATOM
      1 N1         2.8780    9.8285    9.2419 N.2       1 RES1    0.0000
      2 N2         2.2937    3.8312   11.7945 N.2       1 RES1    0.0000
      3 O1         3.0407    8.4630    8.8957 O.3       1 RES1    0.0000
      4 O2         2.5901    3.5996   10.4238 O.3       1 RES1    0.0000
      5 O3         2.3047   14.8488   10.6255 O.3       1 RES1    0.0000
      6 O4         4.1209   16.1321    9.1293 O.3       1 RES1    0.0000
      7 H1         3.5361   16.4119    9.6314 H         1 RES1    0.0000
      8 O5         1.3328    5.4668   16.6470 O.3       1 RES1    0.0000
      9 O6         3.0756    4.0297   18.1227 O.3       1 RES1    0.0000
     10 H2         2.4773    4.5409   18.3563 H         1 RES1    0.0000
     11 C1         1.8863    7.7236    9.3340 C.3       1 RES1    0.0000
     12 H3         1.1000    8.0092    8.8419 H         1 RES1    0.0000
     13 H4         1.7302    7.8766   10.2805 H         1 RES1    0.0000
     14 C2         2.1554    6.2663    9.0811 C.3       1 RES1    0.0000
     15 H5         3.0144    6.0288    9.4618 H         1 RES1    0.0000
     16 H6         2.1996    6.1104    8.1256 H         1 RES1    0.0000
     17 C3         1.0714    5.3788    9.6861 C.3       1 RES1    0.0000
     18 H7         0.9274    5.6426   10.6080 H         1 RES1    0.0000
     19 H8         0.2417    5.5231    9.2045 H         1 RES1    0.0000
     20 C4         1.4146    3.9128    9.6437 C.3       1 RES1    0.0000
     21 H9         0.6635    3.3998    9.9823 H         1 RES1    0.0000
     22 H10        1.5648    3.6476    8.7220 H         1 RES1    0.0000
     23 C5         3.8265   10.5288    8.7381 C.2       1 RES1    0.0000
     24 H11        4.4853   10.0975    8.2425 H         1 RES1    0.0000
     25 C6         3.9161   11.9818    8.9095 C.ar      1 RES1    0.0000
     26 C7         3.0202   12.6871    9.7258 C.ar      1 RES1    0.0000
     27 H12        2.3687   12.2251   10.2015 H         1 RES1    0.0000
     28 C8         3.0985   14.0526    9.8247 C.ar      1 RES1    0.0000
     29 C9         4.0617   14.7637    9.0776 C.ar      1 RES1    0.0000
     30 C10        4.9569   14.0715    8.3001 C.ar      1 RES1    0.0000
     31 H13        5.6084   14.5335    7.8244 H         1 RES1    0.0000
     32 C11        4.8958   12.6900    8.2218 C.ar      1 RES1    0.0000
     33 H14        5.5164   12.2295    7.7045 H         1 RES1    0.0000
     34 C12        1.4636   14.1677   11.5749 C.3       1 RES1    0.0000
     35 H15        1.9991   13.5644   12.1138 H         1 RES1    0.0000
     36 H16        0.7957   13.6445   11.1050 H         1 RES1    0.0000
     37 C13        0.8162   15.1339   12.4252 C.3       1 RES1    0.0000
     38 H17        1.4722   15.5638   12.9793 H         1 RES1    0.0000
     39 H18        0.1699   14.6908   12.9793 H         1 RES1    0.0000
     40 H19        0.3749   15.7925   11.8828 H         1 RES1    0.0000
     41 C14        3.2913    3.5368   12.5243 C.2       1 RES1    0.0000
     42 H20        4.0675    3.2104   12.1284 H         1 RES1    0.0000
     43 C15        3.2357    3.7044   13.9845 C.ar      1 RES1    0.0000
     44 C16        2.2579    4.5263   14.5775 C.ar      1 RES1    0.0000
     45 H21        1.6502    4.9824   14.0406 H         1 RES1    0.0000
     46 C17        2.1967    4.6618   15.9567 C.ar      1 RES1    0.0000
     47 C18        3.1020    3.9492   16.7602 C.ar      1 RES1    0.0000
     48 C19        4.0700    3.1623   16.1766 C.ar      1 RES1    0.0000
     49 H22        4.6799    2.7062   16.7102 H         1 RES1    0.0000
     50 C20        4.1388    3.0486   14.7906 C.ar      1 RES1    0.0000
     51 H23        4.8022    2.5226   14.4061 H         1 RES1    0.0000
     52 C21        0.4381    6.2969   15.9055 C.3       1 RES1    0.0000
     53 H24       -0.1709    5.7504   15.3856 H         1 RES1    0.0000
     54 H25        0.9365    6.8652   15.2979 H         1 RES1    0.0000
     55 C22       -0.3364    7.1436   16.8929 C.3       1 RES1    0.0000
     56 H26       -0.7670    6.5738   17.5347 H         1 RES1    0.0000
     57 H27       -0.9995    7.6565   16.4236 H         1 RES1    0.0000
     58 H28        0.2658    7.7382   17.3476 H         1 RES1    0.0000
@<TRIPOS>BOND
     1    1    3 1
     2    2    4 1
     3    3   11 1
     4    4   20 1
     5    5   28 1
     6    6    7 1
     7    8   46 1
     8    9   10 1
     9   11   12 1
    10   13   11 1
    11   14   11 1
    12   15   14 1
    13   16   14 1
    14   17   14 1
    15   18   17 1
    16   19   17 1
    17   20   17 1
    18   21   20 1
    19   22   20 1
    20   23    1 2
    21   24   23 1
    22   25   23 1
    23   26   25 ar
    24   27   26 1
    25   28   26 ar
    26   29    6 1
    27   30   29 ar
    28   31   30 1
    29   32   25 ar
    30   33   32 1
    31   34    5 1
    32   35   34 1
    33   36   34 1
    34   37   34 1
    35   38   37 1
    36   39   37 1
    37   40   37 1
    38   41    2 2
    39   42   41 1
    40   43   41 1
    41   44   43 ar
    42   45   44 1
    43   46   44 ar
    44   47    9 1
    45   48   47 ar
    46   49   48 1
    47   50   43 ar
    48   51   50 1
    49   52    8 1
    50   53   52 1
    51   54   52 1
    52   55   52 1
    53   56   55 1
    54   57   55 1
    55   58   55 1
    56   28   29 ar
    57   30   32 ar
    58   46   47 ar
    59   48   50 ar
@<TRIPOS>SUBSTRUCTURE
     1 RES1 1

@<TRIPOS>CRYSIN
   5.2239   14.5728   29.2720  90.0000  92.7140  90.0000  14 1

