# MOL2 file generated by ConQuest
# Please check atom types

@<TRIPOS>MOLECULE
FASXOO
    44    45     1
SMALL
NO_CHARGES
****
Generated from CSD

@<TRIPOS>ATOM
      1 N1         5.5992    2.1683    5.0475 N.2       1 RES1    0.0000
      2 O1         6.9671    2.4892    5.0882 O.3       1 RES1    0.0000
      3 O2        -0.6325    2.4294    6.3923 O.3       1 RES1    0.0000
      4 H1        -0.9256    1.7926    5.9674 H         1 RES1    0.0000
      5 C1         7.6584    1.6058    4.2017 C.3       1 RES1    0.0000
      6 H2         7.3548    1.7441    3.2908 H         1 RES1    0.0000
      7 H3         7.4821    0.6837    4.4472 H         1 RES1    0.0000
      8 C2         9.1408    1.8984    4.3078 C.3       1 RES1    0.0000
      9 H4         9.4169    1.7942    5.2318 H         1 RES1    0.0000
     10 H5         9.6290    1.2482    3.7776 H         1 RES1    0.0000
     11 C3         4.9250    2.8989    5.8255 C.2       1 RES1    0.0000
     12 H6         5.3576    3.5532    6.3254 H         1 RES1    0.0000
     13 C4         3.4838    2.7385    5.9576 C.ar      1 RES1    0.0000
     14 C5         2.7933    1.7070    5.3296 C.ar      1 RES1    0.0000
     15 H7         3.2617    1.0883    4.8167 H         1 RES1    0.0000
     16 C6         1.4290    1.5903    5.4552 C.ar      1 RES1    0.0000
     17 H8         0.9767    0.9025    5.0230 H         1 RES1    0.0000
     18 C7         0.7353    2.5011    6.2292 C.ar      1 RES1    0.0000
     19 C8         1.3964    3.5213    6.8580 C.ar      1 RES1    0.0000
     20 H9         0.9267    4.1332    7.3767 H         1 RES1    0.0000
     21 C9         2.7618    3.6384    6.7177 C.ar      1 RES1    0.0000
     22 H10        3.2066    4.3360    7.1434 H         1 RES1    0.0000
     23 N1B       13.0438    2.9918    3.1081 N.2       1 RES1    0.0000
     24 O1B       11.6758    2.6709    3.0673 O.3       1 RES1    0.0000
     25 O2B       19.2754    2.7307    1.7632 O.3       1 RES1    0.0000
     26 H1B       19.5686    3.3675    2.1881 H         1 RES1    0.0000
     27 C1B       10.9845    3.5543    3.9538 C.3       1 RES1    0.0000
     28 H2B       11.2881    3.4160    4.8648 H         1 RES1    0.0000
     29 H3B       11.1609    4.4764    3.7083 H         1 RES1    0.0000
     30 C2B        9.5022    3.2617    3.8478 C.3       1 RES1    0.0000
     31 H4B        9.2260    3.3659    2.9238 H         1 RES1    0.0000
     32 H5B        9.0139    3.9119    4.3779 H         1 RES1    0.0000
     33 C3B       13.7179    2.2612    2.3300 C.2       1 RES1    0.0000
     34 H6B       13.2854    1.6069    1.8301 H         1 RES1    0.0000
     35 C4B       15.1591    2.4216    2.1979 C.ar      1 RES1    0.0000
     36 C5B       15.8496    3.4531    2.8259 C.ar      1 RES1    0.0000
     37 H7B       15.3812    4.0718    3.3389 H         1 RES1    0.0000
     38 C6B       17.2139    3.5698    2.7003 C.ar      1 RES1    0.0000
     39 H8B       17.6662    4.2576    3.1325 H         1 RES1    0.0000
     40 C7B       17.9077    2.6590    1.9263 C.ar      1 RES1    0.0000
     41 C8B       17.2466    1.6388    1.2975 C.ar      1 RES1    0.0000
     42 H9B       17.7163    1.0269    0.7789 H         1 RES1    0.0000
     43 C9B       15.8812    1.5217    1.4378 C.ar      1 RES1    0.0000
     44 H10B      15.4363    0.8241    1.0121 H         1 RES1    0.0000
@<TRIPOS>BOND
     1    1    2 1
     2    2    5 1
     3    3    4 1
     4    5    6 1
     5    7    5 1
     6    8    5 1
     7    9    8 1
     8   10    8 1
     9   11    1 2
    10   12   11 1
    11   13   11 1
    12   14   13 ar
    13   15   14 1
    14   16   14 ar
    15   17   16 1
    16   18    3 1
    17   19   18 ar
    18   20   19 1
    19   21   13 ar
    20   22   21 1
    21   23   24 1
    22   24   27 1
    23   25   26 1
    24   27   28 1
    25   29   27 1
    26   30    8 1
    27   31   30 1
    28   32   30 1
    29   33   23 2
    30   34   33 1
    31   35   33 1
    32   36   35 ar
    33   37   36 1
    34   38   36 ar
    35   39   38 1
    36   40   25 1
    37   41   40 ar
    38   42   41 1
    39   43   35 ar
    40   44   43 1
    41   16   18 ar
    42   19   21 ar
    43   27   30 1
    44   38   40 ar
    45   41   43 ar
@<TRIPOS>SUBSTRUCTURE
     1 RES1 1

@<TRIPOS>CRYSIN
  20.1950    5.1601    8.3019  90.0000 100.7750  90.0000  14 1

