# MOL2 file generated by ConQuest
# Please check atom types

@<TRIPOS>MOLECULE
FATYUW
    22    22     1
SMALL
NO_CHARGES
****
Generated from CSD

@<TRIPOS>ATOM
      1 O1         2.3155    6.0679    8.3939 O.2       1 RES1    0.0000
      2 O2        -0.1931    0.1253    5.1675 O.2       1 RES1    0.0000
      3 O3         0.6670   -0.4904    7.0523 O.2       1 RES1    0.0000
      4 O4         3.0876    7.6963    6.4329 O.3       1 RES1    0.0000
      5 N1         2.4591    6.4744    6.1956 N.am      1 RES1    0.0000
      6 H1         2.5967    6.0750    5.3085 H         1 RES1    0.0000
      7 N2         0.4314    0.3604    6.2061 N.pl3     1 RES1    0.0000
      8 C1         2.2009    5.6922    7.2257 C.2       1 RES1    0.0000
      9 C2         1.7278    4.3108    6.9017 C.ar      1 RES1    0.0000
     10 C3         1.1420    3.9764    5.6820 C.ar      1 RES1    0.0000
     11 H2         1.0264    4.6405    5.0122 H         1 RES1    0.0000
     12 C4         0.7287    2.6765    5.4467 C.ar      1 RES1    0.0000
     13 H3         0.3246    2.4414    4.6196 H         1 RES1    0.0000
     14 C5         0.9124    1.7288    6.4320 C.ar      1 RES1    0.0000
     15 C6         1.4978    2.0349    7.6516 C.ar      1 RES1    0.0000
     16 H4         1.6127    1.3684    8.3187 H         1 RES1    0.0000
     17 C7         1.9056    3.3241    7.8660 C.ar      1 RES1    0.0000
     18 H5         2.3189    3.5498    8.6912 H         1 RES1    0.0000
     19 C8         2.1390    8.7373    6.6597 C.3       1 RES1    0.0000
     20 H6         1.5555    8.8248    5.8774 H         1 RES1    0.0000
     21 H7         2.6111    9.5834    6.8112 H         1 RES1    0.0000
     22 H8         1.5984    8.5211    7.4487 H         1 RES1    0.0000
@<TRIPOS>BOND
     1    1    8 2
     2    2    7 2
     3    3    7 2
     4    4    5 1
     5    5    6 1
     6    7   14 1
     7    8    5 1
     8    9    8 1
     9   10    9 ar
    10   11   10 1
    11   12   10 ar
    12   13   12 1
    13   14   12 ar
    14   15   14 ar
    15   16   15 1
    16   17    9 ar
    17   18   17 1
    18   19    4 1
    19   20   19 1
    20   21   19 1
    21   22   19 1
    22   15   17 ar
@<TRIPOS>SUBSTRUCTURE
     1 RES1 1

@<TRIPOS>CRYSIN
   3.8578   11.8168    9.6848  90.0000 100.2970  90.0000   7 1

