# MOL2 file generated by ConQuest
# Please check atom types

@<TRIPOS>MOLECULE
FATZAD
    28    28     1
SMALL
NO_CHARGES
****
Generated from CSD

@<TRIPOS>ATOM
      1 O1         0.9070    7.9794    0.8062 O.3       1 RES1    0.0000
      2 O2         3.5253    5.9485    0.2025 O.2       1 RES1    0.0000
      3 O3        -1.8618    4.5725   -4.3009 O.2       1 RES1    0.0000
      4 O4        -0.2722    5.2780   -5.5725 O.2       1 RES1    0.0000
      5 O5         2.6446    7.3903    2.1599 O.3       1 RES1    0.0000
      6 O6         1.5867    6.0501    3.6415 O.2       1 RES1    0.0000
      7 N1         1.7079    6.9070    1.2059 N.am      1 RES1    0.0000
      8 N2        -0.7517    5.0570   -4.4744 N.pl3     1 RES1    0.0000
      9 C1         2.3822    6.3143    0.1168 C.2       1 RES1    0.0000
     10 C2         1.5191    6.0320   -1.0679 C.ar      1 RES1    0.0000
     11 C3         0.2189    5.5597   -0.9209 C.ar      1 RES1    0.0000
     12 H1        -0.1599    5.4722   -0.0537 H         1 RES1    0.0000
     13 C4        -0.5208    5.2197   -2.0375 C.ar      1 RES1    0.0000
     14 H2        -1.4025    4.8772   -1.9492 H         1 RES1    0.0000
     15 C5         0.0464    5.3864   -3.2792 C.ar      1 RES1    0.0000
     16 C6         1.3380    5.8367   -3.4491 C.ar      1 RES1    0.0000
     17 H3         1.7123    5.9260   -4.3181 H         1 RES1    0.0000
     18 C7         2.0711    6.1536   -2.3309 C.ar      1 RES1    0.0000
     19 H4         2.9652    6.4589   -2.4258 H         1 RES1    0.0000
     20 C8        -0.2647    8.0369    1.6473 C.3       1 RES1    0.0000
     21 H5        -0.8396    8.7752    1.3567 H         1 RES1    0.0000
     22 H6         0.0076    8.1820    2.5771 H         1 RES1    0.0000
     23 H7        -0.7576    7.1930    1.5789 H         1 RES1    0.0000
     24 C9         2.4660    6.8111    3.4038 C.2       1 RES1    0.0000
     25 C10        3.5336    7.2897    4.3146 C.3       1 RES1    0.0000
     26 H8         4.3491    6.7674    4.1657 H         1 RES1    0.0000
     27 H9         3.2429    7.1832    5.2444 H         1 RES1    0.0000
     28 H10        3.7155    8.2365    4.1356 H         1 RES1    0.0000
@<TRIPOS>BOND
     1    1    7 1
     2    2    9 2
     3    3    8 2
     4    4    8 2
     5    5    7 1
     6    6   24 2
     7    7    9 1
     8    8   15 1
     9    9   10 1
    10   10   11 ar
    11   11   12 1
    12   13   11 ar
    13   14   13 1
    14   15   13 ar
    15   16   15 ar
    16   17   16 1
    17   18   10 ar
    18   19   18 1
    19   20    1 1
    20   21   20 1
    21   22   20 1
    22   23   20 1
    23   24    5 1
    24   25   24 1
    25   26   25 1
    26   27   25 1
    27   28   25 1
    28   16   18 ar
@<TRIPOS>SUBSTRUCTURE
     1 RES1 1

@<TRIPOS>CRYSIN
   6.2863    8.7528   11.5095  68.8480  84.2830  75.4740   2 1

