# MOL2 file generated by ConQuest
# Please check atom types

@<TRIPOS>MOLECULE
FAVCOW
    34    35     1
SMALL
NO_CHARGES
****
Generated from CSD

@<TRIPOS>ATOM
      1 O1         2.7941    1.4266    7.0751 O.2       1 RES1    0.0000
      2 O2         2.7544    0.6537    9.1039 O.2       1 RES1    0.0000
      3 N1         2.9836    5.1234    5.8488 N.2       1 RES1    0.0000
      4 N2         2.9415    3.9843    6.6234 N.pl3     1 RES1    0.0000
      5 H1         2.8758    3.1934    6.2434 H         1 RES1    0.0000
      6 N3         3.1163    7.7453    5.5484 N.pl3     1 RES1    0.0000
      7 H2         3.3608    7.1169    6.0080 H         1 RES1    0.0000
      8 H3         3.3660    8.5813    5.7614 H         1 RES1    0.0000
      9 N4         2.8238    1.6046    8.3193 N.pl3     1 RES1    0.0000
     10 C1         2.8926    6.1541    3.6945 C.ar      1 RES1    0.0000
     11 C2         3.0542    7.4847    4.1944 C.ar      1 RES1    0.0000
     12 C3         3.0800    8.5645    3.3022 C.ar      1 RES1    0.0000
     13 H4         3.1632    9.4463    3.6440 H         1 RES1    0.0000
     14 C4         2.9871    8.3769    1.9492 C.ar      1 RES1    0.0000
     15 H5         3.0054    9.1269    1.3664 H         1 RES1    0.0000
     16 C5         2.8664    7.0897    1.4191 C.ar      1 RES1    0.0000
     17 H6         2.8161    6.9557    0.4797 H         1 RES1    0.0000
     18 C6         2.8213    6.0113    2.2911 C.ar      1 RES1    0.0000
     19 H7         2.7388    5.1373    1.9279 H         1 RES1    0.0000
     20 C7         2.8467    4.9578    4.5620 C.2       1 RES1    0.0000
     21 C8         2.5899    3.5881    3.9635 C.3       1 RES1    0.0000
     22 H8         3.3691    3.0133    4.1159 H         1 RES1    0.0000
     23 H9         2.4336    3.6768    2.9995 H         1 RES1    0.0000
     24 H10        1.8020    3.1890    4.3861 H         1 RES1    0.0000
     25 C9         3.0028    4.0861    7.9852 C.ar      1 RES1    0.0000
     26 C10        2.9413    2.9527    8.8416 C.ar      1 RES1    0.0000
     27 C11        2.9992    3.0853   10.2326 C.ar      1 RES1    0.0000
     28 H11        2.9582    2.3093   10.7796 H         1 RES1    0.0000
     29 C12        3.1140    4.3175   10.8177 C.ar      1 RES1    0.0000
     30 H12        3.1549    4.4028   11.7627 H         1 RES1    0.0000
     31 C13        3.1698    5.4504    9.9939 C.ar      1 RES1    0.0000
     32 H13        3.2393    6.3115   10.3896 H         1 RES1    0.0000
     33 C14        3.1272    5.3415    8.6342 C.ar      1 RES1    0.0000
     34 H14        3.1819    6.1294    8.1063 H         1 RES1    0.0000
@<TRIPOS>BOND
     1    1    9 2
     2    2    9 2
     3    3    4 1
     4    4    5 1
     5    6    7 1
     6    8    6 1
     7    9   26 1
     8   10   11 ar
     9   11    6 1
    10   12   11 ar
    11   13   12 1
    12   14   12 ar
    13   15   14 1
    14   16   14 ar
    15   17   16 1
    16   18   10 ar
    17   19   18 1
    18   20    3 2
    19   21   20 1
    20   22   21 1
    21   23   21 1
    22   24   21 1
    23   25    4 1
    24   26   25 ar
    25   27   26 ar
    26   28   27 1
    27   29   27 ar
    28   30   29 1
    29   31   29 ar
    30   32   31 1
    31   33   25 ar
    32   34   33 1
    33   10   20 1
    34   16   18 ar
    35   31   33 ar
@<TRIPOS>SUBSTRUCTURE
     1 RES1 1

@<TRIPOS>CRYSIN
   6.8201    8.6330   11.3260  81.7600  88.2900  75.9900   2 1

