# MOL2 file generated by ConQuest
# Please check atom types

@<TRIPOS>MOLECULE
FAVDAJ
    34    35     1
SMALL
NO_CHARGES
****
Generated from CSD

@<TRIPOS>ATOM
      1 O1        16.6863    8.7474    4.2831 O.2       1 RES1    0.0000
      2 O2        17.7321    7.2759    5.4845 O.2       1 RES1    0.0000
      3 N1        12.3652    3.9461    1.9308 N.2       1 RES1    0.0000
      4 N2        13.4290    3.6393    2.7439 N.pl3     1 RES1    0.0000
      5 H1        13.6062    2.7993    2.9391 H         1 RES1    0.0000
      6 N3        10.9918    5.6828    0.3791 N.pl3     1 RES1    0.0000
      7 H2        10.9630    6.3005   -0.2996 H         1 RES1    0.0000
      8 H3        11.8513    5.4576    0.7157 H         1 RES1    0.0000
      9 N4        16.8249    7.5854    4.6980 N.pl3     1 RES1    0.0000
     10 C1        10.5162    3.2663    0.5784 C.ar      1 RES1    0.0000
     11 C2        10.2138    4.5665    0.0816 C.ar      1 RES1    0.0000
     12 C3         9.0817    4.7378   -0.7324 C.ar      1 RES1    0.0000
     13 H4         8.8896    5.6013   -1.0782 H         1 RES1    0.0000
     14 C4         8.2461    3.6988   -1.0420 C.ar      1 RES1    0.0000
     15 H5         7.4834    3.8466   -1.5887 H         1 RES1    0.0000
     16 C5         8.5212    2.4262   -0.5518 C.ar      1 RES1    0.0000
     17 H6         7.9493    1.6981   -0.7640 H         1 RES1    0.0000
     18 C6         9.6260    2.2328    0.2405 C.ar      1 RES1    0.0000
     19 H7         9.7952    1.3596    0.5755 H         1 RES1    0.0000
     20 C7        11.7001    2.9568    1.4048 C.2       1 RES1    0.0000
     21 C8        12.1330    1.5226    1.6208 C.3       1 RES1    0.0000
     22 H8        12.0203    1.2863    2.5654 H         1 RES1    0.0000
     23 H9        13.0733    1.4231    1.3686 H         1 RES1    0.0000
     24 H10       11.5826    0.9285    1.0686 H         1 RES1    0.0000
     25 C9        14.2131    4.6369    3.2491 C.ar      1 RES1    0.0000
     26 C10       13.9882    5.9882    2.9457 C.ar      1 RES1    0.0000
     27 H11       13.2444    6.2369    2.4102 H         1 RES1    0.0000
     28 C11       14.8425    6.9499    3.4226 C.ar      1 RES1    0.0000
     29 H12       14.7025    7.8631    3.2033 H         1 RES1    0.0000
     30 C12       15.9093    6.5796    4.2261 C.ar      1 RES1    0.0000
     31 C13       16.1167    5.2462    4.5902 C.ar      1 RES1    0.0000
     32 H13       16.8323    5.0100    5.1678 H         1 RES1    0.0000
     33 C14       15.2737    4.2860    4.1025 C.ar      1 RES1    0.0000
     34 H14       15.4067    3.3754    4.3418 H         1 RES1    0.0000
@<TRIPOS>BOND
     1    1    9 2
     2    2    9 2
     3    3    4 1
     4    4    5 1
     5    6    7 1
     6    8    6 1
     7    9   30 1
     8   10   11 ar
     9   11    6 1
    10   12   11 ar
    11   13   12 1
    12   14   12 ar
    13   15   14 1
    14   16   14 ar
    15   17   16 1
    16   18   10 ar
    17   19   18 1
    18   20    3 2
    19   21   20 1
    20   22   21 1
    21   23   21 1
    22   24   21 1
    23   25    4 1
    24   26   25 ar
    25   27   26 1
    26   28   26 ar
    27   29   28 1
    28   30   28 ar
    29   31   30 ar
    30   32   31 1
    31   33   25 ar
    32   34   33 1
    33   10   20 1
    34   16   18 ar
    35   31   33 ar
@<TRIPOS>SUBSTRUCTURE
     1 RES1 1

@<TRIPOS>CRYSIN
  21.6660   13.8168    4.1612  90.0000  90.0000  90.0000  33 1

