# MOL2 file generated by ConQuest
# Please check atom types

@<TRIPOS>MOLECULE
FAWGAN
    41    44     1
SMALL
NO_CHARGES
****
Generated from CSD

@<TRIPOS>ATOM
      1 C1         2.5486    2.3203    4.0223 C.3       1 RES1    0.0000
      2 H1         3.5293    2.5105    4.0669 H         1 RES1    0.0000
      3 C2         1.7321    3.5539    4.3647 C.3       1 RES1    0.0000
      4 H2         1.9555    3.8549    5.2800 H         1 RES1    0.0000
      5 H3         1.9580    4.2855    3.7363 H         1 RES1    0.0000
      6 C3         0.2564    3.2533    4.2789 C.2       1 RES1    0.0000
      7 C4         0.7873    2.1654    2.1816 C.3       1 RES1    0.0000
      8 H4         0.8939    3.0028    1.6654 H         1 RES1    0.0000
      9 H5         0.4029    1.4810    1.5781 H         1 RES1    0.0000
     10 C5         2.1597    1.6948    2.6700 C.3       1 RES1    0.0000
     11 C6         2.2787    0.2825    3.2787 C.3       1 RES1    0.0000
     12 H6         3.2162   -0.0358    3.1375 H         1 RES1    0.0000
     13 C7         2.2062    0.9469    4.6869 C.3       1 RES1    0.0000
     14 H7         1.2667    0.9454    5.0274 H         1 RES1    0.0000
     15 C8         1.3481   -0.8037    2.8212 C.ar      1 RES1    0.0000
     16 C9         1.7293   -1.5727    1.7212 C.ar      1 RES1    0.0000
     17 H8         2.5726   -1.4185    1.3130 H         1 RES1    0.0000
     18 C10        0.8933   -2.5596    1.2154 C.ar      1 RES1    0.0000
     19 H9         1.1654   -3.0719    0.4647 H         1 RES1    0.0000
     20 C11       -0.3366   -2.7973    1.8067 C.ar      1 RES1    0.0000
     21 H10       -0.9187   -3.4584    1.4502 H         1 RES1    0.0000
     22 C12       -0.7148   -2.0610    2.9257 C.ar      1 RES1    0.0000
     23 H11       -1.5460   -2.2398    3.3495 H         1 RES1    0.0000
     24 C13        0.1182   -1.0633    3.4278 C.ar      1 RES1    0.0000
     25 H12       -0.1514   -0.5581    4.1854 H         1 RES1    0.0000
     26 C14        3.1462    0.3659    5.7145 C.ar      1 RES1    0.0000
     27 C15        3.2976   -1.0209    5.7987 C.ar      1 RES1    0.0000
     28 H13        2.7801   -1.5818    5.2333 H         1 RES1    0.0000
     29 C16        4.1910   -1.5929    6.6960 C.ar      1 RES1    0.0000
     30 H14        4.3044   -2.5355    6.7209 H         1 RES1    0.0000
     31 C17        4.9166   -0.7786    7.5524 C.ar      1 RES1    0.0000
     32 H15        5.5240   -1.1628    8.1742 H         1 RES1    0.0000
     33 C18        4.7543    0.5958    7.5012 C.ar      1 RES1    0.0000
     34 H16        5.2399    1.1503    8.0994 H         1 RES1    0.0000
     35 C19        3.8851    1.1711    6.5774 C.ar      1 RES1    0.0000
     36 H17        3.7959    2.1157    6.5369 H         1 RES1    0.0000
     37 N1         3.1358    1.9975    1.5516 N.pl3     1 RES1    0.0000
     38 O1         3.7221    1.0750    1.0074 O.2       1 RES1    0.0000
     39 O2         3.2979    3.1800    1.2653 O.2       1 RES1    0.0000
     40 O3        -0.5799    3.6444    5.0436 O.2       1 RES1    0.0000
     41 O4        -0.1231    2.3962    3.2825 O.3       1 RES1    0.0000
@<TRIPOS>BOND
     1    1    2 1
     2    3    1 1
     3    4    3 1
     4    5    3 1
     5    6    3 1
     6    7    8 1
     7    9    7 1
     8   10    1 1
     9   11   10 1
    10   12   11 1
    11   13    1 1
    12   14   13 1
    13   15   11 1
    14   16   15 ar
    15   17   16 1
    16   18   16 ar
    17   19   18 1
    18   20   18 ar
    19   21   20 1
    20   22   20 ar
    21   23   22 1
    22   24   15 ar
    23   25   24 1
    24   26   13 1
    25   27   26 ar
    26   28   27 1
    27   29   27 ar
    28   30   29 1
    29   31   29 ar
    30   32   31 1
    31   33   31 ar
    32   34   33 1
    33   35   26 ar
    34   36   35 1
    35   37   10 1
    36   38   37 2
    37   39   37 2
    38   40    6 2
    39   41    6 1
    40    7   10 1
    41    7   41 1
    42   11   13 1
    43   22   24 ar
    44   33   35 ar
@<TRIPOS>SUBSTRUCTURE
     1 RES1 1

@<TRIPOS>CRYSIN
   6.0319    8.3295   31.1875  90.0000  90.0000  90.0000  19 1

