# MOL2 file generated by ConQuest
# Please check atom types

@<TRIPOS>MOLECULE
FAWLIB
    44    40     2
SMALL
NO_CHARGES
****
Generated from CSD

@<TRIPOS>ATOM
      1 N1         2.7831    2.1974   12.1097 N.2       1 RES1    0.0000
      2 N2         1.9803    3.3900   14.4405 N.am      1 RES1    0.0000
      3 H1         2.7772    3.0945   14.3125 H         1 RES1    0.0000
      4 O1         2.8580    1.5969   10.8470 O.3       1 RES1    0.0000
      5 O2        -0.1276    3.4260   13.6568 O.2       1 RES1    0.0000
      6 O3        -0.4728    0.8495   21.0809 O.3       1 RES1    0.0000
      7 O4         1.6155    0.9816   22.9772 O.3       1 RES1    0.0000
      8 C1         1.5315    0.8755    8.9926 C.3       1 RES1    0.0000
      9 H2         2.1613    1.3038    8.4074 H         1 RES1    0.0000
     10 H3         0.6446    0.9850    8.6425 H         1 RES1    0.0000
     11 H4         1.7381   -0.0603    9.0558 H         1 RES1    0.0000
     12 C2         1.6115    1.4878   10.3338 C.2       1 RES1    0.0000
     13 C3         0.7494    1.9990   11.2087 C.2       1 RES1    0.0000
     14 H5        -0.1740    2.0588   11.1145 H         1 RES1    0.0000
     15 C4         1.5137    2.4288   12.2976 C.2       1 RES1    0.0000
     16 C5         1.0529    3.1203   13.5326 C.2       1 RES1    0.0000
     17 C6         1.7144    4.1588   15.6376 C.3       1 RES1    0.0000
     18 H6         0.9392    4.7186   15.4803 H         1 RES1    0.0000
     19 H7         2.4697    4.7440   15.8026 H         1 RES1    0.0000
     20 C7         1.4712    3.3416   16.8568 C.2       1 RES1    0.0000
     21 H8         0.7425    2.7646   16.8585 H         1 RES1    0.0000
     22 C8         2.2245    3.3892   17.9284 C.2       1 RES1    0.0000
     23 H9         2.9769    3.9319   17.8651 H         1 RES1    0.0000
     24 C9         2.0476    2.7068   19.2095 C.ar      1 RES1    0.0000
     25 C10        0.8750    2.0418   19.5536 C.ar      1 RES1    0.0000
     26 H10        0.1839    1.9874   18.9324 H         1 RES1    0.0000
     27 C11        0.7158    1.4641   20.7894 C.ar      1 RES1    0.0000
     28 C12        1.7322    1.5296   21.7215 C.ar      1 RES1    0.0000
     29 C13        2.9028    2.1612   21.3837 C.ar      1 RES1    0.0000
     30 H11        3.6027    2.1904   21.9958 H         1 RES1    0.0000
     31 C14        3.0511    2.7489   20.1543 C.ar      1 RES1    0.0000
     32 H12        3.8470    3.1865   19.9522 H         1 RES1    0.0000
     33 C15        0.5003    0.1237   23.1939 C.3       1 RES1    0.0000
     34 H13        0.3371    0.0317   24.1455 H         1 RES1    0.0000
     35 H14        0.6891   -0.7566   22.8318 H         1 RES1    0.0000
     36 C16       -0.7030    0.6931   22.5304 C.3       1 RES1    0.0000
     37 H15       -1.4613    0.1063   22.6764 H         1 RES1    0.0000
     38 H16       -0.9106    1.5560   22.9190 H         1 RES1    0.0000
     39 C17       -0.4884    0.0809   22.1740 Du        2 SUP2    0.0000
     40 H17       -0.0999   -0.7819   21.9636 Du        2 SUP2    0.0000
     41 H18       -1.4069   -0.0634   22.4489 Du        2 SUP2    0.0000
     42 C18        0.2679    0.6995   23.2925 Du        2 SUP2    0.0000
     43 H19       -0.1730    1.5242   23.5503 Du        2 SUP2    0.0000
     44 H20        0.2432    0.1015   24.0564 Du        2 SUP2    0.0000
@<TRIPOS>BOND
     1    1    4 1
     2    2    3 1
     3    4   12 1
     4    5   16 2
     5    6   27 1
     6    7   28 1
     7    8    9 1
     8   10    8 1
     9   11    8 1
    10   12    8 1
    11   13   12 2
    12   14   13 1
    13   15    1 2
    14   16    2 1
    15   17    2 1
    16   18   17 1
    17   19   17 1
    18   20   17 1
    19   21   20 1
    20   22   20 2
    21   23   22 1
    22   24   22 1
    23   25   24 ar
    24   26   25 1
    25   27   25 ar
    26   28   27 ar
    27   29   28 ar
    28   30   29 1
    29   31   24 ar
    30   32   31 1
    31   33    7 1
    32   34   33 1
    33   35   33 1
    34   36    6 1
    35   37   36 1
    36   38   36 1
    37   13   15 1
    38   15   16 1
    39   29   31 ar
    40   33   36 1
@<TRIPOS>SUBSTRUCTURE
     1 RES1 1
     2 SUP2 39

@<TRIPOS>CRYSIN
   9.8868   15.8610   18.9570  90.0000  90.0000  90.0000  61 1

