# MOL2 file generated by ConQuest
# Please check atom types

@<TRIPOS>MOLECULE
FAYBIR
    33    33     1
SMALL
NO_CHARGES
****
Generated from CSD

@<TRIPOS>ATOM
      1 N1         3.8194   18.8561    2.5984 N.2       1 RES1    0.0000
      2 N2         4.5157   15.8766    4.2043 N.2       1 RES1    0.0000
      3 N3         3.8195   14.7818    4.6649 N.am      1 RES1    0.0000
      4 O1         4.5354   19.9749    2.1636 O.3       1 RES1    0.0000
      5 O2         5.7039   13.6689    5.2427 O.2       1 RES1    0.0000
      6 O3         1.6251    9.1287    6.7411 O.3       1 RES1    0.0000
      7 C1         6.0458   18.0439    3.2777 C.3       1 RES1    0.0000
      8 C2         4.5639   17.9517    3.1167 C.2       1 RES1    0.0000
      9 C3         3.8236   16.7550    3.5709 C.2       1 RES1    0.0000
     10 C4         2.3641   16.6319    3.2453 C.3       1 RES1    0.0000
     11 C5         4.4790   13.7106    5.1647 C.2       1 RES1    0.0000
     12 C6         3.6364   12.5583    5.5726 C.ar      1 RES1    0.0000
     13 C7         2.2937   12.4158    5.2522 C.ar      1 RES1    0.0000
     14 C8         1.5794   11.2854    5.6205 C.ar      1 RES1    0.0000
     15 C9         2.2176   10.2815    6.3278 C.ar      1 RES1    0.0000
     16 C10        3.5566   10.4129    6.6654 C.ar      1 RES1    0.0000
     17 C11        4.2501   11.5345    6.2859 C.ar      1 RES1    0.0000
     18 C12        0.2283    8.9735    6.5238 C.3       1 RES1    0.0000
     19 H1         6.4726   17.8050    2.4523 H         1 RES1    0.0000
     20 H2         6.3303   17.4441    3.9714 H         1 RES1    0.0000
     21 H3         6.2869   18.9420    3.5133 H         1 RES1    0.0000
     22 H4         2.2102   15.8117    2.7703 H         1 RES1    0.0000
     23 H5         2.0939   17.3733    2.7002 H         1 RES1    0.0000
     24 H6         1.8539   16.6302    4.0592 H         1 RES1    0.0000
     25 H7         1.8636   13.0919    4.7806 H         1 RES1    0.0000
     26 H8         0.6816   11.2024    5.3943 H         1 RES1    0.0000
     27 H9         3.9829    9.7423    7.1482 H         1 RES1    0.0000
     28 H10        5.1495   11.6105    6.5099 H         1 RES1    0.0000
     29 H11       -0.2472    9.6668    6.9880 H         1 RES1    0.0000
     30 H12       -0.0535    8.1170    6.8525 H         1 RES1    0.0000
     31 H13        0.0420    9.0322    5.5837 H         1 RES1    0.0000
     32 H14        2.9600   14.7785    4.6351 H         1 RES1    0.0000
     33 H15        3.9214   20.4517    1.8248 H         1 RES1    0.0000
@<TRIPOS>BOND
     1    1    4 1
     2    2    3 1
     3    3   11 1
     4    4   33 1
     5    5   11 2
     6    6   15 1
     7    7    8 1
     8    8    1 2
     9    9    2 2
    10   10    9 1
    11   11   12 1
    12   12   13 ar
    13   13   14 ar
    14   14   15 ar
    15   15   16 ar
    16   16   17 ar
    17   17   12 ar
    18   18    6 1
    19   19    7 1
    20   20    7 1
    21   21    7 1
    22   22   10 1
    23   23   10 1
    24   24   10 1
    25   25   13 1
    26   26   14 1
    27   27   16 1
    28   28   17 1
    29   29   18 1
    30   30   18 1
    31   31   18 1
    32   32    3 1
    33    8    9 1
@<TRIPOS>SUBSTRUCTURE
     1 RES1 1

@<TRIPOS>CRYSIN
   6.8829   23.5890    7.7372  90.0000  95.6600  90.0000 231 1

