# MOL2 file generated by ConQuest
# Please check atom types

@<TRIPOS>MOLECULE
FAYTOQ
    55    60     1
SMALL
USER_CHARGES
****
Generated from CSD

@<TRIPOS>ATOM
      1 O1         0.1281    1.1527    5.4520 O.2       1 RES1    0.0000
      2 N1        -0.2683    0.2746    6.3034 N.pl3     1 RES1    0.0000
      3 O2        -1.7134   -0.7296    9.2514 O.2       1 RES1   -1.0000
      4 N2        -1.1423   -0.6162    8.1130 N.pl3     1 RES1    1.0000
      5 C1        -1.8542    6.0658    6.7546 C.ar      1 RES1    0.0000
      6 C2        -2.1252    8.1954    5.5339 C.ar      1 RES1    0.0000
      7 N3        -1.6444    4.0021    8.0821 N.pl3     1 RES1    0.0000
      8 C3        -2.2693    5.3723    5.5669 C.ar      1 RES1    0.0000
      9 C4        -1.7851    7.4928    6.7281 C.ar      1 RES1    0.0000
     10 C5        -1.4092    8.2165    7.8871 C.ar      1 RES1    0.0000
     11 N4        -2.4353    3.4548    9.0583 N.2       1 RES1    0.0000
     12 C6         0.2031   -1.1509    6.2580 C.3       1 RES1    0.0000
     13 C7        -2.5038    7.4816    4.3661 C.ar      1 RES1    0.0000
     14 C8        -1.5485    5.4232    7.9687 C.ar      1 RES1    0.0000
     15 C9        -0.9586    0.5347    7.4260 C.2       1 RES1    0.0000
     16 C10       -0.7629   -1.8106    7.2905 C.3       1 RES1    0.0000
     17 C11       -2.8148    8.1956    3.1983 C.ar      1 RES1    0.0000
     18 C12        1.6643   -1.1256    6.7145 C.3       1 RES1    0.0000
     19 C13       -1.1839    6.1396    9.1050 C.ar      1 RES1    0.0000
     20 C14       -2.4468   10.2908    4.3338 C.ar      1 RES1    0.0000
     21 C15       -2.0906    9.6211    5.5130 C.ar      1 RES1    0.0000
     22 C16       -2.2974    2.1469    8.9113 C.2       1 RES1    0.0000
     23 C17       -1.6738   10.3175    6.6960 C.ar      1 RES1    0.0000
     24 C18       -1.0201    3.0570    7.3406 C.2       1 RES1    0.0000
     25 C19        0.0779   -1.6953    4.8420 C.3       1 RES1    0.0000
     26 C20       -1.3436    9.6520    7.8182 C.ar      1 RES1    0.0000
     27 C21       -1.1100    7.5213    9.0660 C.ar      1 RES1    0.0000
     28 C22       -2.0668   -2.3388    6.6873 C.3       1 RES1    0.0000
     29 C23       -0.1293   -2.8715    8.1714 C.3       1 RES1    0.0000
     30 C24       -2.5702    6.0523    4.4283 C.ar      1 RES1    0.0000
     31 C25       -1.4068    1.8309    7.8531 C.2       1 RES1    0.0000
     32 C26       -2.7839    9.5838    3.1849 C.ar      1 RES1    0.0000
     33 H1        -2.3364    4.4243    5.5776 H         1 RES1    0.0000
     34 H2        -3.0531    7.7226    2.4106 H         1 RES1    0.0000
     35 H3         2.0132   -2.0078    6.7042 H         1 RES1    0.0000
     36 H4         1.7166   -0.7731    7.5953 H         1 RES1    0.0000
     37 H5         2.1690   -0.5791    6.1249 H         1 RES1    0.0000
     38 H6        -0.9892    5.6766    9.9117 H         1 RES1    0.0000
     39 H7        -2.4552   11.2415    4.3200 H         1 RES1    0.0000
     40 H8        -2.7382    1.4993    9.4492 H         1 RES1    0.0000
     41 H9        -1.6386   11.2679    6.6863 H         1 RES1    0.0000
     42 H10       -0.4322    3.2043    6.6091 H         1 RES1    0.0000
     43 H11        0.3772   -2.5958    4.8230 H         1 RES1    0.0000
     44 H12       -0.8307   -1.6580    4.5668 H         1 RES1    0.0000
     45 H13        0.6095   -1.1729    4.2531 H         1 RES1    0.0000
     46 H14       -1.0551   10.1391    8.5816 H         1 RES1    0.0000
     47 H15       -0.8462    8.0019    9.8420 H         1 RES1    0.0000
     48 H16       -1.8836   -3.1014    6.1531 H         1 RES1    0.0000
     49 H17       -2.6661   -2.5781    7.3843 H         1 RES1    0.0000
     50 H18       -2.4600   -1.6639    6.1484 H         1 RES1    0.0000
     51 H19        0.1085   -3.6247    7.6424 H         1 RES1    0.0000
     52 H20       -0.7494   -3.1367    8.8407 H         1 RES1    0.0000
     53 H21        0.6484   -2.5164    8.5844 H         1 RES1    0.0000
     54 H22       -2.8296    5.5708    3.6512 H         1 RES1    0.0000
     55 H23       -2.9939   10.0509    2.3851 H         1 RES1    0.0000
@<TRIPOS>BOND
     1    1    2 1
     2    2   12 1
     3    3    4 1
     4    4   15 2
     5    5    8 ar
     6    6    9 ar
     7    7   11 1
     8    8   30 ar
     9    9    5 ar
    10   10    9 ar
    11   11   22 2
    12   12   16 1
    13   13    6 ar
    14   14    5 ar
    15   15    2 1
    16   16    4 1
    17   17   13 ar
    18   18   12 1
    19   19   14 ar
    20   20   21 ar
    21   21    6 ar
    22   22   31 1
    23   23   21 ar
    24   24    7 1
    25   25   12 1
    26   26   10 ar
    27   27   10 ar
    28   28   16 1
    29   29   16 1
    30   30   13 ar
    31   31   15 1
    32   32   17 ar
    33   33    8 1
    34   34   17 1
    35   35   18 1
    36   36   18 1
    37   37   18 1
    38   38   19 1
    39   39   20 1
    40   40   22 1
    41   41   23 1
    42   42   24 1
    43   43   25 1
    44   44   25 1
    45   45   25 1
    46   46   26 1
    47   47   27 1
    48   48   28 1
    49   49   28 1
    50   50   28 1
    51   51   29 1
    52   52   29 1
    53   53   29 1
    54   54   30 1
    55   55   32 1
    56    7   14 1
    57   19   27 ar
    58   20   32 ar
    59   23   26 ar
    60   24   31 2
@<TRIPOS>SUBSTRUCTURE
     1 RES1 1

@<TRIPOS>CRYSIN
   7.4598   29.3972   10.0132  90.0000 109.8210  90.0000  14 2

