# MOL2 file generated by ConQuest
# Please check atom types

@<TRIPOS>MOLECULE
FAYTIK
    54    59     1
SMALL
NO_CHARGES
****
Generated from CSD

@<TRIPOS>ATOM
      1 C1         1.2979    8.2388    5.2615 C.ar      1 RES1    0.0000
      2 C2         1.3457    9.6670    5.2276 C.ar      1 RES1    0.0000
      3 C3         1.0198   10.3220    4.0398 C.ar      1 RES1    0.0000
      4 C4         0.6727    9.6176    2.9042 C.ar      1 RES1    0.0000
      5 C5         0.6224    8.2263    2.9266 C.ar      1 RES1    0.0000
      6 C6         0.9250    7.5210    4.0972 C.ar      1 RES1    0.0000
      7 C7         0.8641    6.0913    4.1666 C.ar      1 RES1    0.0000
      8 C8         1.1524    5.4161    5.3130 C.ar      1 RES1    0.0000
      9 C9         1.5499    6.1155    6.5014 C.ar      1 RES1    0.0000
     10 C10        1.6183    7.5419    6.4650 C.ar      1 RES1    0.0000
     11 C11        1.9808    8.2731    7.6255 C.ar      1 RES1    0.0000
     12 C12        2.0424    9.7111    7.5500 C.ar      1 RES1    0.0000
     13 C13        1.7469   10.3673    6.4135 C.ar      1 RES1    0.0000
     14 C14        2.2747    7.5868    8.8021 C.ar      1 RES1    0.0000
     15 C15        2.2020    6.2006    8.8507 C.ar      1 RES1    0.0000
     16 C16        1.8450    5.4807    7.7162 C.ar      1 RES1    0.0000
     17 C17        2.4044    3.1158    7.1372 C.2       1 RES1    0.0000
     18 C18        2.0342    1.8928    7.6593 C.2       1 RES1    0.0000
     19 C19        1.1223    2.2118    8.6973 C.2       1 RES1    0.0000
     20 C20        2.5303    0.5659    7.3594 C.2       1 RES1    0.0000
     21 C21        2.8753   -1.6668    7.3511 C.3       1 RES1    0.0000
     22 C22        3.4187   -2.6113    8.4199 C.3       1 RES1    0.0000
     23 C23        1.7611   -2.3646    6.5804 C.3       1 RES1    0.0000
     24 C24        3.9729   -1.0517    6.4230 C.3       1 RES1    0.0000
     25 C25        5.3476   -0.9406    7.0754 C.3       1 RES1    0.0000
     26 C26        4.0909   -1.6635    5.0364 C.3       1 RES1    0.0000
     27 N1         1.7463    4.0588    7.8434 N.pl3     1 RES1    0.0000
     28 N2         0.9547    3.5155    8.8247 N.2       1 RES1    0.0000
     29 N3         3.4372    0.3363    6.3167 N.3       1 RES1    0.0000
     30 N4         2.2326   -0.5028    8.0200 N.2       1 RES1    0.0000
     31 O1         3.9195    1.2254    5.5413 O.2       1 RES1    0.0000
     32 H1         1.0330   11.2706    4.0146 H         1 RES1    0.0000
     33 H2         0.4704   10.0852    2.1024 H         1 RES1    0.0000
     34 H3         0.3812    7.7471    2.1416 H         1 RES1    0.0000
     35 H4         0.6163    5.6026    3.3899 H         1 RES1    0.0000
     36 H5         1.0871    4.4678    5.3301 H         1 RES1    0.0000
     37 H6         2.2975   10.2043    8.3201 H         1 RES1    0.0000
     38 H7         1.8068   11.3153    6.3930 H         1 RES1    0.0000
     39 H8         2.5242    8.0747    9.5778 H         1 RES1    0.0000
     40 H9         2.3919    5.7425    9.6608 H         1 RES1    0.0000
     41 H10        3.0049    3.2644    6.4153 H         1 RES1    0.0000
     42 H11        0.6815    1.5637    9.2328 H         1 RES1    0.0000
     43 H12        4.1142   -2.1803    8.9028 H         1 RES1    0.0000
     44 H13        2.7184   -2.8474    9.0165 H         1 RES1    0.0000
     45 H14        3.7594   -3.3955    8.0050 H         1 RES1    0.0000
     46 H15        1.4232   -1.7782    5.9147 H         1 RES1    0.0000
     47 H16        1.0623   -2.6002    7.1789 H         1 RES1    0.0000
     48 H17        2.1037   -3.1483    6.1664 H         1 RES1    0.0000
     49 H18        5.9602   -0.5600    6.4573 H         1 RES1    0.0000
     50 H19        5.2874   -0.3872    7.8446 H         1 RES1    0.0000
     51 H20        5.6501   -1.8050    7.3290 H         1 RES1    0.0000
     52 H21        4.7804   -1.2242    4.5526 H         1 RES1    0.0000
     53 H22        4.2984   -2.5883    5.1157 H         1 RES1    0.0000
     54 H23        3.2663   -1.5637    4.5749 H         1 RES1    0.0000
@<TRIPOS>BOND
     1    1    2 ar
     2    2    3 ar
     3    3    4 ar
     4    4    5 ar
     5    5    6 ar
     6    6    1 ar
     7    7    6 ar
     8    8    7 ar
     9    9    8 ar
    10   10    1 ar
    11   11   10 ar
    12   12   11 ar
    13   13    2 ar
    14   14   11 ar
    15   15   14 ar
    16   16    9 ar
    17   17   18 2
    18   18   19 1
    19   19   28 2
    20   20   18 1
    21   21   22 1
    22   22   43 1
    23   23   21 1
    24   24   21 1
    25   25   24 1
    26   26   24 1
    27   27   16 1
    28   28   27 1
    29   29   20 1
    30   30   20 2
    31   31   29 1
    32   32    3 1
    33   33    4 1
    34   34    5 1
    35   35    7 1
    36   36    8 1
    37   37   12 1
    38   38   13 1
    39   39   14 1
    40   40   15 1
    41   41   17 1
    42   42   19 1
    43   44   22 1
    44   45   22 1
    45   46   23 1
    46   47   23 1
    47   48   23 1
    48   49   25 1
    49   50   25 1
    50   51   25 1
    51   52   26 1
    52   53   26 1
    53   54   26 1
    54    9   10 ar
    55   12   13 ar
    56   15   16 ar
    57   17   27 1
    58   21   30 1
    59   24   29 1
@<TRIPOS>SUBSTRUCTURE
     1 RES1 1

@<TRIPOS>CRYSIN
   7.3261   29.7850    9.8773  90.0000 109.2812  90.0000  14 2

