# MOL2 file generated by ConQuest
# Please check atom types

@<TRIPOS>MOLECULE
FEBFIB
   110   115     1
SMALL
NO_CHARGES
****
Generated from CSD

@<TRIPOS>ATOM
      1 O1         0.3774    9.1304    0.5715 O.3       1 RES1    0.0000
      2 C1         1.0760   10.2407    1.1586 C.3       1 RES1    0.0000
      3 C2         1.8897    9.6592    2.3328 C.2       1 RES1    0.0000
      4 O2         2.3504   10.3501    3.1970 O.2       1 RES1    0.0000
      5 O3         2.0520    8.3276    2.1903 O.3       1 RES1    0.0000
      6 N1         2.9149    7.7386    3.2364 N.3       1 RES1    0.0000
      7 C3         4.1533    7.2833    2.5436 C.3       1 RES1    0.0000
      8 C4         4.9988    6.6113    3.6234 C.3       1 RES1    0.0000
      9 H1         5.8119    6.2315    3.2051 H         1 RES1    0.0000
     10 H2         5.2883    7.2955    4.2776 H         1 RES1    0.0000
     11 C5         4.2560    5.5020    4.3597 C.3       1 RES1    0.0000
     12 H3         4.0243    4.7754    3.7282 H         1 RES1    0.0000
     13 H4         4.8330    5.1250    5.0702 H         1 RES1    0.0000
     14 C6         2.9978    6.0750    4.9687 C.3       1 RES1    0.0000
     15 H5         3.2524    6.7413    5.6561 H         1 RES1    0.0000
     16 H6         2.5065    5.3475    5.4250 H         1 RES1    0.0000
     17 C7         2.0536    6.7479    3.9571 C.3       1 RES1    0.0000
     18 C8         1.3362    5.7037    3.0896 C.3       1 RES1    0.0000
     19 H7         0.9404    6.1438    2.3091 H         1 RES1    0.0000
     20 H8         0.6293    5.2721    3.6147 H         1 RES1    0.0000
     21 H9         1.9810    5.0280    2.7916 H         1 RES1    0.0000
     22 C9         1.0197    7.5660    4.7149 C.3       1 RES1    0.0000
     23 H10        0.3380    7.8911    4.0911 H         1 RES1    0.0000
     24 H11        1.4595    8.3294    5.1453 H         1 RES1    0.0000
     25 H12        0.5959    7.0052    5.3987 H         1 RES1    0.0000
     26 C10        3.9526    6.3644    1.3321 C.3       1 RES1    0.0000
     27 H13        3.6446    5.4851    1.6360 H         1 RES1    0.0000
     28 H14        4.8018    6.2645    0.8535 H         1 RES1    0.0000
     29 H15        3.2847    6.7555    0.7319 H         1 RES1    0.0000
     30 C11        4.8769    8.5443    2.0703 C.3       1 RES1    0.0000
     31 H16        4.9379    9.1832    2.8098 H         1 RES1    0.0000
     32 H17        4.3784    8.9486    1.3299 H         1 RES1    0.0000
     33 H18        5.7784    8.3096    1.7678 H         1 RES1    0.0000
     34 C12        0.0741   11.2689    1.6676 C.ar      1 RES1    0.0000
     35 C13       -0.5470   11.1096    2.9025 C.ar      1 RES1    0.0000
     36 H19       -0.2902   10.3886    3.4646 H         1 RES1    0.0000
     37 C14       -1.5328   11.9833    3.3248 C.ar      1 RES1    0.0000
     38 H20       -1.9503   11.8551    4.1681 H         1 RES1    0.0000
     39 C15       -1.9111   13.0416    2.5240 C.ar      1 RES1    0.0000
     40 H21       -2.5728   13.6542    2.8220 H         1 RES1    0.0000
     41 C16       -1.3209   13.2056    1.2851 C.ar      1 RES1    0.0000
     42 H22       -1.5906   13.9209    0.7217 H         1 RES1    0.0000
     43 C17       -0.3387   12.3254    0.8681 C.ar      1 RES1    0.0000
     44 H23        0.0634   12.4469    0.0162 H         1 RES1    0.0000
     45 C18        2.1432   10.7807    0.1954 C.ar      1 RES1    0.0000
     46 C19        2.7733   11.9964    0.4456 C.ar      1 RES1    0.0000
     47 H24        2.5133   12.5157    1.1981 H         1 RES1    0.0000
     48 C20        3.7688   12.4535   -0.3854 C.ar      1 RES1    0.0000
     49 H25        4.1886   13.2867   -0.2048 H         1 RES1    0.0000
     50 C21        4.1643   11.7128   -1.4785 C.ar      1 RES1    0.0000
     51 H26        4.8437   12.0379   -2.0597 H         1 RES1    0.0000
     52 C22        3.5609   10.4914   -1.7202 C.ar      1 RES1    0.0000
     53 H27        3.8332    9.9702   -2.4672 H         1 RES1    0.0000
     54 C23        2.5658   10.0220   -0.8825 C.ar      1 RES1    0.0000
     55 H28        2.1701    9.1748   -1.0481 H         1 RES1    0.0000
     56 O1D       -0.3774    9.7186   -0.5715 O.3       1 RES1    0.0000
     57 C1D       -1.0760    8.6083   -1.1586 C.3       1 RES1    0.0000
     58 C2D       -1.8897    9.1898   -2.3328 C.2       1 RES1    0.0000
     59 O2D       -2.3504    8.4989   -3.1970 O.2       1 RES1    0.0000
     60 O3D       -2.0520   10.5214   -2.1903 O.3       1 RES1    0.0000
     61 N1D       -2.9149   11.1104   -3.2364 N.3       1 RES1    0.0000
     62 C3D       -4.1533   11.5657   -2.5436 C.3       1 RES1    0.0000
     63 C4D       -4.9988   12.2377   -3.6234 C.3       1 RES1    0.0000
     64 H1D       -5.8119   12.6175   -3.2051 H         1 RES1    0.0000
     65 H2D       -5.2883   11.5535   -4.2776 H         1 RES1    0.0000
     66 C5D       -4.2560   13.3470   -4.3597 C.3       1 RES1    0.0000
     67 H3D       -4.0243   14.0736   -3.7282 H         1 RES1    0.0000
     68 H4D       -4.8330   13.7240   -5.0702 H         1 RES1    0.0000
     69 C6D       -2.9978   12.7740   -4.9687 C.3       1 RES1    0.0000
     70 H5D       -3.2524   12.1077   -5.6561 H         1 RES1    0.0000
     71 H6D       -2.5065   13.5015   -5.4250 H         1 RES1    0.0000
     72 C7D       -2.0536   12.1011   -3.9571 C.3       1 RES1    0.0000
     73 C8D       -1.3362   13.1453   -3.0896 C.3       1 RES1    0.0000
     74 H7D       -0.9404   12.7052   -2.3091 H         1 RES1    0.0000
     75 H8D       -0.6293   13.5769   -3.6147 H         1 RES1    0.0000
     76 H9D       -1.9810   13.8210   -2.7916 H         1 RES1    0.0000
     77 C9D       -1.0197   11.2830   -4.7149 C.3       1 RES1    0.0000
     78 H10D      -0.3380   10.9579   -4.0911 H         1 RES1    0.0000
     79 H11D      -1.4595   10.5196   -5.1453 H         1 RES1    0.0000
     80 H12D      -0.5959   11.8438   -5.3987 H         1 RES1    0.0000
     81 C10D      -3.9526   12.4846   -1.3321 C.3       1 RES1    0.0000
     82 H13D      -3.6446   13.3639   -1.6360 H         1 RES1    0.0000
     83 H14D      -4.8018   12.5845   -0.8535 H         1 RES1    0.0000
     84 H15D      -3.2847   12.0935   -0.7319 H         1 RES1    0.0000
     85 C11D      -4.8769   10.3047   -2.0703 C.3       1 RES1    0.0000
     86 H16D      -4.9379    9.6658   -2.8098 H         1 RES1    0.0000
     87 H17D      -4.3784    9.9004   -1.3299 H         1 RES1    0.0000
     88 H18D      -5.7784   10.5394   -1.7678 H         1 RES1    0.0000
     89 C12D      -0.0741    7.5801   -1.6676 C.ar      1 RES1    0.0000
     90 C13D       0.5470    7.7394   -2.9025 C.ar      1 RES1    0.0000
     91 H19D       0.2902    8.4604   -3.4646 H         1 RES1    0.0000
     92 C14D       1.5328    6.8657   -3.3248 C.ar      1 RES1    0.0000
     93 H20D       1.9503    6.9939   -4.1681 H         1 RES1    0.0000
     94 C15D       1.9111    5.8074   -2.5240 C.ar      1 RES1    0.0000
     95 H21D       2.5728    5.1948   -2.8220 H         1 RES1    0.0000
     96 C16D       1.3209    5.6434   -1.2851 C.ar      1 RES1    0.0000
     97 H22D       1.5906    4.9281   -0.7217 H         1 RES1    0.0000
     98 C17D       0.3387    6.5236   -0.8681 C.ar      1 RES1    0.0000
     99 H23D      -0.0634    6.4021   -0.0162 H         1 RES1    0.0000
    100 C18D      -2.1432    8.0683   -0.1954 C.ar      1 RES1    0.0000
    101 C19D      -2.7733    6.8526   -0.4456 C.ar      1 RES1    0.0000
    102 H24D      -2.5133    6.3333   -1.1981 H         1 RES1    0.0000
    103 C20D      -3.7688    6.3955    0.3854 C.ar      1 RES1    0.0000
    104 H25D      -4.1886    5.5623    0.2048 H         1 RES1    0.0000
    105 C21D      -4.1643    7.1362    1.4785 C.ar      1 RES1    0.0000
    106 H26D      -4.8437    6.8111    2.0597 H         1 RES1    0.0000
    107 C22D      -3.5609    8.3576    1.7202 C.ar      1 RES1    0.0000
    108 H27D      -3.8332    8.8788    2.4672 H         1 RES1    0.0000
    109 C23D      -2.5658    8.8270    0.8825 C.ar      1 RES1    0.0000
    110 H28D      -2.1701    9.6742    1.0481 H         1 RES1    0.0000
@<TRIPOS>BOND
     1    1    2 1
     2    2    3 1
     3    3    4 2
     4    5    3 1
     5    6    5 1
     6    7    6 1
     7    8    7 1
     8    9    8 1
     9   10    8 1
    10   11    8 1
    11   12   11 1
    12   13   11 1
    13   14   11 1
    14   15   14 1
    15   16   14 1
    16   17    6 1
    17   18   17 1
    18   19   18 1
    19   20   18 1
    20   21   18 1
    21   22   17 1
    22   23   22 1
    23   24   22 1
    24   25   22 1
    25   26    7 1
    26   27   26 1
    27   28   26 1
    28   29   26 1
    29   30    7 1
    30   31   30 1
    31   32   30 1
    32   33   30 1
    33   34    2 1
    34   35   34 ar
    35   36   35 1
    36   37   35 ar
    37   38   37 1
    38   39   37 ar
    39   40   39 1
    40   41   39 ar
    41   42   41 1
    42   43   34 ar
    43   44   43 1
    44   45    2 1
    45   46   45 ar
    46   47   46 1
    47   48   46 ar
    48   49   48 1
    49   50   48 ar
    50   51   50 1
    51   52   50 ar
    52   53   52 1
    53   54   45 ar
    54   55   54 1
    55   56    1 1
    56   57   56 1
    57   58   57 1
    58   59   58 2
    59   60   58 1
    60   61   60 1
    61   62   61 1
    62   63   62 1
    63   64   63 1
    64   65   63 1
    65   66   63 1
    66   67   66 1
    67   68   66 1
    68   69   66 1
    69   70   69 1
    70   71   69 1
    71   72   61 1
    72   73   72 1
    73   74   73 1
    74   75   73 1
    75   76   73 1
    76   77   72 1
    77   78   77 1
    78   79   77 1
    79   80   77 1
    80   81   62 1
    81   82   81 1
    82   83   81 1
    83   84   81 1
    84   85   62 1
    85   86   85 1
    86   87   85 1
    87   88   85 1
    88   89   57 1
    89   90   89 ar
    90   91   90 1
    91   92   90 ar
    92   93   92 1
    93   94   92 ar
    94   95   94 1
    95   96   94 ar
    96   97   96 1
    97   98   89 ar
    98   99   98 1
    99  100   57 1
   100  101  100 ar
   101  102  101 1
   102  103  101 ar
   103  104  103 1
   104  105  103 ar
   105  106  105 1
   106  107  105 ar
   107  108  107 1
   108  109  100 ar
   109  110  109 1
   110   14   17 1
   111   41   43 ar
   112   52   54 ar
   113   69   72 1
   114   96   98 ar
   115  107  109 ar
@<TRIPOS>SUBSTRUCTURE
     1 RES1 1

@<TRIPOS>CRYSIN
  21.3252    9.4245   20.5573  90.0000  99.5420  90.0000  15 1

