# MOL2 file generated by ConQuest
# Please check atom types

@<TRIPOS>MOLECULE
FEBJUS
    69    70     1
SMALL
NO_CHARGES
****
Generated from CSD

@<TRIPOS>ATOM
      1 C1         1.5205    6.5455    2.6638 C.3       1 RES1    0.0000
      2 H1         0.6920    6.8761    3.0712 H         1 RES1    0.0000
      3 C2         0.3212    2.4249    4.8198 C.3       1 RES1    0.0000
      4 H2        -0.4567    2.4520    4.2251 H         1 RES1    0.0000
      5 C3         2.5645    7.6255    2.6795 C.3       1 RES1    0.0000
      6 H3         3.4346    7.2474    2.4314 H         1 RES1    0.0000
      7 C4         1.4157    3.2739    4.1905 C.3       1 RES1    0.0000
      8 H4         2.2012    3.2580    4.7769 H         1 RES1    0.0000
      9 C5         2.2320    8.7666    1.7707 C.3       1 RES1    0.0000
     10 H5         1.5092    9.2919    2.1717 H         1 RES1    0.0000
     11 C6         0.9587    4.7071    4.0303 C.3       1 RES1    0.0000
     12 H6         0.1591    4.7184    3.4638 H         1 RES1    0.0000
     13 C7         0.6102    5.2889    5.3643 C.3       1 RES1    0.0000
     14 H7         0.3183    6.2059    5.2544 H         1 RES1    0.0000
     15 H8         1.3945    5.2867    5.9361 H         1 RES1    0.0000
     16 C8         1.7766    8.2594    0.4063 C.3       1 RES1    0.0000
     17 H9         2.5378    7.8859   -0.0859 H         1 RES1    0.0000
     18 C9        -0.4857    4.4829    6.0094 C.3       1 RES1    0.0000
     19 H10       -1.2804    4.5305    5.4376 H         1 RES1    0.0000
     20 C10        0.7041    7.2157    0.5696 C.3       1 RES1    0.0000
     21 H11       -0.0525    7.5983    1.0618 H         1 RES1    0.0000
     22 C11       -0.0959    3.0407    6.1643 C.3       1 RES1    0.0000
     23 H12       -0.8445    2.5426    6.5266 H         1 RES1    0.0000
     24 H13        0.6414    2.9728    6.7915 H         1 RES1    0.0000
     25 C12        0.2181    6.6519   -0.7445 C.3       1 RES1    0.0000
     26 H14       -0.0995    7.3606   -1.3235 H         1 RES1    0.0000
     27 H15        0.9331    6.1765   -1.1968 H         1 RES1    0.0000
     28 C13        0.6888    1.0075    5.0136 C.2       1 RES1    0.0000
     29 C14        3.7506    8.1281    4.7078 C.2       1 RES1    0.0000
     30 C15        2.4391   -0.5434    5.3790 C.3       1 RES1    0.0000
     31 H16        3.3960   -0.5547    5.4533 H         1 RES1    0.0000
     32 H17        2.1676   -1.1049    4.6492 H         1 RES1    0.0000
     33 H18        2.0514   -0.8694    6.1947 H         1 RES1    0.0000
     34 C16        3.5844    8.2843    6.1790 C.3       1 RES1    0.0000
     35 H19        2.6493    8.3251    6.3905 H         1 RES1    0.0000
     36 H20        4.0135    9.0926    6.4659 H         1 RES1    0.0000
     37 H21        3.9818    7.5349    6.6271 H         1 RES1    0.0000
     38 C17        3.2244   10.9447    1.7413 C.2       1 RES1    0.0000
     39 C18        4.5255   11.6533    1.4607 C.3       1 RES1    0.0000
     40 H22        5.2042   11.0081    1.2534 H         1 RES1    0.0000
     41 H23        4.7892   12.1560    2.2356 H         1 RES1    0.0000
     42 H24        4.4116   12.2488    0.7162 H         1 RES1    0.0000
     43 C19        1.9300    9.9507   -1.3288 C.2       1 RES1    0.0000
     44 C20        1.2618   11.1530   -1.7958 C.3       1 RES1    0.0000
     45 H25        0.4281   11.2571   -1.3277 H         1 RES1    0.0000
     46 H26        1.0892   11.0782   -2.7382 H         1 RES1    0.0000
     47 H27        1.8175   11.9160   -1.6314 H         1 RES1    0.0000
     48 C21       -0.8775    4.5395   -0.9864 C.2       1 RES1    0.0000
     49 C22       -1.9636    3.6905   -0.4167 C.3       1 RES1    0.0000
     50 H28       -2.4051    4.1659    0.2900 H         1 RES1    0.0000
     51 H29       -1.5853    2.8777   -0.0691 H         1 RES1    0.0000
     52 H30       -2.5979    3.4777   -1.1057 H         1 RES1    0.0000
     53 N1         1.8081    2.7531    2.8502 N.pl3     1 RES1    0.0000
     54 O1         2.6083    8.0919    4.0314 O.3       1 RES1    0.0000
     55 O2         0.9679    2.4860    2.0534 O.2       1 RES1    0.0000
     56 O3         3.0238    2.6422    2.6827 O.2       1 RES1    0.0000
     57 O4         3.3958    9.6043    1.6220 O.3       1 RES1    0.0000
     58 O5         1.9948    5.4474    3.3780 O.3       1 RES1    0.0000
     59 O6         1.2214    9.3756   -0.3120 O.3       1 RES1    0.0000
     60 O7         1.2766    6.1538    1.3256 O.3       1 RES1    0.0000
     61 O8        -0.7869    5.1214    7.2554 O.3       1 RES1    0.0000
     62 H31       -0.6904    4.5848    7.8680 H         1 RES1    0.0000
     63 O9        -0.8720    5.7372   -0.4063 O.3       1 RES1    0.0000
     64 O10        4.8247    8.0421    4.1717 O.2       1 RES1    0.0000
     65 O11       -0.1035    0.1223    5.1088 O.2       1 RES1    0.0000
     66 O12        1.9838    0.8241    5.1371 O.3       1 RES1    0.0000
     67 O13        2.2030   11.4722    2.0146 O.2       1 RES1    0.0000
     68 O14        2.9958    9.5137   -1.6712 O.2       1 RES1    0.0000
     69 O15       -0.1544    4.2520   -1.8733 O.2       1 RES1    0.0000
@<TRIPOS>BOND
     1    1    2 1
     2    3    4 1
     3    5    1 1
     4    6    5 1
     5    7    3 1
     6    8    7 1
     7    9    5 1
     8   10    9 1
     9   11    7 1
    10   12   11 1
    11   13   11 1
    12   14   13 1
    13   15   13 1
    14   16    9 1
    15   17   16 1
    16   18   13 1
    17   19   18 1
    18   20   16 1
    19   21   20 1
    20   22    3 1
    21   23   22 1
    22   24   22 1
    23   25   20 1
    24   26   25 1
    25   27   25 1
    26   28    3 1
    27   29   34 1
    28   30   31 1
    29   32   30 1
    30   33   30 1
    31   34   35 1
    32   36   34 1
    33   37   34 1
    34   38   39 1
    35   39   40 1
    36   41   39 1
    37   42   39 1
    38   43   44 1
    39   44   45 1
    40   46   44 1
    41   47   44 1
    42   48   49 1
    43   49   50 1
    44   51   49 1
    45   52   49 1
    46   53    7 1
    47   54    5 1
    48   55   53 2
    49   56   53 2
    50   57    9 1
    51   58    1 1
    52   59   16 1
    53   60    1 1
    54   61   18 1
    55   62   61 1
    56   63   25 1
    57   64   29 2
    58   65   28 2
    59   66   28 1
    60   67   38 2
    61   68   43 2
    62   69   48 2
    63   11   58 1
    64   18   22 1
    65   20   60 1
    66   29   54 1
    67   30   66 1
    68   38   57 1
    69   43   59 1
    70   48   63 1
@<TRIPOS>SUBSTRUCTURE
     1 RES1 1

@<TRIPOS>CRYSIN
   5.7730   22.6410   10.8600  90.0000 105.3800  90.0000   4 1

