# MOL2 file generated by ConQuest
# Please check atom types

@<TRIPOS>MOLECULE
FEBJOM01
    35    36     1
SMALL
NO_CHARGES
****
Generated from CSD

@<TRIPOS>ATOM
      1 O1         3.1086    3.2401   20.3526 O.2       1 RES1    0.0000
      2 O2         1.0732    6.1643   17.9590 O.2       1 RES1    0.0000
      3 O3         2.5731    7.5935   17.4457 O.2       1 RES1    0.0000
      4 N1         2.2301    6.5277   17.8896 N.pl3     1 RES1    0.0000
      5 C1         3.1694    4.2362   17.7133 C.3       1 RES1    0.0000
      6 C2         4.2644    3.2966   18.2536 C.3       1 RES1    0.0000
      7 C3         4.3553    1.9763   17.4788 C.3       1 RES1    0.0000
      8 C4         5.4519    1.0721   18.0133 C.3       1 RES1    0.0000
      9 C5         5.2997    0.7912   19.4811 C.3       1 RES1    0.0000
     10 C6         5.1953    2.0851   20.2799 C.3       1 RES1    0.0000
     11 C7         4.0915    2.9380   19.7120 C.2       1 RES1    0.0000
     12 C8         3.2062    4.3416   16.2071 C.ar      1 RES1    0.0000
     13 C9         2.2234    3.7557   15.4381 C.ar      1 RES1    0.0000
     14 C10        2.2714    3.7908   14.0594 C.ar      1 RES1    0.0000
     15 C11        3.3038    4.4279   13.4291 C.ar      1 RES1    0.0000
     16 C12        4.2800    5.0350   14.1652 C.ar      1 RES1    0.0000
     17 C13        4.2276    4.9903   15.5417 C.ar      1 RES1    0.0000
     18 C14        3.2899    5.6022   18.3926 C.3       1 RES1    0.0000
     19 H1         2.3071    3.8474   17.9701 H         1 RES1    0.0000
     20 H2         3.5035    1.5208   17.5663 H         1 RES1    0.0000
     21 H3         4.5288    2.1630   16.5441 H         1 RES1    0.0000
     22 H4         5.4151    0.2295   17.5328 H         1 RES1    0.0000
     23 H5         6.3109    1.4951   17.8587 H         1 RES1    0.0000
     24 H6         4.5020    0.2586   19.6245 H         1 RES1    0.0000
     25 H7         6.0772    0.2980   19.7861 H         1 RES1    0.0000
     26 H8         4.9990    1.8736   21.2065 H         1 RES1    0.0000
     27 H9         6.0337    2.5706   20.2289 H         1 RES1    0.0000
     28 H10        1.4715    3.3087   15.8812 H         1 RES1    0.0000
     29 H11        1.5724    3.3533   13.5305 H         1 RES1    0.0000
     30 H12        3.3407    4.4510   12.4498 H         1 RES1    0.0000
     31 H13        5.0096    5.5060   13.7115 H         1 RES1    0.0000
     32 H14        4.9382    5.4195   16.0622 H         1 RES1    0.0000
     33 H15        4.1623    5.9787   18.1957 H         1 RES1    0.0000
     34 H16        3.1923    5.4957   19.3516 H         1 RES1    0.0000
     35 H17        5.1228    3.7592   18.1595 H         1 RES1    0.0000
@<TRIPOS>BOND
     1    1   11 2
     2    2    4 2
     3    3    4 2
     4    4   18 1
     5    5    6 1
     6    6    7 1
     7    7    8 1
     8    8    9 1
     9    9   10 1
    10   10   11 1
    11   11    6 1
    12   12    5 1
    13   13   12 ar
    14   14   13 ar
    15   15   14 ar
    16   16   15 ar
    17   17   12 ar
    18   18    5 1
    19   19    5 1
    20   20    7 1
    21   21    7 1
    22   22    8 1
    23   23    8 1
    24   24    9 1
    25   25    9 1
    26   26   10 1
    27   27   10 1
    28   28   13 1
    29   29   14 1
    30   30   15 1
    31   31   16 1
    32   32   17 1
    33   33   18 1
    34   34   18 1
    35   35    6 1
    36   16   17 ar
@<TRIPOS>SUBSTRUCTURE
     1 RES1 1

@<TRIPOS>CRYSIN
   5.5780    8.5630   27.8520  90.0000  90.0000  90.0000  19 1

