# MOL2 file generated by ConQuest
# Please check atom types

@<TRIPOS>MOLECULE
FECROV
    31    33     1
SMALL
NO_CHARGES
****
Generated from CSD

@<TRIPOS>ATOM
      1 O1         4.4852    6.2059    2.9207 O.3       1 RES1    0.0000
      2 N1         3.4302    5.1391    3.0851 N.3       1 RES1    0.0000
      3 N2         1.4120    8.0597    3.3660 N.ar      1 RES1    0.0000
      4 C1         3.2192    6.5103    3.4606 C.3       1 RES1    0.0000
      5 H1         3.1762    6.6930    4.3985 H         1 RES1    0.0000
      6 C2         2.3148    7.3742    2.6583 C.ar      1 RES1    0.0000
      7 C3         2.4160    7.4763    1.2804 C.ar      1 RES1    0.0000
      8 H2         3.0732    6.9722    0.8791 H         1 RES1    0.0000
      9 C4         1.5788    8.3323    0.6077 C.ar      1 RES1    0.0000
     10 H3         1.6335    8.3762   -0.3659 H         1 RES1    0.0000
     11 C5         0.6566    9.0526    1.3232 C.ar      1 RES1    0.0000
     12 H4         0.1090    9.6525    0.8842 H         1 RES1    0.0000
     13 C6         0.6024    8.8763    2.6810 C.ar      1 RES1    0.0000
     14 H5        -0.0197    9.3494    3.2105 H         1 RES1    0.0000
     15 C7         3.8400    4.2679    4.2310 C.3       1 RES1    0.0000
     16 H6         4.1859    4.8023    4.9189 H         1 RES1    0.0000
     17 C8         2.5901    3.5507    4.7156 C.3       1 RES1    0.0000
     18 H7         1.8576    4.1642    4.9595 H         1 RES1    0.0000
     19 H8         2.2285    3.0394    3.9534 H         1 RES1    0.0000
     20 H9         2.7644    2.9516    5.4982 H         1 RES1    0.0000
     21 C9         4.9545    3.3481    3.7812 C.ar      1 RES1    0.0000
     22 C10        4.7615    2.3916    2.7989 C.ar      1 RES1    0.0000
     23 H10        3.8786    2.3214    2.4391 H         1 RES1    0.0000
     24 C11        5.8034    1.5835    2.3873 C.ar      1 RES1    0.0000
     25 H11        5.6726    0.9493    1.7379 H         1 RES1    0.0000
     26 C12        7.0577    1.7223    2.9503 C.ar      1 RES1    0.0000
     27 H12        7.7481    1.1886    2.6627 H         1 RES1    0.0000
     28 C13        7.2499    2.6445    3.9432 C.ar      1 RES1    0.0000
     29 H13        8.1115    2.7601    4.2888 H         1 RES1    0.0000
     30 C14        6.2102    3.4542    4.3477 C.ar      1 RES1    0.0000
     31 H14        6.3508    4.0924    5.0307 H         1 RES1    0.0000
@<TRIPOS>BOND
     1    1    2 1
     2    2    4 1
     3    3    6 ar
     4    4    1 1
     5    5    4 1
     6    6    4 1
     7    7    6 ar
     8    8    7 1
     9    9    7 ar
    10   10    9 1
    11   11    9 ar
    12   12   11 1
    13   13    3 ar
    14   14   13 1
    15   15    2 1
    16   16   15 1
    17   17   15 1
    18   18   17 1
    19   19   17 1
    20   20   17 1
    21   21   15 1
    22   22   21 ar
    23   23   22 1
    24   24   22 ar
    25   25   24 1
    26   26   24 ar
    27   27   26 1
    28   28   26 ar
    29   29   28 1
    30   30   21 ar
    31   31   30 1
    32   11   13 ar
    33   28   30 ar
@<TRIPOS>SUBSTRUCTURE
     1 RES1 1

@<TRIPOS>CRYSIN
  15.1390    7.9773   10.1630  90.0000  90.0000  90.0000  19 1

