# MOL2 file generated by ConQuest
# Please check atom types

@<TRIPOS>MOLECULE
FECVEP
    24    24     1
SMALL
NO_CHARGES
****
Generated from CSD

@<TRIPOS>ATOM
      1 O1         3.2413    2.2383    6.1499 O.2       1 RES1    0.0000
      2 O2         5.5843    5.3373    8.3833 O.3       1 RES1    0.0000
      3 N1         4.7510    4.2128    8.5928 N.3       1 RES1    0.0000
      4 C1         5.8981    5.4384    6.9587 C.3       1 RES1    0.0000
      5 H1         5.8611    6.3821    6.7518 H         1 RES1    0.0000
      6 H2         6.8038    5.0964    6.8089 H         1 RES1    0.0000
      7 O3         5.5531    3.0269    8.3788 O.3       1 RES1    0.0000
      8 N2         2.5108    5.7491    8.7527 N.am      1 RES1    0.0000
      9 H3         1.8765    6.3391    8.8171 H         1 RES1    0.0000
     10 H4         3.0417    5.5742    9.4438 H         1 RES1    0.0000
     11 C2         4.8250    4.6204    6.2365 C.3       1 RES1    0.0000
     12 H5         4.3517    5.1324    5.5536 H         1 RES1    0.0000
     13 H6         5.1859    3.8188    5.8226 H         1 RES1    0.0000
     14 O4         2.1192    5.5681    6.5294 O.2       1 RES1    0.0000
     15 N3         2.5256    2.4416    8.2892 N.am      1 RES1    0.0000
     16 H7         2.5384    2.8935    9.0250 H         1 RES1    0.0000
     17 H8         2.1978    1.6205    8.2890 H         1 RES1    0.0000
     18 C3         3.8858    4.2263    7.3804 C.3       1 RES1    0.0000
     19 C4         3.1955    2.8587    7.2162 C.2       1 RES1    0.0000
     20 C5         2.7639    5.2675    7.5375 C.2       1 RES1    0.0000
     21 C6         6.4737    2.8877    9.4634 C.3       1 RES1    0.0000
     22 H9         6.7737    1.9728    9.4143 H         1 RES1    0.0000
     23 H10        7.1988    3.4654    9.3512 H         1 RES1    0.0000
     24 H11        6.0267    3.0551   10.2774 H         1 RES1    0.0000
@<TRIPOS>BOND
     1    1   19 2
     2    2    3 1
     3    3    7 1
     4    4    2 1
     5    5    4 1
     6    6    4 1
     7    7   21 1
     8    8    9 1
     9   10    8 1
    10   11    4 1
    11   12   11 1
    12   13   11 1
    13   14   20 2
    14   15   16 1
    15   17   15 1
    16   18    3 1
    17   19   15 1
    18   20    8 1
    19   21   22 1
    20   23   21 1
    21   24   21 1
    22   11   18 1
    23   18   19 1
    24   18   20 1
@<TRIPOS>SUBSTRUCTURE
     1 RES1 1

@<TRIPOS>CRYSIN
   7.1910   11.6250   10.1350  90.0000 103.5300  90.0000  14 1

