# MOL2 file generated by ConQuest
# Please check atom types

@<TRIPOS>MOLECULE
FECXAN
    47    49     1
SMALL
NO_CHARGES
****
Generated from CSD

@<TRIPOS>ATOM
      1 N1         3.9969    7.5042    0.7505 N.pl3     1 RES1    0.0000
      2 C1         3.2729    5.4237   -4.0786 C.1       1 RES1    0.0000
      3 O1         5.9889    4.9453    1.8713 O.2       1 RES1    0.0000
      4 C2         4.1516    3.9288   -0.2127 C.ar      1 RES1    0.0000
      5 H1         4.3625    3.5909    0.6495 H         1 RES1    0.0000
      6 C3         3.5539    4.9024   -2.7632 C.ar      1 RES1    0.0000
      7 C4         4.1500    5.3082   -0.4456 C.ar      1 RES1    0.0000
      8 C5         2.7117    6.3992   -6.4659 C.ar      1 RES1    0.0000
      9 O2         3.1471    8.0712   -0.0246 O.2       1 RES1    0.0000
     10 N2         5.2971    6.0090    1.6760 N.3       1 RES1    0.0000
     11 C6         3.0278    5.8778   -5.1605 C.1       1 RES1    0.0000
     12 C7         2.1119    7.3983   -8.9976 C.ar      1 RES1    0.0000
     13 C8         4.4688    6.2458    0.6340 C.2       1 RES1    0.0000
     14 C9         3.8412    5.7894   -1.7192 C.ar      1 RES1    0.0000
     15 H2         3.8267    6.7253   -1.8783 H         1 RES1    0.0000
     16 C10        1.7940    7.9151  -10.3127 C.1       1 RES1    0.0000
     17 C11        2.4509    8.2659   -7.9634 C.ar      1 RES1    0.0000
     18 H3         2.4749    9.2019   -8.1208 H         1 RES1    0.0000
     19 N3         1.5276    8.3341  -11.3501 N.1       1 RES1    0.0000
     20 C12        3.8438    3.0575   -1.2468 C.ar      1 RES1    0.0000
     21 H4         3.8360    2.1225   -1.0826 H         1 RES1    0.0000
     22 C13        3.5476    3.5273   -2.5148 C.ar      1 RES1    0.0000
     23 H5         3.3406    2.9172   -3.2136 H         1 RES1    0.0000
     24 C14        2.3585    5.5346   -7.5087 C.ar      1 RES1    0.0000
     25 H6         2.3242    4.5991   -7.3511 H         1 RES1    0.0000
     26 C15        2.7516    7.7716   -6.7103 C.ar      1 RES1    0.0000
     27 H7         2.9866    8.3690   -6.0101 H         1 RES1    0.0000
     28 C16        4.7313    8.2737    1.8229 C.3       1 RES1    0.0000
     29 C17        5.2067    7.0975    2.7119 C.3       1 RES1    0.0000
     30 C18        2.0602    6.0254   -8.7610 C.ar      1 RES1    0.0000
     31 H8         1.8205    5.4296   -9.4607 H         1 RES1    0.0000
     32 C19        4.1677    6.6194    3.7167 C.3       1 RES1    0.0000
     33 H9         4.0618    7.2917    4.4220 H         1 RES1    0.0000
     34 H10        4.4616    5.7727    4.1126 H         1 RES1    0.0000
     35 H11        3.3099    6.4859    3.2613 H         1 RES1    0.0000
     36 C20        5.8672    8.9991    1.1069 C.3       1 RES1    0.0000
     37 H12        6.3843    9.5191    1.7570 H         1 RES1    0.0000
     38 H13        5.4942    9.6005    0.4296 H         1 RES1    0.0000
     39 H14        6.4525    8.3431    0.6745 H         1 RES1    0.0000
     40 C21        6.5488    7.3085    3.3904 C.3       1 RES1    0.0000
     41 H15        6.4690    8.0222    4.0570 H         1 RES1    0.0000
     42 H16        7.2168    7.5607    2.7205 H         1 RES1    0.0000
     43 H17        6.8253    6.4785    3.8314 H         1 RES1    0.0000
     44 C22        3.8148    9.2673    2.5009 C.3       1 RES1    0.0000
     45 H18        4.3131    9.7535    3.1898 H         1 RES1    0.0000
     46 H19        3.0658    8.7910    2.9155 H         1 RES1    0.0000
     47 H20        3.4717    9.9016    1.8364 H         1 RES1    0.0000
@<TRIPOS>BOND
     1    1    9 1
     2    2    6 1
     3    3   10 1
     4    4    5 1
     5    6   14 ar
     6    7    4 ar
     7    8   11 1
     8   10   13 1
     9   11    2 3
    10   12   16 1
    11   13    1 2
    12   14    7 ar
    13   15   14 1
    14   16   19 3
    15   17   12 ar
    16   18   17 1
    17   20    4 ar
    18   21   20 1
    19   22    6 ar
    20   23   22 1
    21   24    8 ar
    22   25   24 1
    23   26    8 ar
    24   27   26 1
    25   28    1 1
    26   29   10 1
    27   30   12 ar
    28   31   30 1
    29   32   29 1
    30   33   32 1
    31   34   32 1
    32   35   32 1
    33   36   28 1
    34   37   36 1
    35   38   36 1
    36   39   36 1
    37   40   29 1
    38   41   40 1
    39   42   40 1
    40   43   40 1
    41   44   28 1
    42   45   44 1
    43   46   44 1
    44   47   44 1
    45    7   13 1
    46   17   26 ar
    47   20   22 ar
    48   24   30 ar
    49   28   29 1
@<TRIPOS>SUBSTRUCTURE
     1 RES1 1

@<TRIPOS>CRYSIN
  13.6470   12.3400   11.5470  90.0000 100.9800  90.0000  14 1

