# MOL2 file generated by ConQuest
# Please check atom types

@<TRIPOS>MOLECULE
FEDXOC
    40    40     1
SMALL
NO_CHARGES
****
Generated from CSD

@<TRIPOS>ATOM
      1 O1         2.4954   15.5067    2.8906 O.2       1 RES1    0.0000
      2 N1         2.3775   14.8609    1.7846 N.pl3     1 RES1    0.0000
      3 C1         2.2293   15.5939    0.5143 C.3       1 RES1    0.0000
      4 C2         3.3634   16.6044    0.3960 C.3       1 RES1    0.0000
      5 H1         3.2644   17.2789    1.0723 H         1 RES1    0.0000
      6 H2         3.3360   17.0158   -0.4720 H         1 RES1    0.0000
      7 H3         4.2054   16.1578    0.5106 H         1 RES1    0.0000
      8 C3         0.9104   16.3309    0.5667 C.3       1 RES1    0.0000
      9 H4         0.9588   17.0276    1.2255 H         1 RES1    0.0000
     10 H5         0.2101   15.7176    0.8020 H         1 RES1    0.0000
     11 H6         0.7239   16.7151   -0.2927 H         1 RES1    0.0000
     12 C4         2.2720   14.4377   -0.5355 C.3       1 RES1    0.0000
     13 C5         3.5723   14.3075   -1.3002 C.3       1 RES1    0.0000
     14 H7         3.5087   13.5731   -1.9154 H         1 RES1    0.0000
     15 H8         4.2913   14.1473   -0.6850 H         1 RES1    0.0000
     16 H9         3.7410   15.1174   -1.7859 H         1 RES1    0.0000
     17 C6         1.1253   14.4012   -1.5094 C.3       1 RES1    0.0000
     18 H10        1.2373   13.6577   -2.1060 H         1 RES1    0.0000
     19 H11        1.1084   15.2176   -2.0138 H         1 RES1    0.0000
     20 H12        0.3005   14.3049   -1.0287 H         1 RES1    0.0000
     21 N2         2.1734   13.2408    0.3605 N.pl3     1 RES1    0.0000
     22 O2         2.0681   12.0805   -0.1487 O.2       1 RES1    0.0000
     23 C7         2.2652   13.5392    1.6576 C.2       1 RES1    0.0000
     24 C8         2.3246   12.6108    2.8046 C.2       1 RES1    0.0000
     25 N3         2.4696   12.9585    3.9541 N.2       1 RES1    0.0000
     26 H13        2.2914   14.1017    4.0226 H         1 RES1    0.0000
     27 O3         2.2116   11.3737    2.4685 O.3       1 RES1    0.0000
     28 C9         2.2681   10.3947    3.5220 C.3       1 RES1    0.0000
     29 H14        1.7066   10.6681    4.2630 H         1 RES1    0.0000
     30 H15        3.1784   10.3009    3.8433 H         1 RES1    0.0000
     31 C10        1.7757    9.0730    2.9516 C.3       1 RES1    0.0000
     32 H16        1.8744    8.3829    3.6253 H         1 RES1    0.0000
     33 H17        0.8308    9.1512    2.7448 H         1 RES1    0.0000
     34 C11        2.5154    8.6446    1.7012 C.3       1 RES1    0.0000
     35 H18        3.4670    8.6069    1.8855 H         1 RES1    0.0000
     36 H19        2.3703    9.2970    0.9988 H         1 RES1    0.0000
     37 C12        2.0301    7.2761    1.2367 C.3       1 RES1    0.0000
     38 H20        2.4703    7.0418    0.4160 H         1 RES1    0.0000
     39 H21        1.0812    7.3048    1.0947 H         1 RES1    0.0000
     40 H22        2.2336    6.6199    1.9067 H         1 RES1    0.0000
@<TRIPOS>BOND
     1    1    2 1
     2    2    3 1
     3    3    4 1
     4    4    5 1
     5    6    4 1
     6    7    4 1
     7    8    3 1
     8    9    8 1
     9   10    8 1
    10   11    8 1
    11   12    3 1
    12   13   12 1
    13   14   13 1
    14   15   13 1
    15   16   13 1
    16   17   12 1
    17   18   17 1
    18   19   17 1
    19   20   17 1
    20   21   12 1
    21   22   21 2
    22   23    2 2
    23   24   23 1
    24   25   24 2
    25   26   25 1
    26   27   24 1
    27   28   27 1
    28   29   28 1
    29   30   28 1
    30   31   28 1
    31   32   31 1
    32   33   31 1
    33   34   31 1
    34   35   34 1
    35   36   34 1
    36   37   34 1
    37   38   37 1
    38   39   37 1
    39   40   37 1
    40   21   23 1
@<TRIPOS>SUBSTRUCTURE
     1 RES1 1

@<TRIPOS>CRYSIN
   9.0270   13.0210   12.4560  90.0000  91.0490  90.0000  14 1

