# MOL2 file generated by ConQuest
# Please check atom types

@<TRIPOS>MOLECULE
FEDXUI
    37    37     1
SMALL
NO_CHARGES
****
Generated from CSD

@<TRIPOS>ATOM
      1 O1         3.9026    2.4134    1.9106 O.2       1 RES1    0.0000
      2 N1         2.7516    2.9453    1.9307 N.pl3     1 RES1    0.0000
      3 C1         1.6554    2.4276    2.7935 C.3       1 RES1    0.0000
      4 C2         2.2236    2.2114    4.1730 C.3       1 RES1    0.0000
      5 H1         2.7129    3.0300    4.4500 H         1 RES1    0.0000
      6 H2         2.8315    1.4762    4.2060 H         1 RES1    0.0000
      7 H3         1.5429    2.1330    4.7658 H         1 RES1    0.0000
      8 C3         1.2360    1.1209    2.1618 C.3       1 RES1    0.0000
      9 H4         0.8534    1.2996    1.2489 H         1 RES1    0.0000
     10 H5         2.0510    0.5721    2.1389 H         1 RES1    0.0000
     11 H6         0.6063    0.8476    2.6413 H         1 RES1    0.0000
     12 C4         0.6461    3.5393    2.6829 C.3       1 RES1    0.0000
     13 C5        -0.7823    3.0766    2.5351 C.3       1 RES1    0.0000
     14 H7        -0.8648    2.6981    3.5026 H         1 RES1    0.0000
     15 H8        -1.3872    3.8423    2.4834 H         1 RES1    0.0000
     16 H9        -0.8991    2.5780    1.7369 H         1 RES1    0.0000
     17 C6         0.7483    4.5966    3.7481 C.3       1 RES1    0.0000
     18 H10        1.6702    4.7746    3.8327 H         1 RES1    0.0000
     19 H11        0.5172    4.2943    4.6223 H         1 RES1    0.0000
     20 H12        0.0051    5.1136    3.5169 H         1 RES1    0.0000
     21 N2         1.0754    4.2032    1.4168 N.pl3     1 RES1    0.0000
     22 O2         0.3191    4.9992    0.8168 O.2       1 RES1    0.0000
     23 C7         2.3341    3.9171    1.1355 C.2       1 RES1    0.0000
     24 C8         3.1708    4.5267    0.0947 C.2       1 RES1    0.0000
     25 N3         4.1101    3.9807   -0.4866 N.2       1 RES1    0.0000
     26 H13        4.2675    3.2207   -0.0574 H         1 RES1    0.0000
     27 O3         2.7889    5.7691   -0.1464 O.3       1 RES1    0.0000
     28 C9         3.5354    6.5078   -1.1412 C.3       1 RES1    0.0000
     29 H14        3.7590    5.8270   -1.8087 H         1 RES1    0.0000
     30 C10        4.7703    7.0475   -0.5440 C.3       1 RES1    0.0000
     31 H15        5.3236    6.3073   -0.1005 H         1 RES1    0.0000
     32 H16        4.5939    7.6845    0.1435 H         1 RES1    0.0000
     33 H17        5.1876    7.4797   -1.1484 H         1 RES1    0.0000
     34 C11        2.6062    7.5694   -1.5963 C.3       1 RES1    0.0000
     35 H18        1.7116    7.1689   -1.9235 H         1 RES1    0.0000
     36 H19        3.0136    8.2143   -2.2537 H         1 RES1    0.0000
     37 H20        2.3368    8.0306   -0.9474 H         1 RES1    0.0000
@<TRIPOS>BOND
     1    1    2 1
     2    2    3 1
     3    3    4 1
     4    4    5 1
     5    6    4 1
     6    7    4 1
     7    8    3 1
     8    9    8 1
     9   10    8 1
    10   11    8 1
    11   12    3 1
    12   13   12 1
    13   14   13 1
    14   15   13 1
    15   16   13 1
    16   17   12 1
    17   18   17 1
    18   19   17 1
    19   20   17 1
    20   21   12 1
    21   22   21 2
    22   23    2 2
    23   24   23 1
    24   25   24 2
    25   26   25 1
    26   27   24 1
    27   28   27 1
    28   29   28 1
    29   30   28 1
    30   31   30 1
    31   32   30 1
    32   33   30 1
    33   34   28 1
    34   35   34 1
    35   36   34 1
    36   37   34 1
    37   21   23 1
@<TRIPOS>SUBSTRUCTURE
     1 RES1 1

@<TRIPOS>CRYSIN
  24.4400    7.0630   17.4120  90.0000 124.4700  90.0000  15 1

