# MOL2 file generated by ConQuest
# Please check atom types

@<TRIPOS>MOLECULE
FEDXES
    31    31     1
SMALL
NO_CHARGES
****
Generated from CSD

@<TRIPOS>ATOM
      1 N1         9.3001   -0.1677    5.8725 N.pl3     1 RES1    0.0000
      2 O1         8.8856   -1.3988    5.8702 O.2       1 RES1    0.0000
      3 C1         8.3892    0.9423    5.3981 C.3       1 RES1    0.0000
      4 N2        10.4964    1.6570    6.1943 N.pl3     1 RES1    0.0000
      5 O2        11.4644    2.4647    6.4171 O.2       1 RES1    0.0000
      6 C2         6.9558    0.6657    5.7886 C.3       1 RES1    0.0000
      7 H1         6.6269   -0.1591    5.2349 H         1 RES1    0.0000
      8 H2         6.4656    1.5053    5.5673 H         1 RES1    0.0000
      9 H3         7.0365    0.3916    6.6551 H         1 RES1    0.0000
     10 C3         8.5406    0.9656    3.8480 C.3       1 RES1    0.0000
     11 H4         8.2402   -0.0612    3.6712 H         1 RES1    0.0000
     12 H5         9.4068    1.2728    3.5957 H         1 RES1    0.0000
     13 H6         7.4460    1.5909    3.5202 H         1 RES1    0.0000
     14 O3        11.6555   -1.7635    6.0606 O.3       1 RES1    0.0000
     15 N3        12.8295   -0.0184    6.9406 N.2       1 RES1    0.0000
     16 C4         9.0705    2.1625    6.1165 C.3       1 RES1    0.0000
     17 C5         8.5803    2.3472    7.5457 C.3       1 RES1    0.0000
     18 H7         9.3075    2.9126    8.0450 H         1 RES1    0.0000
     19 H8         9.0469    1.5909    8.1961 H         1 RES1    0.0000
     20 H9         7.7066    2.6067    7.4785 H         1 RES1    0.0000
     21 C6         8.9948    3.4903    5.3331 C.3       1 RES1    0.0000
     22 H10        9.9528    4.1120    5.8392 H         1 RES1    0.0000
     23 H11        8.1782    3.8917    5.2274 H         1 RES1    0.0000
     24 H12        9.6798    3.3899    4.6986 H         1 RES1    0.0000
     25 C7        10.5497    0.2974    6.1550 C.2       1 RES1    0.0000
     26 C8        11.7585   -0.4785    6.4451 C.2       1 RES1    0.0000
     27 C9        12.8344   -2.5847    6.2464 C.3       1 RES1    0.0000
     28 H13       12.5713   -3.4266    5.7486 H         1 RES1    0.0000
     29 H14       13.0801   -2.6189    7.1839 H         1 RES1    0.0000
     30 H15       13.5765   -2.1049    5.7561 H         1 RES1    0.0000
     31 H16       12.9312    0.6486    7.0026 H         1 RES1    0.0000
@<TRIPOS>BOND
     1    1    2 1
     2    3    1 1
     3    4    5 2
     4    6    3 1
     5    7    6 1
     6    8    6 1
     7    9    6 1
     8   10    3 1
     9   11   10 1
    10   12   10 1
    11   13   10 1
    12   14   26 1
    13   15   26 2
    14   16    3 1
    15   17   16 1
    16   18   17 1
    17   19   17 1
    18   20   17 1
    19   21   16 1
    20   22   21 1
    21   23   21 1
    22   24   21 1
    23   25    1 2
    24   26   25 1
    25   27   14 1
    26   28   27 1
    27   29   27 1
    28   30   27 1
    29   31   15 1
    30    4   16 1
    31    4   25 1
@<TRIPOS>SUBSTRUCTURE
     1 RES1 1

@<TRIPOS>CRYSIN
  12.4100   12.2380    7.5540  90.0000  90.0000  90.0000  33 1

