# MOL2 file generated by ConQuest
# Please check atom types

@<TRIPOS>MOLECULE
FEDZEU
    41    43     1
SMALL
NO_CHARGES
****
Generated from CSD

@<TRIPOS>ATOM
      1 O1        11.4402    4.1618   -0.6692 O.3       1 RES1    0.0000
      2 O2         7.2303    4.4077   -3.9490 O.3       1 RES1    0.0000
      3 O3         7.6951    2.2903   -1.3024 O.3       1 RES1    0.0000
      4 O4         9.3169    0.4213   -0.0780 O.3       1 RES1    0.0000
      5 O5         9.7490    2.4279    1.7877 O.3       1 RES1    0.0000
      6 N1        10.1880    4.8034   -0.7507 N.2       1 RES1    0.0000
      7 N2        11.4231    3.1925    0.3224 N.2       1 RES1    0.0000
      8 N3         8.1462    4.5173    0.4271 N.3       1 RES1    0.0000
      9 N4         7.4046    5.2101   -0.5633 N.3       1 RES1    0.0000
     10 N5         7.2415    5.3550   -2.9178 N.2       1 RES1    0.0000
     11 N6         7.4342    3.1292   -3.4707 N.2       1 RES1    0.0000
     12 C1         9.4581    4.2105    0.1420 C.2       1 RES1    0.0000
     13 C2        10.2379    3.1986    0.7961 C.2       1 RES1    0.0000
     14 C3         7.4038    4.6476   -1.8226 C.2       1 RES1    0.0000
     15 C4         7.5223    3.2717   -2.1695 C.2       1 RES1    0.0000
     16 C5         7.8858    0.9668   -1.8506 C.3       1 RES1    0.0000
     17 H1         8.6899    0.9631   -2.3743 H         1 RES1    0.0000
     18 H2         7.1483    0.7001   -2.4046 H         1 RES1    0.0000
     19 C6         8.0933    0.0633   -0.6692 C.3       1 RES1    0.0000
     20 H3         8.1748   -0.8377   -0.9916 H         1 RES1    0.0000
     21 H4         7.0987    0.1352   -0.0931 H         1 RES1    0.0000
     22 C7         9.4434    0.1011    1.3210 C.3       1 RES1    0.0000
     23 H5         8.5971    0.4225    1.6690 H         1 RES1    0.0000
     24 H6         9.3969   -0.9680    1.5584 H         1 RES1    0.0000
     25 C8        10.3470    1.1141    1.9088 C.3       1 RES1    0.0000
     26 H7        10.5727    0.9071    2.8189 H         1 RES1    0.0000
     27 H8        11.1477    1.1007    1.3804 H         1 RES1    0.0000
     28 C9         7.4719    6.6749   -0.4993 C.3       1 RES1    0.0000
     29 H9         6.8253    7.0645   -1.0929 H         1 RES1    0.0000
     30 H10        8.3458    6.9354   -0.7984 H         1 RES1    0.0000
     31 C10        7.2790    7.2106    0.9090 C.3       1 RES1    0.0000
     32 C11        7.1521    8.7046    0.9311 C.3       1 RES1    0.0000
     33 H11        7.6892    9.1710    0.2851 H         1 RES1    0.0000
     34 H12        6.4623    8.8678    0.8438 H         1 RES1    0.0000
     35 C12        7.1390    9.2732    2.3336 C.3       1 RES1    0.0000
     36 H13        7.5691   10.1316    2.3487 H         1 RES1    0.0000
     37 H14        7.6051    8.6900    2.9365 H         1 RES1    0.0000
     38 H15        6.3026    9.3792    2.5687 H         1 RES1    0.0000
     39 H16        6.3122    6.9878    1.4199 H         1 RES1    0.0000
     40 H17        7.5554    3.6504    0.8298 H         1 RES1    0.0000
     41 H18        8.0912    6.7212    1.3943 H         1 RES1    0.0000
@<TRIPOS>BOND
     1    1    6 1
     2    2   10 1
     3    3   15 1
     4    4   19 1
     5    5   13 1
     6    6   12 2
     7    7    1 1
     8    8    9 1
     9    9   14 1
    10   10   14 2
    11   11    2 1
    12   12    8 1
    13   13    7 2
    14   14   15 1
    15   15   11 2
    16   16    3 1
    17   17   16 1
    18   18   16 1
    19   19   16 1
    20   20   19 1
    21   21   19 1
    22   22    4 1
    23   23   22 1
    24   24   22 1
    25   25    5 1
    26   26   25 1
    27   27   25 1
    28   28    9 1
    29   29   28 1
    30   30   28 1
    31   31   28 1
    32   32   31 1
    33   33   32 1
    34   34   32 1
    35   35   32 1
    36   36   35 1
    37   37   35 1
    38   38   35 1
    39   39   31 1
    40   40    8 1
    41   41   31 1
    42   12   13 1
    43   22   25 1
@<TRIPOS>SUBSTRUCTURE
     1 RES1 1

@<TRIPOS>CRYSIN
  11.0240   12.1760   11.8810  90.0000 101.5900  90.0000  14 1

