# MOL2 file generated by ConQuest
# Please check atom types

@<TRIPOS>MOLECULE
FEFHIK
    42    45     1
SMALL
NO_CHARGES
****
Generated from CSD

@<TRIPOS>ATOM
      1 O1         2.9075    3.5662    4.8123 O.3       1 RES1    0.0000
      2 O2         6.5982    4.7936    3.4042 O.3       1 RES1    0.0000
      3 O3         3.5236    5.1204    0.5642 O.3       1 RES1    0.0000
      4 O4         3.8481    3.6195    6.8585 O.2       1 RES1    0.0000
      5 N1         7.3690    4.4573    4.5375 N.2       1 RES1    0.0000
      6 N2         3.2287    6.6531    4.8372 N.ar      1 RES1    0.0000
      7 N3         2.6848    5.8559    1.4143 N.2       1 RES1    0.0000
      8 C1         5.1695    4.0672    4.9401 C.2       1 RES1    0.0000
      9 C2         6.5120    4.0468    5.4465 C.2       1 RES1    0.0000
     10 C3         5.2926    4.5570    3.6756 C.2       1 RES1    0.0000
     11 C4         3.9270    3.7253    5.6592 C.2       1 RES1    0.0000
     12 C5         2.4880    6.3855    3.7523 C.ar      1 RES1    0.0000
     13 C6         4.3731    4.9189    2.6030 C.2       1 RES1    0.0000
     14 C7         3.1858    5.7262    2.6198 C.2       1 RES1    0.0000
     15 C8         7.0325    3.6693    6.7813 C.ar      1 RES1    0.0000
     16 C9         4.5186    4.5936    1.2956 C.2       1 RES1    0.0000
     17 C10        7.9375    4.5179    7.4279 C.ar      1 RES1    0.0000
     18 C11        6.6553    2.4703    7.3915 C.ar      1 RES1    0.0000
     19 C12        1.1276    6.6843    3.6535 C.ar      1 RES1    0.0000
     20 C13        1.5815    3.3455    5.3938 C.3       1 RES1    0.0000
     21 H1         0.9319    3.9100    4.9470 H         1 RES1    0.0000
     22 H2         1.5934    3.5826    6.3345 H         1 RES1    0.0000
     23 C14        0.4988    7.2810    4.7340 C.ar      1 RES1    0.0000
     24 C15        1.2356    7.5504    5.8684 C.ar      1 RES1    0.0000
     25 C16        2.5906    7.2193    5.8706 C.ar      1 RES1    0.0000
     26 C17        8.4464    4.1689    8.6741 C.ar      1 RES1    0.0000
     27 C18        7.1817    2.1291    8.6293 C.ar      1 RES1    0.0000
     28 C19        1.1887    1.9089    5.2420 C.3       1 RES1    0.0000
     29 H3         1.2674    1.6515    4.3206 H         1 RES1    0.0000
     30 H4         0.2801    1.7938    5.5295 H         1 RES1    0.0000
     31 H5         1.7667    1.3609    5.7785 H         1 RES1    0.0000
     32 C20        8.0757    2.9745    9.2687 C.ar      1 RES1    0.0000
     33 H6        -0.4386    7.5012    4.6573 H         1 RES1    0.0000
     34 H7         0.8557    7.9560    6.6696 H         1 RES1    0.0000
     35 H8         3.1362    7.3724    6.6696 H         1 RES1    0.0000
     36 H9         5.1697    4.0632    0.8143 H         1 RES1    0.0000
     37 H10        0.6408    6.4467    2.8517 H         1 RES1    0.0000
     38 H11        5.9890    1.8587    6.9593 H         1 RES1    0.0000
     39 H12        8.1680    5.3433    6.9985 H         1 RES1    0.0000
     40 H13        9.0807    4.7658    9.1251 H         1 RES1    0.0000
     41 H14        6.9198    1.2359    9.0484 H         1 RES1    0.0000
     42 H15        8.4348    2.7697   10.1790 H         1 RES1    0.0000
@<TRIPOS>BOND
     1    1   11 1
     2    2    5 1
     3    3    7 1
     4    4   11 2
     5    5    9 2
     6    6   12 ar
     7    7   14 2
     8    8    9 1
     9    9   15 1
    10   10    2 1
    11   11    8 1
    12   12   14 1
    13   13   10 1
    14   14   13 1
    15   15   17 ar
    16   16    3 1
    17   17   26 ar
    18   18   15 ar
    19   19   12 ar
    20   20    1 1
    21   21   20 1
    22   22   20 1
    23   23   19 ar
    24   24   23 ar
    25   25    6 ar
    26   26   32 ar
    27   27   18 ar
    28   28   20 1
    29   29   28 1
    30   30   28 1
    31   31   28 1
    32   32   27 ar
    33   33   23 1
    34   34   24 1
    35   35   25 1
    36   36   16 1
    37   37   19 1
    38   38   18 1
    39   39   17 1
    40   40   26 1
    41   41   27 1
    42   42   32 1
    43    8   10 2
    44   13   16 2
    45   24   25 ar
@<TRIPOS>SUBSTRUCTURE
     1 RES1 1

@<TRIPOS>CRYSIN
   8.9292   12.2608   15.9631  90.0000 101.1830  90.0000  14 1

