# MOL2 file generated by ConQuest
# Please check atom types

@<TRIPOS>MOLECULE
FEFHUW
    30    32     1
SMALL
NO_CHARGES
****
Generated from CSD

@<TRIPOS>ATOM
      1 N1         0.1356    7.1530    2.2497 N.pl3     1 RES1    0.0000
      2 C1        -0.4642    7.6331    3.3927 C.2       1 RES1    0.0000
      3 C2        -3.8514   10.4803    1.9940 C.ar      1 RES1    0.0000
      4 N2         0.1037    7.4175    4.6727 N.pl3     1 RES1    0.0000
      5 N3        -1.7519    8.1665    1.6636 N.2       1 RES1    0.0000
      6 O1        -4.0678    9.5240    5.4162 O.3       1 RES1    0.0000
      7 C3        -2.8147   11.0929    1.3107 C.ar      1 RES1    0.0000
      8 H1        -1.9612   11.1161    1.6790 H         1 RES1    0.0000
      9 C4        -3.6395    9.8837    3.3319 C.2       1 RES1    0.0000
     10 C5        -5.1228   10.4603    1.4424 C.ar      1 RES1    0.0000
     11 H2        -5.8269   10.0711    1.9082 H         1 RES1    0.0000
     12 C6        -4.3104   11.6232   -0.4813 C.ar      1 RES1    0.0000
     13 H3        -4.4623   11.9989   -1.3183 H         1 RES1    0.0000
     14 C7        -2.6667    8.9365    3.7987 C.2       1 RES1    0.0000
     15 C8        -1.6307    8.2653    3.0230 C.2       1 RES1    0.0000
     16 C9        -3.0533   11.6713    0.0771 C.ar      1 RES1    0.0000
     17 H4        -2.3615   12.0951   -0.3767 H         1 RES1    0.0000
     18 C10       -3.0194    8.7625    5.0945 C.2       1 RES1    0.0000
     19 H5        -2.5871    8.1872    5.6838 H         1 RES1    0.0000
     20 C11        1.4083    6.4560    2.0484 C.3       1 RES1    0.0000
     21 H6         2.1255    6.9937    2.3915 H         1 RES1    0.0000
     22 H7         1.5439    6.3023    1.1105 H         1 RES1    0.0000
     23 H8         1.3894    5.6150    2.5105 H         1 RES1    0.0000
     24 O2         1.0941    6.7113    4.7629 O.2       1 RES1    0.0000
     25 C12       -0.6813    7.5089    1.2549 C.2       1 RES1    0.0000
     26 H9        -0.5125    7.3127    0.3607 H         1 RES1    0.0000
     27 O3        -0.4166    7.9458    5.6348 O.2       1 RES1    0.0000
     28 N4        -4.4642   10.2480    4.2809 N.2       1 RES1    0.0000
     29 C13       -5.3399   11.0209    0.1976 C.ar      1 RES1    0.0000
     30 H10       -6.1881   10.9895   -0.1812 H         1 RES1    0.0000
@<TRIPOS>BOND
     1    1    2 1
     2    2    4 1
     3    3    7 ar
     4    4   24 2
     5    5   15 1
     6    6   18 1
     7    7    8 1
     8    9    3 1
     9   10    3 ar
    10   11   10 1
    11   12   13 1
    12   14    9 1
    13   15    2 2
    14   16    7 ar
    15   17   16 1
    16   18   14 2
    17   19   18 1
    18   20    1 1
    19   21   20 1
    20   22   20 1
    21   23   20 1
    22   25    1 1
    23   26   25 1
    24   27    4 2
    25   28    6 1
    26   29   10 ar
    27   30   29 1
    28    5   25 2
    29    9   28 2
    30   12   16 ar
    31   12   29 ar
    32   14   15 1
@<TRIPOS>SUBSTRUCTURE
     1 RES1 1

@<TRIPOS>CRYSIN
   6.5200   10.4602   17.7675  90.0000  90.0000  90.0000  19 1

