# MOL2 file generated by ConQuest
# Please check atom types

@<TRIPOS>MOLECULE
FEFJUX
    45    49     1
SMALL
USER_CHARGES
****
Generated from CSD

@<TRIPOS>ATOM
      1 C1         2.1739   15.3336    1.0277 C.ar      1 RES1    0.0000
      2 H1         1.3320   15.7510    0.8888 H         1 RES1    0.0000
      3 C2         3.1794   16.0099    1.6986 C.ar      1 RES1    0.0000
      4 H2         3.0029   16.8906    2.0099 H         1 RES1    0.0000
      5 C3         4.4473   15.4557    1.9409 C.ar      1 RES1    0.0000
      6 C4         4.6376   14.1486    1.5037 C.ar      1 RES1    0.0000
      7 C5         5.2078   11.9749    1.5060 C.3       1 RES1    0.0000
      8 H3         5.9257   11.3484    1.2030 H         1 RES1    0.0000
      9 C6         4.6110   11.5064    2.8471 C.2       1 RES1    0.0000
     10 C7         3.5211   10.4831    2.7535 C.3       1 RES1    0.0000
     11 H4         3.1614   10.2969    3.6565 H         1 RES1    0.0000
     12 H5         3.8887    9.6397    2.3897 H         1 RES1    0.0000
     13 C8         2.3909   10.9868    1.8436 C.3       1 RES1    0.0000
     14 H6         1.6427   10.3378    1.8430 H         1 RES1    0.0000
     15 H7         2.0500   11.8551    2.1769 H         1 RES1    0.0000
     16 C9         1.8798   11.7520   -0.5373 C.3       1 RES1    0.0000
     17 H8         1.0978   11.1290   -0.5434 H         1 RES1    0.0000
     18 C10        1.3601   13.1354   -0.0930 C.3       1 RES1    0.0000
     19 H9         0.9911   13.6021   -0.8839 H         1 RES1    0.0000
     20 H10        0.6177   13.0023    0.5483 H         1 RES1    0.0000
     21 C11        2.3981   14.0274    0.5513 C.ar      1 RES1    0.0000
     22 C12        3.6472   13.5063    0.8002 C.ar      1 RES1    0.0000
     23 C13        4.1295   12.1357    0.4128 C.3       1 RES1    0.0000
     24 C14        2.9430   11.1510    0.4257 C.3       1 RES1    0.0000
     25 C15        4.7357   12.1658   -1.0045 C.3       1 RES1    0.0000
     26 H11        5.5098   12.7828   -1.0181 H         1 RES1    0.0000
     27 H12        5.0607   11.2617   -1.2423 H         1 RES1    0.0000
     28 C16        3.7121   12.6191   -2.0283 C.3       1 RES1    0.0000
     29 H13        3.4757   13.5650   -1.8594 H         1 RES1    0.0000
     30 H14        4.1050   12.5582   -2.9347 H         1 RES1    0.0000
     31 N1         2.4637   11.7719   -1.9654 N.4       1 RES1    1.0000
     32 C17        1.4784   12.2667   -2.9679 C.3       1 RES1    0.0000
     33 H15        1.7926   12.0490   -3.8709 H         1 RES1    0.0000
     34 H16        1.3839   13.2384   -2.8807 H         1 RES1    0.0000
     35 H17        0.6105   11.8385   -2.8120 H         1 RES1    0.0000
     36 O1         5.3779   16.2617    2.5470 O.3       1 RES1    0.0000
     37 C18        6.3445   15.6179    3.4108 C.3       1 RES1    0.0000
     38 H18        5.8788   15.0249    4.0363 H         1 RES1    0.0000
     39 H19        6.8382   16.2985    3.9135 H         1 RES1    0.0000
     40 H20        6.9701   15.0938    2.8676 H         1 RES1    0.0000
     41 O2         5.7448   13.3227    1.6944 O.3       1 RES1    0.0000
     42 O3         4.9923   11.9811    3.8921 O.2       1 RES1    0.0000
     43 O4         3.3366    9.8559    0.0015 O.3       1 RES1    0.0000
     44 H21        3.2919    9.8095   -0.8364 H         1 RES1    0.0000
     45 O5         2.7801   10.4521   -2.3437 O.2       1 RES1   -1.0000
@<TRIPOS>BOND
     1    1    2 1
     2    3    1 ar
     3    4    3 1
     4    5    3 ar
     5    6    5 ar
     6    7    8 1
     7    9    7 1
     8   10    9 1
     9   11   10 1
    10   12   10 1
    11   13   10 1
    12   14   13 1
    13   15   13 1
    14   16   17 1
    15   18   16 1
    16   19   18 1
    17   20   18 1
    18   21    1 ar
    19   22    6 ar
    20   23    7 1
    21   24   13 1
    22   25   23 1
    23   26   25 1
    24   27   25 1
    25   28   25 1
    26   29   28 1
    27   30   28 1
    28   31   16 1
    29   32   31 1
    30   33   32 1
    31   34   32 1
    32   35   32 1
    33   36    5 1
    34   37   36 1
    35   38   37 1
    36   39   37 1
    37   40   37 1
    38   41    6 1
    39   42    9 2
    40   43   24 1
    41   44   43 1
    42   45   31 1
    43    7   41 1
    44   16   24 1
    45   18   21 1
    46   21   22 ar
    47   22   23 1
    48   23   24 1
    49   28   31 1
@<TRIPOS>SUBSTRUCTURE
     1 RES1 1

@<TRIPOS>CRYSIN
   7.2080   12.7611   16.3676  90.0000  90.0000  90.0000  19 1

