# MOL2 file generated by ConQuest
# Please check atom types

@<TRIPOS>MOLECULE
FEFPEM02
    25    26     1
SMALL
NO_CHARGES
****
Generated from CSD

@<TRIPOS>ATOM
      1 O1         6.4459    2.2991    1.4151 O.3       1 RES1    0.0000
      2 C1         6.6676    0.9721    1.1206 C.ar      1 RES1    0.0000
      3 C2         7.6912    0.5528    0.2811 C.ar      1 RES1    0.0000
      4 H1         8.2986    1.1806   -0.0916 H         1 RES1    0.0000
      5 C3         7.8114   -0.7949   -0.0016 C.ar      1 RES1    0.0000
      6 H2         8.5087   -1.1073   -0.5670 H         1 RES1    0.0000
      7 C4         6.9093   -1.6793    0.5439 C.ar      1 RES1    0.0000
      8 N1         7.0746   -3.1046    0.2764 N.pl3     1 RES1    0.0000
      9 O2         8.0579   -3.4690   -0.3636 O.2       1 RES1    0.0000
     10 O3         6.2304   -3.8857    0.7075 O.2       1 RES1    0.0000
     11 C5         5.8677   -1.2629    1.3515 C.ar      1 RES1    0.0000
     12 H3         5.2451   -1.8907    1.6995 H         1 RES1    0.0000
     13 C6         5.7475    0.0732    1.6438 C.ar      1 RES1    0.0000
     14 H4         5.0407    0.3801    2.1989 H         1 RES1    0.0000
     15 C7         7.5102    3.1989    1.3674 C.ar      1 RES1    0.0000
     16 C8         8.7226    2.9291    1.9719 C.ar      1 RES1    0.0000
     17 H5         8.8738    2.0924    2.3948 H         1 RES1    0.0000
     18 C9         9.7108    3.8911    1.9552 C.ar      1 RES1    0.0000
     19 H6        10.5538    3.7094    2.3534 H         1 RES1    0.0000
     20 C10        9.4817    5.1205    1.3603 C.ar      1 RES1    0.0000
     21 H7        10.1626    5.7822    1.3587 H         1 RES1    0.0000
     22 C11        8.2601    5.3829    0.7693 C.ar      1 RES1    0.0000
     23 H8         8.1011    6.2271    0.3632 H         1 RES1    0.0000
     24 C12        7.2667    4.4154    0.7693 C.ar      1 RES1    0.0000
     25 H9         6.4268    4.5906    0.3616 H         1 RES1    0.0000
@<TRIPOS>BOND
     1    1    2 1
     2    2    3 ar
     3    3    4 1
     4    5    3 ar
     5    6    5 1
     6    7    5 ar
     7    8    7 1
     8    9    8 2
     9   10    8 2
    10   11    7 ar
    11   12   11 1
    12   13    2 ar
    13   14   13 1
    14   15    1 1
    15   16   15 ar
    16   17   16 1
    17   18   16 ar
    18   19   18 1
    19   20   18 ar
    20   21   20 1
    21   22   20 ar
    22   23   22 1
    23   24   15 ar
    24   25   24 1
    25   11   13 ar
    26   22   24 ar
@<TRIPOS>SUBSTRUCTURE
     1 RES1 1

@<TRIPOS>CRYSIN
  10.3300   12.2220    8.0098  90.0000  96.1220  90.0000  14 1

