# MOL2 file generated by ConQuest
# Please check atom types

@<TRIPOS>MOLECULE
FEFXUM
    21    23     1
SMALL
NO_CHARGES
****
Generated from CSD

@<TRIPOS>ATOM
      1 O1         0.4607   20.0201    3.9774 O.3       1 RES1    0.0000
      2 O2         3.0261   17.8499    6.1620 O.2       1 RES1    0.0000
      3 O3         2.2182   16.1923    5.0523 O.2       1 RES1    0.0000
      4 O4        -1.7440   14.9794    3.5149 O.3       1 RES1    0.0000
      5 O5         3.3130   16.0701    1.2049 O.3       1 RES1    0.0000
      6 N1         1.5059   19.5352    4.7153 N.2       1 RES1    0.0000
      7 N2        -0.3289   18.9928    3.4705 N.2       1 RES1    0.0000
      8 N3         2.2938   17.3719    5.3306 N.pl3     1 RES1    0.0000
      9 N4        -1.5168   16.2430    3.9979 N.2       1 RES1    0.0000
     10 N5        -0.6806   14.5526    2.7331 N.2       1 RES1    0.0000
     11 N6         2.2556   16.4660    1.9833 N.2       1 RES1    0.0000
     12 N7         3.1297   14.7551    0.7310 N.2       1 RES1    0.0000
     13 N8         1.3896   13.1875    0.9831 N.pl3     1 RES1    0.0000
     14 H1         1.9800   12.6617    0.6409 H         1 RES1    0.0000
     15 H2         1.1094   12.8491    1.7250 H         1 RES1    0.0000
     16 C1         1.3617   18.2521    4.6446 C.2       1 RES1    0.0000
     17 C2         0.2269   17.9035    3.8730 C.2       1 RES1    0.0000
     18 C3        -0.3508   16.5903    3.5469 C.2       1 RES1    0.0000
     19 C4         0.1840   15.5321    2.7468 C.2       1 RES1    0.0000
     20 C5         1.4328   15.4603    2.0089 C.2       1 RES1    0.0000
     21 C6         1.9657   14.3871    1.2066 C.2       1 RES1    0.0000
@<TRIPOS>BOND
     1    1    6 1
     2    2    8 2
     3    3    8 2
     4    4    9 1
     5    5   11 1
     6    6   16 2
     7    7    1 1
     8    8   16 1
     9    9   18 2
    10   10    4 1
    11   11   20 2
    12   12    5 1
    13   13   14 1
    14   15   13 1
    15   16   17 1
    16   17    7 2
    17   18   17 1
    18   19   10 2
    19   20   19 1
    20   21   12 2
    21   13   21 1
    22   18   19 1
    23   20   21 1
@<TRIPOS>SUBSTRUCTURE
     1 RES1 1

@<TRIPOS>CRYSIN
   6.6453   26.3950    6.5746  90.0000 119.8500  90.0000  14 1

