# MOL2 file generated by ConQuest
# Please check atom types

@<TRIPOS>MOLECULE
FEHFAC
    72    76     1
SMALL
NO_CHARGES
****
Generated from CSD

@<TRIPOS>ATOM
      1 O1         5.9843   -0.6017    1.2457 O.2       1 RES1    0.0000
      2 O2         7.9342   -1.5653    1.3121 O.2       1 RES1    0.0000
      3 O3         1.0609    4.0635    2.6095 O.2       1 RES1    0.0000
      4 O4         1.5358    6.0435    1.8020 O.3       1 RES1    0.0000
      5 O5         9.1074    5.0821    6.6382 O.3       1 RES1    0.0000
      6 O6         7.8320   -2.0034    4.4521 O.2       1 RES1    0.0000
      7 O7        10.0291   -2.0187    4.1604 O.3       1 RES1    0.0000
      8 N1         5.7612    1.7534    2.3658 N.pl3     1 RES1    0.0000
      9 H1         5.2669    1.1085    2.0851 H         1 RES1    0.0000
     10 N2         3.9432    6.8516    1.1103 N.pl3     1 RES1    0.0000
     11 H2         3.1650    7.2136    1.0549 H         1 RES1    0.0000
     12 N3         7.1445   -0.6760    1.7072 N.pl3     1 RES1    0.0000
     13 C1         5.1425    7.4689    0.7755 C.ar      1 RES1    0.0000
     14 C2         5.3712    8.7637    0.2917 C.ar      1 RES1    0.0000
     15 H3         4.6658    9.3426    0.1145 H         1 RES1    0.0000
     16 C3         6.6675    9.1464    0.0923 C.ar      1 RES1    0.0000
     17 H4         6.8415    9.9986   -0.2363 H         1 RES1    0.0000
     18 C4         7.7435    8.2913    0.3705 C.ar      1 RES1    0.0000
     19 H5         8.6151    8.5916    0.2560 H         1 RES1    0.0000
     20 C5         7.5138    7.0043    0.8136 C.ar      1 RES1    0.0000
     21 H6         8.2269    6.4303    0.9786 H         1 RES1    0.0000
     22 C6         6.2044    6.5733    1.0143 C.ar      1 RES1    0.0000
     23 C7         5.6067    5.3448    1.4746 C.ar      1 RES1    0.0000
     24 C8         6.1154    4.0841    1.7540 C.ar      1 RES1    0.0000
     25 H7         7.0218    3.9082    1.6432 H         1 RES1    0.0000
     26 C9         5.2593    3.0890    2.1984 C.ar      1 RES1    0.0000
     27 C10        3.8843    3.3212    2.3941 C.ar      1 RES1    0.0000
     28 C11        3.3383    4.5808    2.0470 C.ar      1 RES1    0.0000
     29 C12        4.1945    5.5609    1.5460 C.ar      1 RES1    0.0000
     30 C13        1.8862    4.8408    2.2156 C.2       1 RES1    0.0000
     31 C14        0.1524    6.4409    1.9534 C.3       1 RES1    0.0000
     32 H8        -0.4196    5.7253    1.6691 H         1 RES1    0.0000
     33 H9        -0.0175    7.2187    1.4168 H         1 RES1    0.0000
     34 H10       -0.0234    6.6440    2.8754 H         1 RES1    0.0000
     35 C15        3.0955    2.2695    3.0895 C.ar      1 RES1    0.0000
     36 C16        2.5758    1.1595    2.4347 C.ar      1 RES1    0.0000
     37 H11        2.7088    1.0602    1.5201 H         1 RES1    0.0000
     38 C17        1.8666    0.2034    3.1289 C.ar      1 RES1    0.0000
     39 H12        1.5107   -0.5246    2.6710 H         1 RES1    0.0000
     40 C18        1.6756    0.3080    4.4792 C.ar      1 RES1    0.0000
     41 H13        1.1802   -0.3322    4.9371 H         1 RES1    0.0000
     42 C19        2.2297    1.3770    5.1488 C.ar      1 RES1    0.0000
     43 H14        2.1392    1.4382    6.0720 H         1 RES1    0.0000
     44 C20        2.9152    2.3548    4.4657 C.ar      1 RES1    0.0000
     45 H15        3.2627    3.0810    4.9309 H         1 RES1    0.0000
     46 C21        6.9555    1.4258    2.9295 C.2       1 RES1    0.0000
     47 C22        7.5333    2.3925    3.8847 C.ar      1 RES1    0.0000
     48 C23        6.7739    2.7480    5.0122 C.ar      1 RES1    0.0000
     49 H16        5.9230    2.3872    5.1254 H         1 RES1    0.0000
     50 C24        7.2741    3.6213    5.9476 C.ar      1 RES1    0.0000
     51 H17        6.7748    3.8289    6.7046 H         1 RES1    0.0000
     52 C25        8.5116    4.1896    5.7655 C.ar      1 RES1    0.0000
     53 C26        9.2737    3.8694    4.6528 C.ar      1 RES1    0.0000
     54 H18       10.1124    4.2531    4.5358 H         1 RES1    0.0000
     55 C27        8.7863    2.9882    3.7259 C.ar      1 RES1    0.0000
     56 H19        9.2999    2.7826    2.9787 H         1 RES1    0.0000
     57 C28        8.3840    5.4570    7.8174 C.3       1 RES1    0.0000
     58 H20        7.5812    5.9203    7.5650 H         1 RES1    0.0000
     59 H21        8.9293    6.0319    8.3577 H         1 RES1    0.0000
     60 H22        8.1556    4.6701    8.3159 H         1 RES1    0.0000
     61 C29        7.6120    0.2207    2.6624 C.2       1 RES1    0.0000
     62 C30        8.9098   -0.1704    3.3148 C.3       1 RES1    0.0000
     63 H23        9.6009   -0.2238    2.6366 H         1 RES1    0.0000
     64 H24        9.1659    0.5185    3.9475 H         1 RES1    0.0000
     65 C31        8.8266   -1.4866    4.0324 C.2       1 RES1    0.0000
     66 C32       10.0769   -3.2908    4.8780 C.3       1 RES1    0.0000
     67 H25        9.7924   -3.1449    5.7938 H         1 RES1    0.0000
     68 H26        9.4498   -3.9054    4.4681 H         1 RES1    0.0000
     69 C33       11.3089   -3.8606    4.8866 C.3       1 RES1    0.0000
     70 H27       11.6780   -3.8388    4.0004 H         1 RES1    0.0000
     71 H28       11.2376   -4.7716    5.1808 H         1 RES1    0.0000
     72 H29       11.8825   -3.3751    5.4836 H         1 RES1    0.0000
@<TRIPOS>BOND
     1    1   12 2
     2    2   12 2
     3    3   30 2
     4    4   30 1
     5    5   52 1
     6    6   65 2
     7    7   65 1
     8    8    9 1
     9   10   11 1
    10   12   61 1
    11   13   10 1
    12   14   13 ar
    13   15   14 1
    14   16   14 ar
    15   17   16 1
    16   18   16 ar
    17   19   18 1
    18   20   18 ar
    19   21   20 1
    20   22   13 ar
    21   23   22 1
    22   24   23 ar
    23   25   24 1
    24   26    8 1
    25   27   26 ar
    26   28   27 ar
    27   29   10 1
    28   30   28 1
    29   31    4 1
    30   32   31 1
    31   33   31 1
    32   34   31 1
    33   35   27 1
    34   36   35 ar
    35   37   36 1
    36   38   36 ar
    37   39   38 1
    38   40   38 ar
    39   41   40 1
    40   42   40 ar
    41   43   42 1
    42   44   35 ar
    43   45   44 1
    44   46    8 1
    45   47   46 1
    46   48   47 ar
    47   49   48 1
    48   50   48 ar
    49   51   50 1
    50   52   50 ar
    51   53   52 ar
    52   54   53 1
    53   55   47 ar
    54   56   55 1
    55   57    5 1
    56   58   57 1
    57   59   57 1
    58   60   57 1
    59   61   46 2
    60   62   61 1
    61   63   62 1
    62   64   62 1
    63   65   62 1
    64   66    7 1
    65   67   66 1
    66   68   66 1
    67   69   66 1
    68   70   69 1
    69   71   69 1
    70   72   69 1
    71   20   22 ar
    72   23   29 ar
    73   24   26 ar
    74   28   29 ar
    75   42   44 ar
    76   53   55 ar
@<TRIPOS>SUBSTRUCTURE
     1 RES1 1

@<TRIPOS>CRYSIN
  10.9994   11.9252   12.6387  76.8870  84.0620  64.5120   2 1

