# MOL2 file generated by ConQuest
# Please check atom types

@<TRIPOS>MOLECULE
FEJQAM
    52    53     1
SMALL
NO_CHARGES
****
Generated from CSD

@<TRIPOS>ATOM
      1 O1         7.2533    3.4088    8.7842 O.3       1 RES1    0.0000
      2 O2         2.9958    3.1531    5.6496 O.3       1 RES1    0.0000
      3 O3         0.8013    2.8515    5.9883 O.2       1 RES1    0.0000
      4 O4         4.5515    3.5916    1.0801 O.2       1 RES1    0.0000
      5 O5         3.4054    2.7883   -0.5416 O.2       1 RES1    0.0000
      6 O6        -0.9908    0.9864    0.3001 O.2       1 RES1    0.0000
      7 O7        -1.6164    0.6717    2.3141 O.2       1 RES1    0.0000
      8 N1         3.5743    3.0307    0.6328 N.pl3     1 RES1    0.0000
      9 N2        -0.8213    1.0634    1.4938 N.pl3     1 RES1    0.0000
     10 C1         6.2786    4.3724    9.1988 C.3       1 RES1    0.0000
     11 C2         6.5946    5.7452    8.6002 C.3       1 RES1    0.0000
     12 C3         7.9191    6.3219    9.0907 C.3       1 RES1    0.0000
     13 C4         7.9709    6.4110   10.6132 C.3       1 RES1    0.0000
     14 C5         7.7284    5.0065   11.1899 C.3       1 RES1    0.0000
     15 C6         6.3972    4.4354   10.7197 C.3       1 RES1    0.0000
     16 C7         4.8748    3.8878    8.8089 C.3       1 RES1    0.0000
     17 C8         4.6102    3.7432    7.3182 C.3       1 RES1    0.0000
     18 C9         3.1777    3.3742    7.0710 C.3       1 RES1    0.0000
     19 C10        1.7585    2.8661    5.2638 C.2       1 RES1    0.0000
     20 C11        1.6768    2.5756    3.8018 C.ar      1 RES1    0.0000
     21 C12        2.6977    2.9014    2.9269 C.ar      1 RES1    0.0000
     22 C13        2.5290    2.6196    1.5820 C.ar      1 RES1    0.0000
     23 C14        1.4007    2.0076    1.0848 C.ar      1 RES1    0.0000
     24 C15        0.4127    1.6970    1.9882 C.ar      1 RES1    0.0000
     25 C16        0.5148    1.9792    3.3352 C.ar      1 RES1    0.0000
     26 C17        9.2331    7.0311   11.1703 C.2       1 RES1    0.0000
     27 C18        9.2192    7.3147   12.6356 C.3       1 RES1    0.0000
     28 C19       10.2769    7.3707   10.4170 C.2       1 RES1    0.0000
     29 H1         7.3036    3.4294    7.9489 H         1 RES1    0.0000
     30 H2         6.5543    5.7132    7.5551 H         1 RES1    0.0000
     31 H3         5.8468    6.3486    8.8430 H         1 RES1    0.0000
     32 H4         8.6854    5.7638    8.7769 H         1 RES1    0.0000
     33 H5         8.0780    7.2315    8.6950 H         1 RES1    0.0000
     34 H6         7.2219    6.9317   10.9071 H         1 RES1    0.0000
     35 H7         8.4451    4.4630   10.9186 H         1 RES1    0.0000
     36 H8         7.7378    5.0136   12.1735 H         1 RES1    0.0000
     37 H9         5.6781    4.9853   11.0480 H         1 RES1    0.0000
     38 H10        6.2648    3.5359   11.0840 H         1 RES1    0.0000
     39 H11        4.7359    3.0349    9.2498 H         1 RES1    0.0000
     40 H12        4.2303    4.5176    9.2326 H         1 RES1    0.0000
     41 H13        4.8109    4.4936    6.8306 H         1 RES1    0.0000
     42 H14        5.1870    3.0195    6.9686 H         1 RES1    0.0000
     43 H15        2.9471    2.6317    7.5465 H         1 RES1    0.0000
     44 H16        2.5981    4.1591    7.3467 H         1 RES1    0.0000
     45 H17        3.4746    3.3364    3.2428 H         1 RES1    0.0000
     46 H18        1.3489    1.8547    0.2142 H         1 RES1    0.0000
     47 H19       -0.1888    1.7232    3.9069 H         1 RES1    0.0000
     48 H20        9.2713    6.5098   13.0087 H         1 RES1    0.0000
     49 H21        8.2775    7.6909   13.0230 H         1 RES1    0.0000
     50 H22        9.9733    7.8351   12.9368 H         1 RES1    0.0000
     51 H23       10.2886    7.2917    9.4151 H         1 RES1    0.0000
     52 H24       11.0028    7.7686   10.8525 H         1 RES1    0.0000
@<TRIPOS>BOND
     1    1   10 1
     2    2   18 1
     3    3   19 2
     4    4    8 2
     5    5    8 2
     6    6    9 2
     7    7    9 2
     8    8   22 1
     9    9   24 1
    10   10   11 1
    11   11   12 1
    12   12   13 1
    13   13   14 1
    14   14   15 1
    15   15   10 1
    16   16   10 1
    17   17   16 1
    18   18   17 1
    19   19    2 1
    20   20   19 1
    21   21   20 ar
    22   22   21 ar
    23   23   22 ar
    24   24   23 ar
    25   25   20 ar
    26   26   13 1
    27   27   26 1
    28   28   26 2
    29   29    1 1
    30   30   11 1
    31   31   11 1
    32   32   12 1
    33   33   12 1
    34   34   13 1
    35   35   14 1
    36   36   14 1
    37   37   15 1
    38   38   15 1
    39   39   16 1
    40   40   16 1
    41   41   17 1
    42   42   17 1
    43   43   18 1
    44   44   18 1
    45   45   21 1
    46   46   23 1
    47   47   25 1
    48   48   27 1
    49   49   27 1
    50   50   27 1
    51   51   28 1
    52   52   28 1
    53   24   25 ar
@<TRIPOS>SUBSTRUCTURE
     1 RES1 1

@<TRIPOS>CRYSIN
   7.0480    9.6560   14.9230  76.9500  81.3400  88.7400   2 1

