# MOL2 file generated by ConQuest
# Please check atom types

@<TRIPOS>MOLECULE
FEKFAE
    34    35     1
SMALL
NO_CHARGES
****
Generated from CSD

@<TRIPOS>ATOM
      1 O1        -1.3212    2.0053    5.9578 O.2       1 RES1    0.0000
      2 C1        -1.0034    3.1159    3.5162 C.3       1 RES1    0.0000
      3 H1        -1.3077    2.1795    3.6928 H         1 RES1    0.0000
      4 N1        -0.2947    3.5873    4.7080 N.am      1 RES1    0.0000
      5 O2        -2.8676    4.7672    5.3447 O.2       1 RES1    0.0000
      6 C2        -0.0685    3.0819    2.3256 C.ar      1 RES1    0.0000
      7 N2        -3.1282    3.9543    4.4652 N.pl3     1 RES1    0.0000
      8 O3        -4.0187    3.1243    4.5530 O.2       1 RES1    0.0000
      9 C3        -0.0928    2.0363    1.4074 C.ar      1 RES1    0.0000
     10 H2        -0.7091    1.3217    1.5164 H         1 RES1    0.0000
     11 C4         0.7870    2.0390    0.3291 C.ar      1 RES1    0.0000
     12 H3         0.7616    1.3328   -0.3049 H         1 RES1    0.0000
     13 C5         1.7009    3.0721    0.1797 C.ar      1 RES1    0.0000
     14 H4         2.3044    3.0714   -0.5546 H         1 RES1    0.0000
     15 C6         1.7320    4.1054    1.1023 C.ar      1 RES1    0.0000
     16 H5         2.3640    4.8072    1.0006 H         1 RES1    0.0000
     17 C7         0.8463    4.1244    2.1767 C.ar      1 RES1    0.0000
     18 C8         0.8195    5.2245    3.1944 C.3       1 RES1    0.0000
     19 H6         0.0604    5.8291    3.0003 H         1 RES1    0.0000
     20 H7         1.6546    5.7526    3.1268 H         1 RES1    0.0000
     21 C9         0.6818    4.6855    4.6105 C.3       1 RES1    0.0000
     22 H8         1.5649    4.3617    4.9205 H         1 RES1    0.0000
     23 H9         0.4018    5.4215    5.2108 H         1 RES1    0.0000
     24 C10       -0.5625    2.9670    5.8879 C.2       1 RES1    0.0000
     25 C11        0.1273    3.5029    7.1116 C.3       1 RES1    0.0000
     26 H10       -0.2079    3.0372    7.9062 H         1 RES1    0.0000
     27 H11       -0.0539    4.4622    7.1958 H         1 RES1    0.0000
     28 H12        1.0934    3.3582    7.0320 H         1 RES1    0.0000
     29 C12       -2.2659    3.9779    3.2212 C.3       1 RES1    0.0000
     30 H13       -1.9806    4.9197    3.0425 H         1 RES1    0.0000
     31 C13       -3.0646    3.4744    2.0408 C.3       1 RES1    0.0000
     32 H14       -3.3085    2.5364    2.1878 H         1 RES1    0.0000
     33 H15       -2.5250    3.5482    1.2261 H         1 RES1    0.0000
     34 H16       -3.8778    4.0121    1.9429 H         1 RES1    0.0000
@<TRIPOS>BOND
     1    1   24 2
     2    2    3 1
     3    4    2 1
     4    5    7 2
     5    6    2 1
     6    7    8 2
     7    9    6 ar
     8   10    9 1
     9   11    9 ar
    10   12   11 1
    11   13   11 ar
    12   14   13 1
    13   15   13 ar
    14   16   15 1
    15   17    6 ar
    16   18   17 1
    17   19   18 1
    18   20   18 1
    19   21    4 1
    20   22   21 1
    21   23   21 1
    22   24    4 1
    23   25   24 1
    24   26   25 1
    25   27   25 1
    26   28   25 1
    27   29    2 1
    28   30   29 1
    29   31   29 1
    30   32   31 1
    31   33   31 1
    32   34   31 1
    33    7   29 1
    34   15   17 ar
    35   18   21 1
@<TRIPOS>SUBSTRUCTURE
     1 RES1 1

@<TRIPOS>CRYSIN
   8.3584    9.2233   16.4158  90.0000  98.9090  90.0000 231 1

