# MOL2 file generated by ConQuest
# Please check atom types

@<TRIPOS>MOLECULE
FEKHOU
    45    46     1
SMALL
NO_CHARGES
****
Generated from CSD

@<TRIPOS>ATOM
      1 N1         3.6026    9.0972    3.2359 N.am      1 RES1    0.0000
      2 H1         3.7888    9.2715    2.4145 H         1 RES1    0.0000
      3 N2         6.9715   13.1326    4.7603 N.pl3     1 RES1    0.0000
      4 O1         8.6312    9.8429    6.2884 O.2       1 RES1    0.0000
      5 O2         4.0718    9.5704    5.4019 O.2       1 RES1    0.0000
      6 O3         7.0543   13.2848    5.9732 O.2       1 RES1    0.0000
      7 O4         6.4555   13.8727    4.0850 O.2       1 RES1    0.0000
      8 C1        10.3274    7.6239    6.0171 C.ar      1 RES1    0.0000
      9 H2        10.5462    8.2437    6.6748 H         1 RES1    0.0000
     10 C2        11.0821    6.4798    5.8534 C.ar      1 RES1    0.0000
     11 H3        11.8066    6.3374    6.4187 H         1 RES1    0.0000
     12 C3        10.8079    5.5516    4.8977 C.ar      1 RES1    0.0000
     13 H4        11.3412    4.7976    4.7907 H         1 RES1    0.0000
     14 C4         9.7185    5.7646    4.1001 C.ar      1 RES1    0.0000
     15 H5         9.4896    5.1255    3.4647 H         1 RES1    0.0000
     16 C5         8.9502    6.9004    4.2118 C.ar      1 RES1    0.0000
     17 H6         8.2392    7.0360    3.6294 H         1 RES1    0.0000
     18 C6         9.2285    7.8370    5.1816 C.ar      1 RES1    0.0000
     19 C7         8.4184    9.0710    5.3508 C.2       1 RES1    0.0000
     20 C8         7.3064    9.3518    4.3724 C.3       1 RES1    0.0000
     21 H7         6.6493    8.6435    4.4436 H         1 RES1    0.0000
     22 H8         7.6732    9.3200    3.4743 H         1 RES1    0.0000
     23 C9         6.6010   10.6854    4.5588 C.3       1 RES1    0.0000
     24 H9         6.3599   10.7781    5.5044 H         1 RES1    0.0000
     25 C10        7.5461   11.8336    4.1845 C.3       1 RES1    0.0000
     26 H10        8.4304   11.6690    4.5502 H         1 RES1    0.0000
     27 H11        7.6204   11.9014    3.2202 H         1 RES1    0.0000
     28 C11        5.3124   10.7352    3.7253 C.3       1 RES1    0.0000
     29 H12        4.9360   11.6275    3.7748 H         1 RES1    0.0000
     30 H13        5.5272   10.5540    2.7969 H         1 RES1    0.0000
     31 C12        4.2867    9.7419    4.1946 C.2       1 RES1    0.0000
     32 C13        2.5729    8.1289    3.5157 C.3       1 RES1    0.0000
     33 H14        2.7296    7.7457    4.3936 H         1 RES1    0.0000
     34 H15        2.6315    7.4109    2.8661 H         1 RES1    0.0000
     35 C14        1.1852    8.7127    3.4778 C.ar      1 RES1    0.0000
     36 C15        0.2893    8.3281    2.5145 C.ar      1 RES1    0.0000
     37 H16        0.5333    7.6834    1.8892 H         1 RES1    0.0000
     38 C16       -0.9862    8.8925    2.4640 C.ar      1 RES1    0.0000
     39 H17       -1.5875    8.6158    1.8134 H         1 RES1    0.0000
     40 C17       -1.3510    9.8457    3.3606 C.ar      1 RES1    0.0000
     41 H18       -2.1938   10.2316    3.3187 H         1 RES1    0.0000
     42 C18       -0.4679   10.2302    4.3184 C.ar      1 RES1    0.0000
     43 H19       -0.7120   10.8804    4.9371 H         1 RES1    0.0000
     44 C19        0.7925    9.6603    4.3805 C.ar      1 RES1    0.0000
     45 H20        1.3837    9.9273    5.0478 H         1 RES1    0.0000
@<TRIPOS>BOND
     1    1    2 1
     2    3    6 2
     3    4   19 2
     4    5   31 2
     5    7    3 2
     6    8    9 1
     7   10    8 ar
     8   11   10 1
     9   12   10 ar
    10   13   12 1
    11   14   12 ar
    12   15   14 1
    13   16   14 ar
    14   17   16 1
    15   18    8 ar
    16   19   18 1
    17   20   19 1
    18   21   20 1
    19   22   20 1
    20   23   20 1
    21   24   23 1
    22   25    3 1
    23   26   25 1
    24   27   25 1
    25   28   23 1
    26   29   28 1
    27   30   28 1
    28   31    1 1
    29   32    1 1
    30   33   32 1
    31   34   32 1
    32   35   32 1
    33   36   35 ar
    34   37   36 1
    35   38   36 ar
    36   39   38 1
    37   40   38 ar
    38   41   40 1
    39   42   40 ar
    40   43   42 1
    41   44   35 ar
    42   45   44 1
    43   16   18 ar
    44   23   25 1
    45   28   31 1
    46   42   44 ar
@<TRIPOS>SUBSTRUCTURE
     1 RES1 1

@<TRIPOS>CRYSIN
  25.1580   13.8340    5.0513  90.0000  90.0000  90.0000  33 1

