# MOL2 file generated by ConQuest
# Please check atom types

@<TRIPOS>MOLECULE
FEKVOG
    42    43     1
SMALL
NO_CHARGES
****
Generated from CSD

@<TRIPOS>ATOM
      1 C1         3.8329    0.8783   11.4147 C.ar      1 RES1    0.0000
      2 C2         4.2197    0.6358   10.0834 C.ar      1 RES1    0.0000
      3 N1         5.1430   -0.4239    9.8357 N.pl3     1 RES1    0.0000
      4 O1         5.6319   -0.5975    8.7178 O.2       1 RES1    0.0000
      5 O2         5.4341   -1.2010   10.7466 O.2       1 RES1    0.0000
      6 C3         3.6404    1.3545    8.9981 C.ar      1 RES1    0.0000
      7 N2         3.9733    1.0894    7.7418 N.3       1 RES1    0.0000
      8 H1         3.5928    1.5438    7.1209 H         1 RES1    0.0000
      9 H2         4.6748    0.4884    7.6913 H         1 RES1    0.0000
     10 C4         2.6569    2.3488    9.3208 C.ar      1 RES1    0.0000
     11 N3         1.9026    2.9725    8.2828 N.pl3     1 RES1    0.0000
     12 O3         1.0285    3.8098    8.5630 O.2       1 RES1    0.0000
     13 O4         2.0818    2.6628    7.1046 O.2       1 RES1    0.0000
     14 C5         2.4716    2.7954   10.6635 C.ar      1 RES1    0.0000
     15 N4         1.8127    3.8865   10.9780 N.3       1 RES1    0.0000
     16 H3         1.3624    4.3348   10.3148 H         1 RES1    0.0000
     17 H4         1.8445    4.1866   11.8302 H         1 RES1    0.0000
     18 C6         3.0256    1.9616   11.6786 C.ar      1 RES1    0.0000
     19 N5         2.5934    2.2058   13.0539 N.pl3     1 RES1    0.0000
     20 O5         2.5911    3.3580   13.4776 O.2       1 RES1    0.0000
     21 O6         2.2261    1.2542   13.7204 O.2       1 RES1    0.0000
     22 C7         4.4313    0.1300   12.5928 C.ar      1 RES1    0.0000
     23 C8         5.5183    0.6960   13.1973 C.ar      1 RES1    0.0000
     24 N6         6.0448    1.9598   12.6335 N.pl3     1 RES1    0.0000
     25 O7         5.8513    2.9655   13.2723 O.2       1 RES1    0.0000
     26 O8         6.6235    1.9319   11.6232 O.2       1 RES1    0.0000
     27 C9         6.2249    0.0977   14.2761 C.ar      1 RES1    0.0000
     28 N7         7.3120    0.7222   14.7437 N.3       1 RES1    0.0000
     29 H5         7.6768    0.2878   15.3662 H         1 RES1    0.0000
     30 H6         7.5924    1.4304   14.4211 H         1 RES1    0.0000
     31 C10        5.7285   -1.1164   14.7568 C.ar      1 RES1    0.0000
     32 N8         6.4686   -1.8142   15.7703 N.pl3     1 RES1    0.0000
     33 O9         6.0399   -2.8190   16.2869 O.2       1 RES1    0.0000
     34 O10        7.5706   -1.4287   16.0816 O.2       1 RES1    0.0000
     35 C11        4.5409   -1.7270   14.2174 C.ar      1 RES1    0.0000
     36 N9         4.0701   -2.8626   14.6965 N.3       1 RES1    0.0000
     37 H7         4.5021   -3.2446   15.3988 H         1 RES1    0.0000
     38 H8         3.3246   -3.2707   14.3070 H         1 RES1    0.0000
     39 C12        3.9039   -1.0571   13.1273 C.ar      1 RES1    0.0000
     40 N10        2.7429   -1.5953   12.5129 N.pl3     1 RES1    0.0000
     41 O11        2.1649   -2.5922   13.0067 O.2       1 RES1    0.0000
     42 O12        2.2780   -1.0414   11.5075 O.2       1 RES1    0.0000
@<TRIPOS>BOND
     1    1    2 ar
     2    2    3 1
     3    3    4 2
     4    5    3 2
     5    6    2 ar
     6    7    6 1
     7    8    7 1
     8    9    7 1
     9   10    6 ar
    10   11   10 1
    11   12   11 2
    12   13   11 2
    13   14   10 ar
    14   15   14 1
    15   16   15 1
    16   17   15 1
    17   18    1 ar
    18   19   18 1
    19   20   19 2
    20   21   19 2
    21   22    1 1
    22   23   22 ar
    23   24   23 1
    24   25   24 2
    25   26   24 2
    26   27   23 ar
    27   28   27 1
    28   29   28 1
    29   30   28 1
    30   31   27 ar
    31   32   31 1
    32   33   32 2
    33   34   32 2
    34   35   31 ar
    35   36   35 1
    36   37   36 1
    37   38   36 1
    38   39   22 ar
    39   40   39 1
    40   41   40 2
    41   42   40 2
    42   14   18 ar
    43   35   39 ar
@<TRIPOS>SUBSTRUCTURE
     1 RES1 1

@<TRIPOS>CRYSIN
  12.4430    8.7220   17.7850  90.0000 113.6200  90.0000  14 1

