# MOL2 file generated by ConQuest
# Please check atom types

@<TRIPOS>MOLECULE
FELBOP
    60    63     1
SMALL
NO_CHARGES
****
Generated from CSD

@<TRIPOS>ATOM
      1 O1         4.7495    3.1808    3.5163 O.3       1 RES1    0.0000
      2 N1         5.6954    4.1580    4.0055 N.3       1 RES1    0.0000
      3 C1         5.7249    4.0439    5.4666 C.3       1 RES1    0.0000
      4 C2         4.3240    4.1576    6.0205 C.2       1 RES1    0.0000
      5 C3         3.2819    4.0679    5.1931 C.2       1 RES1    0.0000
      6 C4         3.4537    3.7301    3.7499 C.3       1 RES1    0.0000
      7 C5         6.9265    3.9582    3.3278 C.ar      1 RES1    0.0000
      8 C6         6.9819    3.2738    2.1150 C.ar      1 RES1    0.0000
      9 C7         8.1956    3.1519    1.4453 C.ar      1 RES1    0.0000
     10 C8         9.3558    3.6947    1.9633 C.ar      1 RES1    0.0000
     11 C9         9.2978    4.3761    3.1649 C.ar      1 RES1    0.0000
     12 C10        8.0967    4.5113    3.8493 C.ar      1 RES1    0.0000
     13 C11        4.1643    4.3828    7.4735 C.2       1 RES1    0.0000
     14 C12        5.1935    4.5845    8.2989 C.2       1 RES1    0.0000
     15 C13        2.7683    4.4210    8.0293 C.2       1 RES1    0.0000
     16 C14        2.2736    5.5911    8.4280 C.2       1 RES1    0.0000
     17 H1         6.2645    4.8175    5.7854 H         1 RES1    0.0000
     18 H2         6.1661    3.2172    5.7708 H         1 RES1    0.0000
     19 H3         2.3694    4.1674    5.5059 H         1 RES1    0.0000
     20 H4         3.2982    4.5454    3.1649 H         1 RES1    0.0000
     21 H5         2.8323    3.0066    3.4961 H         1 RES1    0.0000
     22 H6         6.1736    2.8785    1.7642 H         1 RES1    0.0000
     23 H7         8.1988    2.6292    0.5945 H         1 RES1    0.0000
     24 H8        10.1961    3.6089    1.5090 H         1 RES1    0.0000
     25 H9        10.0875    4.7796    3.5365 H         1 RES1    0.0000
     26 H10        8.0703    5.0069    4.6819 H         1 RES1    0.0000
     27 H11        5.0560    4.7205    9.2863 H         1 RES1    0.0000
     28 H12        6.1359    4.6015    7.9777 H         1 RES1    0.0000
     29 H13        1.3642    5.6721    8.8001 H         1 RES1    0.0000
     30 H14        2.8106    6.4026    8.3412 H         1 RES1    0.0000
     31 O1B        0.0163    4.3962   12.6395 O.3       1 RES1    0.0000
     32 N1B       -0.9296    3.4190   12.1503 N.3       1 RES1    0.0000
     33 C1B       -0.9591    3.5331   10.6892 C.3       1 RES1    0.0000
     34 C2B        0.4417    3.4194   10.1353 C.2       1 RES1    0.0000
     35 C3B        1.4839    3.5091   10.9627 C.2       1 RES1    0.0000
     36 C4B        1.3120    3.8469   12.4059 C.3       1 RES1    0.0000
     37 C5B       -2.1608    3.6188   12.8280 C.ar      1 RES1    0.0000
     38 C6B       -2.2162    4.3032   14.0408 C.ar      1 RES1    0.0000
     39 C7B       -3.4298    4.4251   14.7105 C.ar      1 RES1    0.0000
     40 C8B       -4.5900    3.8823   14.1925 C.ar      1 RES1    0.0000
     41 C9B       -4.5321    3.2009   12.9909 C.ar      1 RES1    0.0000
     42 C10B      -3.3309    3.0657   12.3065 C.ar      1 RES1    0.0000
     43 C11B       0.6015    3.1942    8.6823 C.2       1 RES1    0.0000
     44 C12B      -0.4278    2.9925    7.8569 C.2       1 RES1    0.0000
     45 C13B       1.9974    3.1560    8.1265 C.2       1 RES1    0.0000
     46 C14B       2.4922    1.9859    7.7278 C.2       1 RES1    0.0000
     47 H1B       -1.4988    2.7595   10.3704 H         1 RES1    0.0000
     48 H2B       -1.4004    4.3598   10.3849 H         1 RES1    0.0000
     49 H3B        2.3964    3.4097   10.6499 H         1 RES1    0.0000
     50 H4B        1.4676    3.0316   12.9909 H         1 RES1    0.0000
     51 H5B        1.9335    4.5704   12.6597 H         1 RES1    0.0000
     52 H6B       -1.4078    4.6985   14.3916 H         1 RES1    0.0000
     53 H7B       -3.4330    4.9478   15.5612 H         1 RES1    0.0000
     54 H8B       -5.4303    3.9681   14.6468 H         1 RES1    0.0000
     55 H9B       -5.3218    2.7974   12.6193 H         1 RES1    0.0000
     56 H10B      -3.3045    2.5701   11.4738 H         1 RES1    0.0000
     57 H11B      -0.2902    2.8565    6.8694 H         1 RES1    0.0000
     58 H12B      -1.3702    2.9755    8.1781 H         1 RES1    0.0000
     59 H13B       3.4015    1.9049    7.3557 H         1 RES1    0.0000
     60 H14B       1.9552    1.1744    7.8146 H         1 RES1    0.0000
@<TRIPOS>BOND
     1    1    2 1
     2    2    3 1
     3    3    4 1
     4    4    5 2
     5    5    6 1
     6    6    1 1
     7    7    2 1
     8    8    7 ar
     9    9    8 ar
    10   10    9 ar
    11   11   10 ar
    12   12    7 ar
    13   13    4 1
    14   14   13 2
    15   15   13 1
    16   16   15 2
    17   17    3 1
    18   18    3 1
    19   19    5 1
    20   20    6 1
    21   21    6 1
    22   22    8 1
    23   23    9 1
    24   24   10 1
    25   25   11 1
    26   26   12 1
    27   27   14 1
    28   28   14 1
    29   29   16 1
    30   30   16 1
    31   31   32 1
    32   32   33 1
    33   33   34 1
    34   34   35 2
    35   35   36 1
    36   36   31 1
    37   37   32 1
    38   38   37 ar
    39   39   38 ar
    40   40   39 ar
    41   41   40 ar
    42   42   37 ar
    43   43   34 1
    44   44   43 2
    45   45   15 1
    46   46   45 2
    47   47   33 1
    48   48   33 1
    49   49   35 1
    50   50   36 1
    51   51   36 1
    52   52   38 1
    53   53   39 1
    54   54   40 1
    55   55   41 1
    56   56   42 1
    57   57   44 1
    58   58   44 1
    59   59   46 1
    60   60   46 1
    61   11   12 ar
    62   41   42 ar
    63   43   45 1
@<TRIPOS>SUBSTRUCTURE
     1 RES1 1

@<TRIPOS>CRYSIN
   9.4094    7.5770   16.8099  90.0000 106.0362  90.0000  14 1

