# MOL2 file generated by ConQuest
# Please check atom types

@<TRIPOS>MOLECULE
FELCAC
    67    66     2
SMALL
NO_CHARGES
****
Generated from CSD

@<TRIPOS>ATOM
      1 O1         3.2144   -3.1234    9.7554 O.3       1 RES1    0.0000
      2 N1         4.5185   -2.5732    9.4661 N.3       1 RES1    0.0000
      3 C1         4.4155   -1.8539    8.1997 C.3       1 RES1    0.0000
      4 C2         3.2885   -0.8565    8.2564 C.2       1 RES1    0.0000
      5 C3         2.4035   -0.8970    9.2583 C.2       1 RES1    0.0000
      6 C4         1.3338    0.1197    9.5275 C.3       1 RES1    0.0000
      7 N2         0.0414   -0.5651    9.6586 N.3       1 RES1    0.0000
      8 O2         0.1447   -1.5248   10.7570 O.3       1 RES1    0.0000
      9 C5         0.9965   -2.5791   10.3416 C.3       1 RES1    0.0000
     10 C6         2.4048   -2.0452   10.2232 C.3       1 RES1    0.0000
     11 C7         5.4917   -3.6051    9.5710 C.ar      1 RES1    0.0000
     12 C8         5.3503   -4.6220   10.5131 C.ar      1 RES1    0.0000
     13 C9         6.3587   -5.5535   10.6877 C.ar      1 RES1    0.0000
     14 C10        7.5120   -5.4917    9.9396 C.ar      1 RES1    0.0000
     15 C11        7.6610   -4.4921    9.0041 C.ar      1 RES1    0.0000
     16 C12        6.6591   -3.5548    8.8109 C.ar      1 RES1    0.0000
     17 C13        3.2867    0.1601    7.1584 C.2       1 RES1    0.0000
     18 C14        2.5667    0.0316    6.0607 C.2       1 RES1    0.0000
     19 C15        2.5776    1.0676    4.9884 C.3       1 RES1    0.0000
     20 O3         2.9674    2.3289    5.5290 O.3       1 RES1    0.0000
     21 N3         4.2915    2.1405    6.1044 N.3       1 RES1    0.0000
     22 C16        4.1905    1.3499    7.3356 C.3       1 RES1    0.0000
     23 C17        4.8536    3.4393    6.2517 C.ar      1 RES1    0.0000
     24 C18        4.4155    4.5034    5.4724 C.ar      1 RES1    0.0000
     25 C19        5.0532    5.7186    5.5549 C.ar      1 RES1    0.0000
     26 C20        6.1224    5.9120    6.4112 C.ar      1 RES1    0.0000
     27 C21        6.5700    4.8562    7.1640 C.ar      1 RES1    0.0000
     28 C22        5.9494    3.6154    7.0912 C.ar      1 RES1    0.0000
     29 C23       -1.0958    0.2465    9.9443 C.ar      1 RES1    0.0000
     30 C24       -1.0769    1.6303    9.8236 C.ar      1 RES1    0.0000
     31 C25       -2.2405    2.3573   10.0110 C.ar      1 RES1    0.0000
     32 C26       -3.4202    1.7295   10.3333 C.ar      1 RES1    0.0000
     33 C27       -3.4466    0.3552   10.4593 C.ar      1 RES1    0.0000
     34 C28       -2.3007   -0.3964   10.2679 C.ar      1 RES1    0.0000
     35 H1         5.2626   -1.3858    8.0250 H         1 RES1    0.0000
     36 H2         4.2701   -2.4706    7.4744 H         1 RES1    0.0000
     37 H3         1.5467    0.6238   10.3559 H         1 RES1    0.0000
     38 H4         1.2583    0.7514    8.7647 H         1 RES1    0.0000
     39 H5         0.9782   -3.2731   11.0444 H         1 RES1    0.0000
     40 H6         0.7096   -2.9651    9.4711 H         1 RES1    0.0000
     41 H7         2.7216   -1.7621   11.1182 H         1 RES1    0.0000
     42 H8         4.5653   -4.6616   11.0195 H         1 RES1    0.0000
     43 H9         6.2429   -6.2437   11.3215 H         1 RES1    0.0000
     44 H10        8.1807   -6.1331   10.0752 H         1 RES1    0.0000
     45 H11        8.4461   -4.4369    8.5090 H         1 RES1    0.0000
     46 H12        6.7622   -2.8884    8.1641 H         1 RES1    0.0000
     47 H13        2.0309   -0.7227    5.9450 H         1 RES1    0.0000
     48 H14        3.1933    0.8118    4.3122 H         1 RES1    0.0000
     49 H15        1.7082    1.1404    4.6130 H         1 RES1    0.0000
     50 H16        5.0573    1.0461    7.5778 H         1 RES1    0.0000
     51 H17        3.8435    1.9010    8.0273 H         1 RES1    0.0000
     52 H18        3.6838    4.3900    4.8878 H         1 RES1    0.0000
     53 H19        4.7404    6.4284    5.0269 H         1 RES1    0.0000
     54 H20        6.5383    6.7430    6.4837 H         1 RES1    0.0000
     55 H21        7.3016    4.9632    7.7360 H         1 RES1    0.0000
     56 H22        6.2614    2.9055    7.6242 H         1 RES1    0.0000
     57 H23       -0.2771    2.0719    9.6078 H         1 RES1    0.0000
     58 H24       -2.2105    3.2954    9.9266 H         1 RES1    0.0000
     59 H25       -4.1981    2.2303   10.4546 H         1 RES1    0.0000
     60 H26       -4.2461   -0.0784   10.6722 H         1 RES1    0.0000
     61 H27       -2.3153   -1.3314   10.3701 H         1 RES1    0.0000
     62 H28        1.8601    1.6752    5.1173 Du        2 SUP2    0.0000
     63 H29        2.4936    0.6539    4.1374 Du        2 SUP2    0.0000
     64 H30        4.0473    1.7196    8.1986 Du        2 SUP2    0.0000
     65 H31        5.0933    1.0643    7.2603 Du        2 SUP2    0.0000
     66 N4         3.9496    2.3291    6.3838 Du        2 SUP2    0.0000
     67 O4         3.8358    1.7638    5.0757 Du        2 SUP2    0.0000
@<TRIPOS>BOND
     1    1    2 1
     2    2    3 1
     3    3    4 1
     4    4    5 2
     5    5    6 1
     6    6    7 1
     7    7    8 1
     8    8    9 1
     9    9   10 1
    10   10    1 1
    11   11    2 1
    12   12   11 ar
    13   13   12 ar
    14   14   13 ar
    15   15   14 ar
    16   16   11 ar
    17   17    4 1
    18   18   17 2
    19   19   18 1
    20   20   19 1
    21   21   20 1
    22   22   17 1
    23   23   21 1
    24   24   23 ar
    25   25   24 ar
    26   26   25 ar
    27   27   26 ar
    28   28   23 ar
    29   29    7 1
    30   30   29 ar
    31   31   30 ar
    32   32   31 ar
    33   33   32 ar
    34   34   29 ar
    35   35    3 1
    36   36    3 1
    37   37    6 1
    38   38    6 1
    39   39    9 1
    40   40    9 1
    41   41   10 1
    42   42   12 1
    43   43   13 1
    44   44   14 1
    45   45   15 1
    46   46   16 1
    47   47   18 1
    48   48   19 1
    49   49   19 1
    50   50   22 1
    51   51   22 1
    52   52   24 1
    53   53   25 1
    54   54   26 1
    55   55   27 1
    56   56   28 1
    57   57   30 1
    58   58   31 1
    59   59   32 1
    60   60   33 1
    61   61   34 1
    62    5   10 1
    63   15   16 ar
    64   21   22 1
    65   27   28 ar
    66   33   34 ar
@<TRIPOS>SUBSTRUCTURE
     1 RES1 1
     2 SUP2 62

@<TRIPOS>CRYSIN
   9.9709   10.7612   13.1112 105.7810 100.0750 115.2160   2 1

