# MOL2 file generated by ConQuest
# Please check atom types

@<TRIPOS>MOLECULE
FELCIK
    20    21     1
SMALL
NO_CHARGES
****
Generated from CSD

@<TRIPOS>ATOM
      1 O1         5.3888    3.1262    1.6094 O.3       1 RES1    0.0000
      2 N1         6.2246    2.5592    2.6740 N.3       1 RES1    0.0000
      3 C1         5.9222    3.3219    3.8842 C.3       1 RES1    0.0000
      4 C2         4.4526    3.2444    4.1605 C.2       1 RES1    0.0000
      5 C3         3.6011    2.8653    3.2135 C.2       1 RES1    0.0000
      6 C4         2.1139    2.7637    3.3815 C.3       1 RES1    0.0000
      7 N2         1.3674    3.4911    2.3441 N.3       1 RES1    0.0000
      8 O2         1.7982    3.0189    1.0499 O.3       1 RES1    0.0000
      9 C5         3.1821    3.3161    0.8150 C.3       1 RES1    0.0000
     10 C6         4.0792    2.5980    1.8122 C.3       1 RES1    0.0000
     11 H1         6.9995    2.7951    2.4049 H         1 RES1    0.0000
     12 H2         6.1952    4.2671    3.8139 H         1 RES1    0.0000
     13 H3         6.4891    2.9109    4.5971 H         1 RES1    0.0000
     14 H4         4.1069    3.5311    5.0560 H         1 RES1    0.0000
     15 H5         1.8485    3.1424    4.2175 H         1 RES1    0.0000
     16 H6         1.8562    1.8193    3.3216 H         1 RES1    0.0000
     17 H7         1.5623    4.3746    2.3716 H         1 RES1    0.0000
     18 H8         3.3567    4.3167    0.9021 H         1 RES1    0.0000
     19 H9         3.3490    2.9853   -0.1116 H         1 RES1    0.0000
     20 H10        4.0760    1.6208    1.6405 H         1 RES1    0.0000
@<TRIPOS>BOND
     1    1    2 1
     2    2    3 1
     3    3    4 1
     4    4    5 2
     5    5    6 1
     6    6    7 1
     7    7    8 1
     8    8    9 1
     9    9   10 1
    10   10    1 1
    11   11    2 1
    12   12    3 1
    13   13    3 1
    14   14    4 1
    15   15    6 1
    16   16    6 1
    17   17    7 1
    18   18    9 1
    19   19    9 1
    20   20   10 1
    21    5   10 1
@<TRIPOS>SUBSTRUCTURE
     1 RES1 1

@<TRIPOS>CRYSIN
   7.7343    8.2695   10.4290  90.0000  90.0000  90.0000  19 1

