# MOL2 file generated by ConQuest
# Please check atom types

@<TRIPOS>MOLECULE
FELVAW
    32    33     1
SMALL
NO_CHARGES
****
Generated from CSD

@<TRIPOS>ATOM
      1 C1        -0.1380   -0.2581    3.5355 C.ar      1 RES1    0.0000
      2 O1         0.0202    3.4281    0.6397 O.3       1 RES1    0.0000
      3 C2        -0.4807    2.1453    0.7263 C.2       1 RES1    0.0000
      4 C3        -0.1115    1.5932    2.0585 C.ar      1 RES1    0.0000
      5 O2        -0.1216   -2.1643    4.8610 O.2       1 RES1    0.0000
      6 O3        -1.0977    1.6049   -0.1336 O.2       1 RES1    0.0000
      7 C4        -0.4496    0.2576    2.2945 C.ar      1 RES1    0.0000
      8 H1        -0.8752   -0.2715    1.6303 H         1 RES1    0.0000
      9 N1        -0.5042   -1.6678    3.8008 N.pl3     1 RES1    0.0000
     10 O4        -1.1707   -2.2500    2.9717 O.2       1 RES1    0.0000
     11 C5         0.4775    0.4698    4.5331 C.ar      1 RES1    0.0000
     12 H2         0.6719    0.0755    5.3750 H         1 RES1    0.0000
     13 C6         0.5064    2.3487    3.0428 C.ar      1 RES1    0.0000
     14 H3         0.7274    3.2556    2.8700 H         1 RES1    0.0000
     15 C7         0.8046    1.7942    4.2728 C.ar      1 RES1    0.0000
     16 H4         1.2324    2.3184    4.9395 H         1 RES1    0.0000
     17 C1A       -0.2033    7.6555   -3.5355 C.ar      1 RES1    0.0000
     18 O1A       -0.3615    3.9692   -0.6397 O.3       1 RES1    0.0000
     19 C2A        0.1394    5.2520   -0.7263 C.2       1 RES1    0.0000
     20 C3A       -0.2298    5.8042   -2.0585 C.ar      1 RES1    0.0000
     21 O2A       -0.2198    9.5616   -4.8610 O.2       1 RES1    0.0000
     22 O3A        0.7564    5.7925    0.1336 O.2       1 RES1    0.0000
     23 C4A        0.1082    7.1397   -2.2945 C.ar      1 RES1    0.0000
     24 H1A        0.5339    7.6688   -1.6303 H         1 RES1    0.0000
     25 N1A        0.1628    9.0651   -3.8008 N.pl3     1 RES1    0.0000
     26 O4A        0.8293    9.6474   -2.9717 O.2       1 RES1    0.0000
     27 C5A       -0.8189    6.9275   -4.5331 C.ar      1 RES1    0.0000
     28 H2A       -1.0132    7.3218   -5.3750 H         1 RES1    0.0000
     29 C6A       -0.8478    5.0487   -3.0428 C.ar      1 RES1    0.0000
     30 H3A       -1.0687    4.1417   -2.8700 H         1 RES1    0.0000
     31 C7A       -1.1460    5.6031   -4.2728 C.ar      1 RES1    0.0000
     32 H4A       -1.5737    5.0789   -4.9395 H         1 RES1    0.0000
@<TRIPOS>BOND
     1    1    7 ar
     2    2    3 1
     3    3    4 1
     4    4    7 ar
     5    5    9 2
     6    6    3 2
     7    7    8 1
     8    9    1 1
     9   10    9 2
    10   11    1 ar
    11   12   11 1
    12   13    4 ar
    13   14   13 1
    14   15   11 ar
    15   16   15 1
    16   17   23 ar
    17   18    2 1
    18   19   18 1
    19   20   19 1
    20   21   25 2
    21   22   19 2
    22   23   20 ar
    23   24   23 1
    24   25   17 1
    25   26   25 2
    26   27   17 ar
    27   28   27 1
    28   29   20 ar
    29   30   29 1
    30   31   27 ar
    31   32   31 1
    32   13   15 ar
    33   29   31 ar
@<TRIPOS>SUBSTRUCTURE
     1 RES1 1

@<TRIPOS>CRYSIN
   3.7130    7.4052   12.4640  99.7740  97.3360  92.6420   2 1

