# MOL2 file generated by ConQuest
# Please check atom types

@<TRIPOS>MOLECULE
FEMBUU
    24    24     1
SMALL
USER_CHARGES
****
Generated from CSD

@<TRIPOS>ATOM
      1 O1         3.5230    3.0328    2.0975 O.3       1 RES1    0.0000
      2 N1         2.5810    2.5905    1.1767 N.pl3     1 RES1    1.0000
      3 C1         1.7872    3.5494    0.8082 C.2       1 RES1    0.0000
      4 C2         2.1779    4.8800    1.4223 C.3       1 RES1    0.0000
      5 C3         2.9954    4.3572    2.6041 C.3       1 RES1    0.0000
      6 O2         2.6191    1.4024    0.8315 O.2       1 RES1   -1.0000
      7 C4         0.9419    5.6828    1.9020 C.3       1 RES1    0.0000
      8 C5         2.9594    5.6890    0.4005 C.3       1 RES1    0.0000
      9 C6         2.2509    4.0128    3.8310 C.3       1 RES1    0.0000
     10 C7         4.2932    5.1204    2.9515 C.3       1 RES1    0.0000
     11 C8         0.7856    3.3227   -0.1672 C.1       1 RES1    0.0000
     12 N2        -0.0195    3.1456   -0.9674 N.1       1 RES1    0.0000
     13 H1         1.3111    6.4435    2.3585 H         1 RES1    0.0000
     14 H2         0.1738    5.3644    2.3832 H         1 RES1    0.0000
     15 H3         0.6797    5.9380    1.0139 H         1 RES1    0.0000
     16 H4         3.1785    6.5079    0.8511 H         1 RES1    0.0000
     17 H5         2.4103    5.8798   -0.3641 H         1 RES1    0.0000
     18 H6         3.7677    5.2567    0.1127 H         1 RES1    0.0000
     19 H7         1.9383    4.7983    4.2867 H         1 RES1    0.0000
     20 H8         2.9461    3.5990    4.3477 H         1 RES1    0.0000
     21 H9         1.5229    3.3971    3.7198 H         1 RES1    0.0000
     22 H10        4.0659    5.9120    3.4443 H         1 RES1    0.0000
     23 H11        4.6880    5.3669    2.1114 H         1 RES1    0.0000
     24 H12        4.9184    4.5963    3.4588 H         1 RES1    0.0000
@<TRIPOS>BOND
     1    1    2 1
     2    2    3 2
     3    3    4 1
     4    4    5 1
     5    5    1 1
     6    6    2 1
     7    7    4 1
     8    8    4 1
     9    9    5 1
    10   10    5 1
    11   11    3 1
    12   12   11 3
    13   13    7 1
    14   14    7 1
    15   15    7 1
    16   16    8 1
    17   17    8 1
    18   18    8 1
    19   19    9 1
    20   20    9 1
    21   21    9 1
    22   22   10 1
    23   23   10 1
    24   24   10 1
@<TRIPOS>SUBSTRUCTURE
     1 RES1 1

@<TRIPOS>CRYSIN
  10.2830   12.3890    7.2680  90.0000  90.0000  90.0000  33 1

