# MOL2 file generated by ConQuest
# Please check atom types

@<TRIPOS>MOLECULE
FEMREV
    72    76     1
SMALL
NO_CHARGES
****
Generated from CSD

@<TRIPOS>ATOM
      1 C1         0.8590    2.2869   15.6032 C.3       1 RES1    0.0000
      2 C2        -0.3728    2.9484   14.8560 C.3       1 RES1    0.0000
      3 C3         0.3720    2.7184   13.4942 C.3       1 RES1    0.0000
      4 C4         1.4157    1.8395   14.2395 C.3       1 RES1    0.0000
      5 C5         0.6869    1.2764   16.7109 C.ar      1 RES1    0.0000
      6 C6         1.0254    1.6075   18.0091 C.ar      1 RES1    0.0000
      7 C7         0.9624    0.6688   19.0309 C.ar      1 RES1    0.0000
      8 C8         0.5320   -0.6369   18.7432 C.ar      1 RES1    0.0000
      9 C9         0.1539   -0.9553   17.4842 C.ar      1 RES1    0.0000
     10 C10        0.2509   -0.0246   16.4531 C.ar      1 RES1    0.0000
     11 C11        1.2974    2.1659   20.8821 C.3       1 RES1    0.0000
     12 C12       -1.7191    2.3221   15.0876 C.ar      1 RES1    0.0000
     13 C13       -2.5632    2.9258   16.0309 C.ar      1 RES1    0.0000
     14 C14       -3.7613    2.3574   16.3821 C.ar      1 RES1    0.0000
     15 C15       -4.1491    1.1534   15.7974 C.ar      1 RES1    0.0000
     16 C16       -3.3418    0.5604   14.8653 C.ar      1 RES1    0.0000
     17 C17       -2.1338    1.1401   14.4936 C.ar      1 RES1    0.0000
     18 C18       -4.2744    4.0593   17.9904 C.3       1 RES1    0.0000
     19 C19        0.8783    3.9994   12.9581 C.2       1 RES1    0.0000
     20 C20        0.8836    5.3776   11.0360 C.ar      1 RES1    0.0000
     21 C21        2.1610    5.6980   10.6568 C.ar      1 RES1    0.0000
     22 C22        2.3713    6.8993   10.0198 C.ar      1 RES1    0.0000
     23 C23        1.3183    7.7250    9.7882 C.ar      1 RES1    0.0000
     24 C24        0.0348    7.4072   10.1487 C.ar      1 RES1    0.0000
     25 C25       -0.1959    6.2072   10.7931 C.ar      1 RES1    0.0000
     26 C26        2.9088    2.0230   14.0714 C.2       1 RES1    0.0000
     27 C27        4.6174    2.7350   12.6854 C.ar      1 RES1    0.0000
     28 C28        5.4551    1.8036   12.1063 C.ar      1 RES1    0.0000
     29 C29        6.7836    2.1121   11.9251 C.ar      1 RES1    0.0000
     30 C30        7.2698    3.3027   12.3604 C.ar      1 RES1    0.0000
     31 C31        6.4424    4.2281   12.9226 C.ar      1 RES1    0.0000
     32 C32        5.0912    3.9383   13.0851 C.ar      1 RES1    0.0000
     33 N1         1.5584    8.9908    9.0746 N.pl3     1 RES1    0.0000
     34 N2         8.6804    3.6205   12.1680 N.pl3     1 RES1    0.0000
     35 O1         0.4676   -1.5889   19.7347 O.3       1 RES1    0.0000
     36 O2         1.3647    0.8503   20.3327 O.3       1 RES1    0.0000
     37 O3        -5.3128    0.5438   16.1748 O.3       1 RES1    0.0000
     38 O4        -4.6276    2.8606   17.3105 O.3       1 RES1    0.0000
     39 O5         1.4321    4.8577   13.5802 O.2       1 RES1    0.0000
     40 O6         0.6008    4.1291   11.6334 O.3       1 RES1    0.0000
     41 O7         0.5655    9.6170    8.6693 O.2       1 RES1    0.0000
     42 O8         2.7097    9.3557    8.9158 O.2       1 RES1    0.0000
     43 O9         3.6892    1.8315   14.9288 O.2       1 RES1    0.0000
     44 O10        3.2343    2.4345   12.8330 O.3       1 RES1    0.0000
     45 O11        9.1293    4.6343   12.6555 O.2       1 RES1    0.0000
     46 O12        9.3559    2.8267   11.5310 O.2       1 RES1    0.0000
     47 H1         1.4303    3.0082   15.9413 H         1 RES1    0.0000
     48 H2        -0.4110    3.9070   15.0596 H         1 RES1    0.0000
     49 H3        -0.1610    2.2144   12.8442 H         1 RES1    0.0000
     50 H4         1.1938    0.8955   14.0994 H         1 RES1    0.0000
     51 H5         1.3019    2.4751   18.2015 H         1 RES1    0.0000
     52 H6        -0.1766   -1.8063   17.3068 H         1 RES1    0.0000
     53 H7         0.0234   -0.2719   15.5864 H         1 RES1    0.0000
     54 H8         1.8673    2.7489   20.3758 H         1 RES1    0.0000
     55 H9         1.5861    2.1533   21.7974 H         1 RES1    0.0000
     56 H10        0.3934    2.4844   20.8354 H         1 RES1    0.0000
     57 H11       -2.3058    3.7269   16.4269 H         1 RES1    0.0000
     58 H12       -3.6049   -0.2413   14.4749 H         1 RES1    0.0000
     59 H13       -1.6029    0.7346   13.8454 H         1 RES1    0.0000
     60 H14       -3.3964    3.9662   18.3659 H         1 RES1    0.0000
     61 H15       -4.9062    4.2261   18.6928 H         1 RES1    0.0000
     62 H16       -4.2824    4.7932   17.3721 H         1 RES1    0.0000
     63 H17        2.8676    5.1176   10.8268 H         1 RES1    0.0000
     64 H18        3.2271    7.1439    9.7508 H         1 RES1    0.0000
     65 H19       -0.6666    7.9876    9.9638 H         1 RES1    0.0000
     66 H20       -1.0543    5.9639   11.0565 H         1 RES1    0.0000
     67 H21        5.1255    0.9759   11.8411 H         1 RES1    0.0000
     68 H22        7.3496    1.5051   11.5030 H         1 RES1    0.0000
     69 H23        6.7798    5.0505   13.1972 H         1 RES1    0.0000
     70 H24        4.5197    4.5652   13.4662 H         1 RES1    0.0000
     71 H25        0.8219   -1.2984   20.4151 H         1 RES1    0.0000
     72 H26       -5.7998    1.0896   16.5446 H         1 RES1    0.0000
@<TRIPOS>BOND
     1    1    2 1
     2    2    3 1
     3    3    4 1
     4    4    1 1
     5    5    1 1
     6    6    5 ar
     7    7    6 ar
     8    8    7 ar
     9    9    8 ar
    10   10    5 ar
    11   11   36 1
    12   12    2 1
    13   13   12 ar
    14   14   13 ar
    15   15   14 ar
    16   16   15 ar
    17   17   12 ar
    18   18   38 1
    19   19    3 1
    20   20   21 ar
    21   21   22 ar
    22   22   23 ar
    23   23   24 ar
    24   24   25 ar
    25   25   20 ar
    26   26    4 1
    27   27   28 ar
    28   28   29 ar
    29   29   30 ar
    30   30   31 ar
    31   31   32 ar
    32   32   27 ar
    33   33   23 1
    34   34   30 1
    35   35    8 1
    36   36    7 1
    37   37   15 1
    38   38   14 1
    39   39   19 2
    40   40   19 1
    41   41   33 2
    42   42   33 2
    43   43   26 2
    44   44   26 1
    45   45   34 2
    46   46   34 2
    47   47    1 1
    48   48    2 1
    49   49    3 1
    50   50    4 1
    51   51    6 1
    52   52    9 1
    53   53   10 1
    54   54   11 1
    55   55   11 1
    56   56   11 1
    57   57   13 1
    58   58   16 1
    59   59   17 1
    60   60   18 1
    61   61   18 1
    62   62   18 1
    63   63   21 1
    64   64   22 1
    65   65   24 1
    66   66   25 1
    67   67   28 1
    68   68   29 1
    69   69   31 1
    70   70   32 1
    71   71   35 1
    72   72   37 1
    73    9   10 ar
    74   16   17 ar
    75   20   40 1
    76   27   44 1
@<TRIPOS>SUBSTRUCTURE
     1 RES1 1

@<TRIPOS>CRYSIN
  11.9310    6.6480   19.0060  90.0000 100.6320  90.0000   4 1

