# MOL2 file generated by ConQuest
# Please check atom types

@<TRIPOS>MOLECULE
FEMSOH
    39    40     1
SMALL
NO_CHARGES
****
Generated from CSD

@<TRIPOS>ATOM
      1 C1         3.7592    8.3577    3.7912 C.2       1 RES1    0.0000
      2 O1         4.2091    8.3378    1.4513 O.3       1 RES1    0.0000
      3 C2         2.2827    8.6522    3.5745 C.3       1 RES1    0.0000
      4 H1         2.0461    9.4221    4.1324 H         1 RES1    0.0000
      5 O2         3.3632    8.6803    6.0877 O.2       1 RES1    0.0000
      6 C3         1.4068    7.4813    4.0028 C.ar      1 RES1    0.0000
      7 C4         4.0850    8.2156    5.2337 C.2       1 RES1    0.0000
      8 C5         2.0327    9.0332    2.1336 C.2       1 RES1    0.0000
      9 C6         2.9525    8.8091    1.1573 C.2       1 RES1    0.0000
     10 N1         2.8056    8.9893   -0.1587 N.3       1 RES1    0.0000
     11 H2         2.0593    9.2796   -0.4725 H         1 RES1    0.0000
     12 H3         3.4570    8.8141   -0.6917 H         1 RES1    0.0000
     13 C7         0.7829    9.6311    1.8144 C.1       1 RES1    0.0000
     14 C8         4.6230    8.2262    2.7722 C.2       1 RES1    0.0000
     15 O3         5.1670    7.4995    5.5165 O.3       1 RES1    0.0000
     16 C9         0.2170    7.7256    4.6816 C.ar      1 RES1    0.0000
     17 H4        -0.0236    8.6014    4.8832 H         1 RES1    0.0000
     18 C10        6.1036    7.9825    2.7924 C.3       1 RES1    0.0000
     19 H5         6.4230    8.0316    3.6966 H         1 RES1    0.0000
     20 H6         6.5444    8.6496    2.2608 H         1 RES1    0.0000
     21 H7         6.2892    7.1127    2.4333 H         1 RES1    0.0000
     22 C11        1.7588    6.1689    3.7216 C.ar      1 RES1    0.0000
     23 H8         2.5536    5.9951    3.2716 H         1 RES1    0.0000
     24 C12       -0.2326    5.4070    4.7641 C.ar      1 RES1    0.0000
     25 N2        -0.2281   10.1331    1.6103 N.1       1 RES1    0.0000
     26 C13        0.9457    5.1173    4.0999 C.ar      1 RES1    0.0000
     27 H9         1.1842    4.2375    3.9133 H         1 RES1    0.0000
     28 N3        -1.1298    4.3019    5.1499 N.pl3     1 RES1    0.0000
     29 C14       -0.6105    6.6879    5.0599 C.ar      1 RES1    0.0000
     30 H10       -1.4090    6.8559    5.5066 H         1 RES1    0.0000
     31 O4        -2.1324    4.5636    5.8041 O.2       1 RES1    0.0000
     32 C15        5.3610    7.1855    6.9382 C.3       1 RES1    0.0000
     33 H11        5.1501    7.9654    7.4757 H         1 RES1    0.0000
     34 H12        6.2886    6.9502    7.0965 H         1 RES1    0.0000
     35 O5        -0.8349    3.1761    4.7849 O.2       1 RES1    0.0000
     36 C16        4.4737    6.0393    7.3390 C.3       1 RES1    0.0000
     37 H13        3.5538    6.3021    7.2557 H         1 RES1    0.0000
     38 H14        4.6562    5.7965    8.2498 H         1 RES1    0.0000
     39 H15        4.6444    5.2869    6.7674 H         1 RES1    0.0000
@<TRIPOS>BOND
     1    1    3 1
     2    2    9 1
     3    3    4 1
     4    5    7 2
     5    6    3 1
     6    7    1 1
     7    8    3 1
     8    9    8 2
     9   10    9 1
    10   11   10 1
    11   12   10 1
    12   13    8 1
    13   14    1 2
    14   15    7 1
    15   16    6 ar
    16   17   16 1
    17   18   14 1
    18   19   18 1
    19   20   18 1
    20   21   18 1
    21   22    6 ar
    22   23   22 1
    23   24   26 ar
    24   25   13 3
    25   26   22 ar
    26   27   26 1
    27   28   24 1
    28   29   16 ar
    29   30   29 1
    30   31   28 2
    31   32   15 1
    32   33   32 1
    33   34   32 1
    34   35   28 2
    35   36   32 1
    36   37   36 1
    37   38   36 1
    38   39   36 1
    39    2   14 1
    40   24   29 ar
@<TRIPOS>SUBSTRUCTURE
     1 RES1 1

@<TRIPOS>CRYSIN
   9.6278   20.0640    8.4658  90.0000 100.1550  90.0000  14 1

