# MOL2 file generated by ConQuest
# Please check atom types

@<TRIPOS>MOLECULE
FENCEG
    16    16     1
SMALL
NO_CHARGES
****
Generated from CSD

@<TRIPOS>ATOM
      1 O1         0.0000    2.7081    3.6291 O.3       1 RES1    0.0000
      2 O2         0.0000    2.3849    7.7760 O.3       1 RES1    0.0000
      3 O3        -1.0265    1.2382    5.1383 O.3       1 RES1    0.0000
      4 N1         0.0000    4.1278    3.6735 N.2       1 RES1    0.0000
      5 N2         0.0000    3.5921    7.0900 N.2       1 RES1    0.0000
      6 C1         0.0000    4.5337    4.8814 C.2       1 RES1    0.0000
      7 C2         0.0000    3.4209    5.8243 C.2       1 RES1    0.0000
      8 C3         0.0000    2.1488    4.9890 C.3       1 RES1    0.0000
      9 C4         0.0000    5.9888    5.2244 C.3       1 RES1    0.0000
     10 H1        -0.7355    6.1688    5.8216 H         1 RES1    0.0000
     11 H2         0.0000    6.5437    4.4361 H         1 RES1    0.0000
     12 H3         0.0000    2.7347    8.7015 H         1 RES1    0.0000
     13 H4        -0.6780    0.6405    5.8552 H         1 RES1    0.0000
     14 O3B        1.0265    1.2382    5.1383 O.3       1 RES1    0.0000
     15 H1B        0.7355    6.1688    5.8216 H         1 RES1    0.0000
     16 H4B        0.6780    0.6405    5.8552 H         1 RES1    0.0000
@<TRIPOS>BOND
     1    1    4 1
     2    2    5 1
     3    3    8 1
     4    4    6 1
     5    5    7 1
     6    6    7 1
     7    7    8 1
     8    8    1 1
     9    9    6 1
    10   10    9 1
    11   11    9 1
    12   12    2 1
    13   13    3 1
    14   14    8 1
    15   15    9 1
    16   16   14 1
@<TRIPOS>SUBSTRUCTURE
     1 RES1 1

@<TRIPOS>CRYSIN
   6.8480   14.7580   13.4510  90.0000  90.0000  90.0000  64 1

