# MOL2 file generated by ConQuest
# Please check atom types

@<TRIPOS>MOLECULE
FENDEH
    31    33     1
SMALL
NO_CHARGES
****
Generated from CSD

@<TRIPOS>ATOM
      1 N1         1.0891   -1.5502    1.4249 N.3       1 RES1    0.0000
      2 N2         2.4338   -1.8540    1.1600 N.am      1 RES1    0.0000
      3 C1         3.2549   -0.8156    1.5147 C.2       1 RES1    0.0000
      4 C2         2.6310    1.3636    2.7434 C.ar      1 RES1    0.0000
      5 C3         1.5627    2.0255    3.2917 C.ar      1 RES1    0.0000
      6 C4         0.2505    1.5274    3.2371 C.ar      1 RES1    0.0000
      7 C5        -0.0136    0.3308    2.6256 C.ar      1 RES1    0.0000
      8 C6         1.0684   -0.3618    2.0672 C.ar      1 RES1    0.0000
      9 C7         2.3748    0.1486    2.1354 C.ar      1 RES1    0.0000
     10 C8         0.0817   -2.6063    1.5014 C.3       1 RES1    0.0000
     11 C9        -0.3686   -3.0975    0.1453 C.3       1 RES1    0.0000
     12 C10        0.6514   -3.9303   -0.6084 C.3       1 RES1    0.0000
     13 C11        1.9921   -3.2483   -0.8618 C.3       1 RES1    0.0000
     14 C12        2.8243   -3.0297    0.3974 C.3       1 RES1    0.0000
     15 O1         4.4755   -0.7968    1.3206 O.2       1 RES1    0.0000
     16 N3         1.7829    3.2943    3.9722 N.pl3     1 RES1    0.0000
     17 O2         0.8322    3.8779    4.4804 O.2       1 RES1    0.0000
     18 O3         2.9343    3.7273    4.0233 O.2       1 RES1    0.0000
     19 H1         3.5309    1.7334    2.7334 H         1 RES1    0.0000
     20 H2        -0.4633    2.0437    3.6655 H         1 RES1    0.0000
     21 H3        -0.8518   -0.0042    2.5909 H         1 RES1    0.0000
     22 H4        -0.7093   -2.1863    1.9808 H         1 RES1    0.0000
     23 H5         0.4049   -3.3915    2.0681 H         1 RES1    0.0000
     24 H6        -0.5857   -2.3127   -0.3741 H         1 RES1    0.0000
     25 H7        -1.1785   -3.6831    0.3469 H         1 RES1    0.0000
     26 H8         0.2802   -4.1801   -1.5367 H         1 RES1    0.0000
     27 H9         0.8010   -4.8077   -0.1598 H         1 RES1    0.0000
     28 H10        1.8900   -2.3493   -1.3211 H         1 RES1    0.0000
     29 H11        2.5384   -3.8287   -1.5286 H         1 RES1    0.0000
     30 H12        2.7526   -3.8357    0.9725 H         1 RES1    0.0000
     31 H13        3.7814   -2.8041    0.1370 H         1 RES1    0.0000
@<TRIPOS>BOND
     1    1    2 1
     2    2    3 1
     3    3    9 1
     4    4    5 ar
     5    5    6 ar
     6    6    7 ar
     7    7    8 ar
     8    8    1 1
     9    9    4 ar
    10   10    1 1
    11   11   10 1
    12   12   11 1
    13   13   12 1
    14   14    2 1
    15   15    3 2
    16   16    5 1
    17   17   16 2
    18   18   16 2
    19   19    4 1
    20   20    6 1
    21   21    7 1
    22   22   10 1
    23   23   10 1
    24   24   11 1
    25   25   11 1
    26   26   12 1
    27   27   12 1
    28   28   13 1
    29   29   13 1
    30   30   14 1
    31   31   14 1
    32    8    9 ar
    33   13   14 1
@<TRIPOS>SUBSTRUCTURE
     1 RES1 1

@<TRIPOS>CRYSIN
   7.2465   20.0005    8.3068  90.0000 105.5430  90.0000  14 1

