# MOL2 file generated by ConQuest
# Please check atom types

@<TRIPOS>MOLECULE
FENLUH
    70    60     2
SMALL
NO_CHARGES
****
Generated from CSD

@<TRIPOS>ATOM
      1 O1        12.4667    0.9749   10.4270 O.2       1 RES1    0.0000
      2 O2        12.4628    2.4052    8.8067 O.2       1 RES1    0.0000
      3 O3         9.8822    6.3202    8.8628 O.2       1 RES1    0.0000
      4 O4         8.7637    6.8571   10.6363 O.2       1 RES1    0.0000
      5 N1        11.1813    1.4593   12.6522 N.pl3     1 RES1    0.0000
      6 H1        11.7241    0.8811   12.2705 H         1 RES1    0.0000
      7 N2        10.7126    1.2384   13.9340 N.2       1 RES1    0.0000
      8 N3        12.0927    2.0430    9.9246 N.pl3     1 RES1    0.0000
      9 N4         9.4941    6.0901   10.0055 N.pl3     1 RES1    0.0000
     10 C1        10.7964    2.5650   12.0012 C.ar      1 RES1    0.0000
     11 C2        11.2068    2.8896   10.6812 C.ar      1 RES1    0.0000
     12 C3        10.7766    4.0249   10.0324 C.ar      1 RES1    0.0000
     13 H2        11.0658    4.2106    9.1479 H         1 RES1    0.0000
     14 C4         9.9344    4.8776   10.6744 C.ar      1 RES1    0.0000
     15 C5         9.4812    4.6142   11.9697 C.ar      1 RES1    0.0000
     16 H3         8.8821    5.2121   12.4008 H         1 RES1    0.0000
     17 C6         9.9092    3.4899   12.6028 C.ar      1 RES1    0.0000
     18 H4         9.6001    3.3184   13.4850 H         1 RES1    0.0000
     19 C7        11.0605    0.1216   14.4369 C.2       1 RES1    0.0000
     20 H5        11.6117   -0.4480   13.9138 H         1 RES1    0.0000
     21 C8        10.6548   -0.3573   15.8062 C.3       1 RES1    0.0000
     22 H6         9.8749   -0.9650   15.6603 H         1 RES1    0.0000
     23 C9        10.1387    0.7688   16.6952 C.3       1 RES1    0.0000
     24 H7        10.7803    1.5216   16.6705 H         1 RES1    0.0000
     25 H8         9.2745    1.0940   16.3360 H         1 RES1    0.0000
     26 C10        9.9444    0.3283   18.1387 C.3       1 RES1    0.0000
     27 H9         9.0899   -0.1660   18.2128 H         1 RES1    0.0000
     28 H10        9.8804    1.1310   18.7134 H         1 RES1    0.0000
     29 C11       11.0825   -0.5646   18.6528 C.3       1 RES1    0.0000
     30 C12       11.1327   -1.8036   17.7458 C.3       1 RES1    0.0000
     31 H11       11.7074   -2.5113   18.1319 H         1 RES1    0.0000
     32 H12       10.2274   -2.1701   17.5842 H         1 RES1    0.0000
     33 C13       11.7406   -1.2273   16.4640 C.3       1 RES1    0.0000
     34 H13       12.0383   -1.9566   15.8467 H         1 RES1    0.0000
     35 C14       12.9736   -0.4251   17.0252 C.3       1 RES1    0.0000
     36 C15       12.4147    0.2406   18.3699 C.3       1 RES1    0.0000
     37 H14       12.2269    1.2137   18.2419 H         1 RES1    0.0000
     38 C16       13.2569    0.0000   19.6315 C.3       1 RES1    0.0000
     39 H15       14.1376   -0.3838   19.3936 H         1 RES1    0.0000
     40 H16       13.4043    0.8509   20.1164 H         1 RES1    0.0000
     41 C17       12.4703   -0.9749   20.4958 C.3       1 RES1    0.0000
     42 H17       12.7618   -1.9023   20.3117 H         1 RES1    0.0000
     43 H18       12.6245   -0.7799   21.4544 H         1 RES1    0.0000
     44 C18       11.0270   -0.8182   20.1703 C.3       1 RES1    0.0000
     45 H19       10.7040    0.0216   20.6081 H         1 RES1    0.0000
     46 C19       10.1190   -1.9066   20.5609 C.3       1 RES1    0.0000
     47 H20        9.2047   -1.6814   20.2893 H         1 RES1    0.0000
     48 H21       10.1506   -2.0208   21.5352 H         1 RES1    0.0000
     49 H22       10.3982   -2.7365   20.1254 H         1 RES1    0.0000
     50 C20       14.1385   -1.4272   17.1554 C.3       1 RES1    0.0000
     51 H23       13.8253   -2.2343   17.6156 H         1 RES1    0.0000
     52 H24       14.8644   -1.0181   17.6717 H         1 RES1    0.0000
     53 H25       14.4663   -1.6660   16.2642 H         1 RES1    0.0000
     54 C21       13.4943    0.6948   16.1340 C.3       1 RES1    0.0000
     55 H26       13.7069    0.3350   15.2473 H         1 RES1    0.0000
     56 H27       14.3034    1.0792   16.5336 H         1 RES1    0.0000
     57 H28       12.8102    1.3902   16.0487 H         1 RES1    0.0000
     58 C22       12.5991   -0.4751   18.5630 Du        2 SUP2    0.0000
     59 C23       12.8025    0.8021   19.5530 Du        2 SUP2    0.0000
     60 C24       12.0608    0.3147   20.7046 Du        2 SUP2    0.0000
     61 C25       11.2540   -2.2398   20.7899 Du        2 SUP2    0.0000
     62 H29       13.0072   -1.2859   18.9783 Du        2 SUP2    0.0000
     63 H30       12.4043    1.6302   19.1803 Du        2 SUP2    0.0000
     64 H31       13.7556    0.9607   19.7662 Du        2 SUP2    0.0000
     65 H32       11.5635    1.0557   21.1334 Du        2 SUP2    0.0000
     66 H33       12.6798   -0.0753   21.3713 Du        2 SUP2    0.0000
     67 H34       10.1362   -0.5331   20.4599 Du        2 SUP2    0.0000
     68 H35       10.6335   -2.8803   20.3791 Du        2 SUP2    0.0000
     69 H36       12.1752   -2.5292   20.6238 Du        2 SUP2    0.0000
     70 H37       11.0926   -2.2077   21.7552 Du        2 SUP2    0.0000
@<TRIPOS>BOND
     1    1    8 2
     2    2    8 2
     3    3    9 2
     4    4    9 2
     5    5    6 1
     6    7    5 1
     7    8   11 1
     8    9   14 1
     9   10    5 1
    10   11   10 ar
    11   12   11 ar
    12   13   12 1
    13   14   12 ar
    14   15   14 ar
    15   16   15 1
    16   17   10 ar
    17   18   17 1
    18   19    7 2
    19   20   19 1
    20   21   19 1
    21   22   21 1
    22   23   21 1
    23   24   23 1
    24   25   23 1
    25   26   23 1
    26   27   26 1
    27   28   26 1
    28   29   26 1
    29   30   29 1
    30   31   30 1
    31   32   30 1
    32   33   21 1
    33   34   33 1
    34   35   33 1
    35   36   29 1
    36   37   36 1
    37   38   36 1
    38   39   38 1
    39   40   38 1
    40   41   38 1
    41   42   41 1
    42   43   41 1
    43   44   29 1
    44   45   44 1
    45   46   44 1
    46   47   46 1
    47   48   46 1
    48   49   46 1
    49   50   35 1
    50   51   50 1
    51   52   50 1
    52   53   50 1
    53   54   35 1
    54   55   54 1
    55   56   54 1
    56   57   54 1
    57   15   17 ar
    58   30   33 1
    59   35   36 1
    60   41   44 1
@<TRIPOS>SUBSTRUCTURE
     1 RES1 1
     2 SUP2 58

@<TRIPOS>CRYSIN
  14.5022    6.1703   22.6730  90.0000  98.0630  90.0000 231 1

