# MOL2 file generated by ConQuest
# Please check atom types

@<TRIPOS>MOLECULE
FENPET
    48    50     1
SMALL
NO_CHARGES
****
Generated from CSD

@<TRIPOS>ATOM
      1 O1         8.6258    2.9937    4.4484 O.2       1 RES1    0.0000
      2 O2         5.7097    2.5901    0.5244 O.2       1 RES1    0.0000
      3 O3         3.9549    3.8029    0.3269 O.2       1 RES1    0.0000
      4 O4         3.7445    8.1780    2.2208 O.2       1 RES1    0.0000
      5 O5         4.8195    8.5625    4.0597 O.2       1 RES1    0.0000
      6 N1         7.2800    2.9385    2.6232 N.am      1 RES1    0.0000
      7 N2         5.0161    3.5599    0.8550 N.pl3     1 RES1    0.0000
      8 N3         4.5356    7.8557    3.0999 N.pl3     1 RES1    0.0000
      9 C1         8.9180    1.1726    2.9674 C.ar      1 RES1    0.0000
     10 C2         8.5254    0.4548    1.8719 C.ar      1 RES1    0.0000
     11 C3         9.9811    0.7058    3.7275 C.ar      1 RES1    0.0000
     12 C4         8.2709    2.4426    3.4263 C.2       1 RES1    0.0000
     13 C5         6.5720    4.1281    2.7641 C.ar      1 RES1    0.0000
     14 C6         5.4951    4.4504    1.9185 C.ar      1 RES1    0.0000
     15 C7         4.8121    5.6571    2.0259 C.ar      1 RES1    0.0000
     16 C8         5.2041    6.5416    2.9794 C.ar      1 RES1    0.0000
     17 C9         6.2258    6.2605    3.8496 C.ar      1 RES1    0.0000
     18 C10        6.9090    5.0789    3.7537 C.ar      1 RES1    0.0000
     19 H1         7.0297    2.4596    1.9070 H         1 RES1    0.0000
     20 H2         7.8134    0.6626    1.2940 H         1 RES1    0.0000
     21 H3        10.3378    1.2148    4.5317 H         1 RES1    0.0000
     22 H4         4.1361    5.8930    1.3359 H         1 RES1    0.0000
     23 H5         6.5193    6.9070    4.5632 H         1 RES1    0.0000
     24 H6         7.6693    4.9293    4.3484 H         1 RES1    0.0000
     25 C3B        9.2019   -0.7058    1.5115 C.ar      1 RES1    0.0000
     26 C2B       10.6576   -0.4548    3.3671 C.ar      1 RES1    0.0000
     27 C1B       10.2650   -1.1726    2.2716 C.ar      1 RES1    0.0000
     28 H3B        8.8452   -1.2148    0.7073 H         1 RES1    0.0000
     29 H2B       11.3696   -0.6626    3.9450 H         1 RES1    0.0000
     30 C4B       10.9121   -2.4426    1.8127 C.2       1 RES1    0.0000
     31 O1B       10.5572   -2.9937    0.7906 O.2       1 RES1    0.0000
     32 N1B       11.9030   -2.9385    2.6158 N.am      1 RES1    0.0000
     33 C5B       12.6110   -4.1281    2.4749 C.ar      1 RES1    0.0000
     34 H1B       12.1533   -2.4596    3.3320 H         1 RES1    0.0000
     35 C6B       13.6879   -4.4504    3.3205 C.ar      1 RES1    0.0000
     36 C10B      12.2740   -5.0789    1.4853 C.ar      1 RES1    0.0000
     37 N2B       14.1669   -3.5599    4.3840 N.pl3     1 RES1    0.0000
     38 C7B       14.3709   -5.6571    3.2131 C.ar      1 RES1    0.0000
     39 C9B       12.9572   -6.2605    1.3894 C.ar      1 RES1    0.0000
     40 H6B       11.5137   -4.9293    0.8906 H         1 RES1    0.0000
     41 O2B       13.4733   -2.5901    4.7146 O.2       1 RES1    0.0000
     42 O3B       15.2281   -3.8029    4.9121 O.2       1 RES1    0.0000
     43 C8B       13.9789   -6.5416    2.2596 C.ar      1 RES1    0.0000
     44 H4B       15.0469   -5.8930    3.9031 H         1 RES1    0.0000
     45 H5B       12.6637   -6.9070    0.6758 H         1 RES1    0.0000
     46 N3B       14.6474   -7.8557    2.1391 N.pl3     1 RES1    0.0000
     47 O4B       15.4385   -8.1780    3.0182 O.2       1 RES1    0.0000
     48 O5B       14.3635   -8.5625    1.1793 O.2       1 RES1    0.0000
@<TRIPOS>BOND
     1    1   12 2
     2    2    7 2
     3    3    7 2
     4    4    8 2
     5    5    8 2
     6    6   12 1
     7    7   14 1
     8    8   16 1
     9    9   10 ar
    10   10   20 1
    11   11    9 ar
    12   12    9 1
    13   13    6 1
    14   14   13 ar
    15   15   14 ar
    16   16   15 ar
    17   17   16 ar
    18   18   13 ar
    19   19    6 1
    20   21   11 1
    21   22   15 1
    22   23   17 1
    23   24   18 1
    24   25   10 ar
    25   26   11 ar
    26   27   25 ar
    27   28   25 1
    28   29   26 1
    29   30   27 1
    30   31   30 2
    31   32   30 1
    32   33   32 1
    33   34   32 1
    34   35   33 ar
    35   36   33 ar
    36   37   35 1
    37   38   35 ar
    38   39   36 ar
    39   40   36 1
    40   41   37 2
    41   42   37 2
    42   43   38 ar
    43   44   38 1
    44   45   39 1
    45   46   43 1
    46   47   46 2
    47   48   46 2
    48   17   18 ar
    49   26   27 ar
    50   39   43 ar
@<TRIPOS>SUBSTRUCTURE
     1 RES1 1

