# MOL2 file generated by ConQuest
# Please check atom types

@<TRIPOS>MOLECULE
FENQEV
    30    30     1
SMALL
NO_CHARGES
****
Generated from CSD

@<TRIPOS>ATOM
      1 C1         4.8205    3.1740   10.7448 C.ar      1 RES1    0.0000
      2 N1         3.5100    3.8717   10.7476 N.pl3     1 RES1    0.0000
      3 O1         2.5830    3.3439   11.3309 O.2       1 RES1    0.0000
      4 O2         3.4249    4.9303   10.1522 O.2       1 RES1    0.0000
      5 C2         4.9584    2.0342   11.5204 C.ar      1 RES1    0.0000
      6 H1         4.2517    1.6910   12.0185 H         1 RES1    0.0000
      7 C3         6.2013    1.4381   11.5119 C.ar      1 RES1    0.0000
      8 N2         6.3996    0.2352   12.3542 N.pl3     1 RES1    0.0000
      9 O3         7.5285   -0.2148   12.4427 O.2       1 RES1    0.0000
     10 O4         5.4275   -0.2472   12.9041 O.2       1 RES1    0.0000
     11 C4         7.2540    1.9199   10.7553 C.ar      1 RES1    0.0000
     12 H2         8.0757    1.4847   10.7736 H         1 RES1    0.0000
     13 C5         7.0870    3.0581    9.9644 C.ar      1 RES1    0.0000
     14 C6         5.8375    3.6893    9.9686 C.ar      1 RES1    0.0000
     15 H3         5.6948    4.4501    9.4527 H         1 RES1    0.0000
     16 C7         8.2249    3.5672    9.1849 C.2       1 RES1    0.0000
     17 H4         9.0161    3.0802    9.2392 H         1 RES1    0.0000
     18 C8         8.2494    4.6354    8.4159 C.2       1 RES1    0.0000
     19 H5         7.4774    5.1456    8.3200 H         1 RES1    0.0000
     20 C9         9.4727    5.0394    7.7029 C.2       1 RES1    0.0000
     21 O5        10.5471    4.5092    7.8175 O.2       1 RES1    0.0000
     22 O6         9.2412    6.0672    6.8977 O.3       1 RES1    0.0000
     23 C10       10.3572    6.5428    6.0925 C.3       1 RES1    0.0000
     24 H6        10.9687    7.0434    6.6552 H         1 RES1    0.0000
     25 H7        10.8374    5.7826    5.7306 H         1 RES1    0.0000
     26 C11        9.9229    7.3525    5.0502 C.2       1 RES1    0.0000
     27 H8         9.1496    7.0133    4.6594 H         1 RES1    0.0000
     28 C12       10.2552    8.3230    4.5418 C.2       1 RES1    0.0000
     29 H9        11.0167    8.7662    4.8385 H         1 RES1    0.0000
     30 H10        9.7628    8.6679    3.8307 H         1 RES1    0.0000
@<TRIPOS>BOND
     1    1    2 1
     2    2    3 2
     3    4    2 2
     4    5    1 ar
     5    6    5 1
     6    7    5 ar
     7    8    7 1
     8    9    8 2
     9   10    8 2
    10   11    7 ar
    11   12   11 1
    12   13   11 ar
    13   14    1 ar
    14   15   14 1
    15   16   13 1
    16   17   16 1
    17   18   16 2
    18   19   18 1
    19   20   18 1
    20   21   20 2
    21   22   20 1
    22   23   22 1
    23   24   23 1
    24   25   23 1
    25   26   23 1
    26   27   26 1
    27   28   26 2
    28   29   28 1
    29   30   28 1
    30   13   14 ar
@<TRIPOS>SUBSTRUCTURE
     1 RES1 1

@<TRIPOS>CRYSIN
  12.5110    5.6820   18.5300  90.0000 102.4430  90.0000 231 1

