# MOL2 file generated by ConQuest
# Please check atom types

@<TRIPOS>MOLECULE
FENSUM
    62    63     1
SMALL
NO_CHARGES
****
Generated from CSD

@<TRIPOS>ATOM
      1 C1         4.7331   -0.7912   13.7226 C.3       1 RES1    0.0000
      2 C2         5.4178   -2.1210   13.6432 C.3       1 RES1    0.0000
      3 C3         4.4237   -3.2464   13.4463 C.3       1 RES1    0.0000
      4 C4         3.2230   -3.1635   14.4038 C.3       1 RES1    0.0000
      5 C5         2.6985   -1.7094   14.3895 C.3       1 RES1    0.0000
      6 C6         1.6005   -1.4835   15.4058 C.3       1 RES1    0.0000
      7 C7         5.2222    1.5584   13.7734 C.3       1 RES1    0.0000
      8 O1         5.6538    0.1925   14.0227 O.3       1 RES1    0.0000
      9 O2         6.2969   -2.1905   12.4936 O.3       1 RES1    0.0000
     10 O3         8.0148   -1.6198   13.8370 O.2       1 RES1    0.0000
     11 O4         8.2740   -1.9620   11.7155 O.2       1 RES1    0.0000
     12 O5         5.1806   -4.4532   13.7766 O.3       1 RES1    0.0000
     13 O6         5.8005   -6.4246   13.1875 O.2       1 RES1    0.0000
     14 O7         4.3919   -5.3473   11.8775 O.2       1 RES1    0.0000
     15 O8         2.2009   -3.9761   13.8417 O.3       1 RES1    0.0000
     16 O9         3.7512   -0.8340   14.7405 O.3       1 RES1    0.0000
     17 O10        1.8866   -2.1050   16.6507 O.3       1 RES1    0.0000
     18 O11        2.4417   -0.0708   17.3462 O.2       1 RES1    0.0000
     19 O12        2.5371   -1.7308   18.6483 O.2       1 RES1    0.0000
     20 N1         7.6602   -1.8845   12.7175 N.pl3     1 RES1    0.0000
     21 N2         5.0656   -5.4944   12.7921 N.pl3     1 RES1    0.0000
     22 N3         2.3549   -1.2002   17.6114 N.pl3     1 RES1    0.0000
     23 C8         1.8133   -5.0627   14.5722 C.3       1 RES1    0.0000
     24 C9         0.6493   -5.6895   13.8195 C.3       1 RES1    0.0000
     25 C10        0.2727   -7.0594   14.3451 C.3       1 RES1    0.0000
     26 C11        1.5125   -7.9990   14.5468 C.3       1 RES1    0.0000
     27 C12        2.5628   -7.1556   15.3518 C.3       1 RES1    0.0000
     28 C13        3.8332   -7.9682   15.5821 C.3       1 RES1    0.0000
     29 O13       -0.4976   -4.8488   14.0672 O.3       1 RES1    0.0000
     30 O14       -1.3719   -2.9737   13.4908 O.2       1 RES1    0.0000
     31 O15       -0.3032   -4.1218   11.9553 O.2       1 RES1    0.0000
     32 O16       -0.5661   -7.6114   13.3066 O.3       1 RES1    0.0000
     33 O17       -2.2595   -8.8797   12.8207 O.2       1 RES1    0.0000
     34 O18       -1.7778   -8.7287   14.8834 O.2       1 RES1    0.0000
     35 O19        1.0601   -9.0708   15.3153 O.3       1 RES1    0.0000
     36 O20        2.2999  -10.3512   14.0148 O.2       1 RES1    0.0000
     37 O21        1.0271  -11.1932   15.5614 O.2       1 RES1    0.0000
     38 O22        2.8746   -5.9995   14.5833 O.3       1 RES1    0.0000
     39 O23        4.7245   -7.1129   16.3458 O.3       1 RES1    0.0000
     40 O24        5.4251   -6.6157   18.3117 O.2       1 RES1    0.0000
     41 O25        3.8870   -8.1232   18.0417 O.2       1 RES1    0.0000
     42 N4        -0.7018   -3.8518   12.9811 N.pl3     1 RES1    0.0000
     43 N5        -1.5822   -8.4440   13.7195 N.pl3     1 RES1    0.0000
     44 N6         1.4795  -10.3445   14.9310 N.pl3     1 RES1    0.0000
     45 N7         4.6670   -7.2706   17.7416 N.pl3     1 RES1    0.0000
     46 H1         4.3895   -0.5480   12.8937 H         1 RES1    0.0000
     47 H2         6.0890   -2.2587   14.6563 H         1 RES1    0.0000
     48 H3         4.1083   -3.3412   12.5285 H         1 RES1    0.0000
     49 H4         3.4847   -3.5417   15.4026 H         1 RES1    0.0000
     50 H5         2.2864   -1.7508   13.5448 H         1 RES1    0.0000
     51 H6         1.2716   -0.4410   15.4661 H         1 RES1    0.0000
     52 H7         0.7703   -1.8577   14.9263 H         1 RES1    0.0000
     53 H8         5.7956    2.0315   14.1799 H         1 RES1    0.0000
     54 H9         4.6585    1.8176   13.1319 H         1 RES1    0.0000
     55 H10        4.4139    1.1227   13.5289 H         1 RES1    0.0000
     56 H11        1.3205   -5.1856   15.4820 H         1 RES1    0.0000
     57 H12        0.8926   -5.7737   12.6714 H         1 RES1    0.0000
     58 H13       -0.1956   -7.0968   15.2121 H         1 RES1    0.0000
     59 H14        1.7974   -7.7784   13.6718 H         1 RES1    0.0000
     60 H15        2.0175   -6.8830   16.1966 H         1 RES1    0.0000
     61 H16        3.7904   -9.0080   15.0374 H         1 RES1    0.0000
     62 H17        4.3895   -8.0858   14.7198 H         1 RES1    0.0000
@<TRIPOS>BOND
     1    1    2 1
     2    2    3 1
     3    3    4 1
     4    4    5 1
     5    5    6 1
     6    6   17 1
     7    7    8 1
     8    8    1 1
     9    9    2 1
    10   10   20 2
    11   11   20 2
    12   12    3 1
    13   13   21 2
    14   14   21 2
    15   15    4 1
    16   16    1 1
    17   17   22 1
    18   18   22 2
    19   19   22 2
    20   20    9 1
    21   21   12 1
    22   23   15 1
    23   24   23 1
    24   25   24 1
    25   26   25 1
    26   27   26 1
    27   28   27 1
    28   29   24 1
    29   30   42 2
    30   31   42 2
    31   32   25 1
    32   33   43 2
    33   34   43 2
    34   35   26 1
    35   36   44 2
    36   37   44 2
    37   38   23 1
    38   39   28 1
    39   40   45 2
    40   41   45 2
    41   42   29 1
    42   43   32 1
    43   44   35 1
    44   45   39 1
    45   46    1 1
    46   47    2 1
    47   48    3 1
    48   49    4 1
    49   50    5 1
    50   51    6 1
    51   52    6 1
    52   53    7 1
    53   54    7 1
    54   55    7 1
    55   56   23 1
    56   57   24 1
    57   58   25 1
    58   59   26 1
    59   60   27 1
    60   61   28 1
    61   62   28 1
    62    5   16 1
    63   27   38 1
@<TRIPOS>SUBSTRUCTURE
     1 RES1 1

@<TRIPOS>CRYSIN
  12.2270   13.3650   15.8790  90.0000  90.0000  90.0000  19 1

