# MOL2 file generated by ConQuest
# Please check atom types

@<TRIPOS>MOLECULE
FEPBIN
    24    25     1
SMALL
NO_CHARGES
****
Generated from CSD

@<TRIPOS>ATOM
      1 C1        -0.6117    2.0269   -1.9438 C.ar      1 RES1    0.0000
      2 C2         0.5233    2.0269   -2.7504 C.ar      1 RES1    0.0000
      3 H1         1.3724    2.0269   -2.3707 H         1 RES1    0.0000
      4 C3         0.3698    2.0269   -4.1157 C.ar      1 RES1    0.0000
      5 H2         1.1145    2.0269   -4.6728 H         1 RES1    0.0000
      6 C4        -0.9038    2.0269   -4.6523 C.ar      1 RES1    0.0000
      7 H3        -1.0347    2.0269   -5.5729 H         1 RES1    0.0000
      8 C5        -1.9657    2.0269   -3.7896 C.ar      1 RES1    0.0000
      9 H4        -2.8218    2.0269   -4.1532 H         1 RES1    0.0000
     10 C6        -0.5192    2.0269   -0.4670 C.2       1 RES1    0.0000
     11 C7        -1.7485    2.0269    0.3841 C.ar      1 RES1    0.0000
     12 C8        -2.3099    0.8438    0.8217 C.ar      1 RES1    0.0000
     13 H5        -1.9625    0.0268    0.5437 H         1 RES1    0.0000
     14 C9        -3.3953    0.8886    1.6792 C.ar      1 RES1    0.0000
     15 H6        -3.7610    0.0843    1.9714 H         1 RES1    0.0000
     16 N1        -1.8499    2.0269   -2.4519 N.ar      1 RES1    0.0000
     17 N2        -3.9444    2.0269    2.1072 N.ar      1 RES1    0.0000
     18 N3         0.6614    2.0269    0.0363 N.2       1 RES1    0.0000
     19 O1         0.6493    2.0269    1.4264 O.3       1 RES1    0.0000
     20 H7         1.5534    2.0269    1.6488 H         1 RES1    0.0000
     21 C8F       -2.3099    3.2101    0.8217 C.ar      1 RES1    0.0000
     22 H5F       -1.9625    4.0271    0.5437 H         1 RES1    0.0000
     23 C9F       -3.3953    3.1652    1.6792 C.ar      1 RES1    0.0000
     24 H6F       -3.7610    3.9695    1.9714 H         1 RES1    0.0000
@<TRIPOS>BOND
     1    1    2 ar
     2    2    3 1
     3    4    2 ar
     4    5    4 1
     5    6    4 ar
     6    7    6 1
     7    8    6 ar
     8    9    8 1
     9   10    1 1
    10   11   10 1
    11   12   11 ar
    12   13   12 1
    13   14   12 ar
    14   15   14 1
    15   16    1 ar
    16   17   14 ar
    17   18   10 2
    18   19   18 1
    19   20   19 1
    20   21   11 ar
    21   22   21 1
    22   23   17 ar
    23   24   23 1
    24    8   16 ar
    25   21   23 ar
@<TRIPOS>SUBSTRUCTURE
     1 RES1 1

@<TRIPOS>CRYSIN
  14.2517    8.1077    8.9124  90.0000  90.0000  90.0000  62 1

