# MOL2 file generated by ConQuest
# Please check atom types

@<TRIPOS>MOLECULE
FEPBOT
    24    25     1
SMALL
NO_CHARGES
****
Generated from CSD

@<TRIPOS>ATOM
      1 C1         2.6275    4.3146   -2.3461 C.ar      1 RES1    0.0000
      2 H1         2.1582    3.5117   -2.3231 H         1 RES1    0.0000
      3 C2         2.8210    5.0007   -1.1487 C.ar      1 RES1    0.0000
      4 C3         3.5346    6.1955   -1.1998 C.ar      1 RES1    0.0000
      5 H2         3.6866    6.6840   -0.4231 H         1 RES1    0.0000
      6 C4         4.0160    6.6497   -2.4152 C.ar      1 RES1    0.0000
      7 H3         4.5001    7.4424   -2.4668 H         1 RES1    0.0000
      8 C5         3.7641    5.9041   -3.5506 C.ar      1 RES1    0.0000
      9 H4         4.0819    6.2171   -4.3667 H         1 RES1    0.0000
     10 C6         2.2885    4.4902    0.1448 C.2       1 RES1    0.0000
     11 C7         1.6923    5.4472    1.1219 C.ar      1 RES1    0.0000
     12 C8         1.7325    5.1892    2.4936 C.ar      1 RES1    0.0000
     13 H5         2.1409    4.4200    2.8201 H         1 RES1    0.0000
     14 C9         1.1526    6.1000    3.3551 C.ar      1 RES1    0.0000
     15 H6         1.1696    5.9541    4.2736 H         1 RES1    0.0000
     16 C10        0.5465    7.2313    2.8388 C.ar      1 RES1    0.0000
     17 H7         0.1481    7.8593    3.3970 H         1 RES1    0.0000
     18 C11        0.5513    7.3987    1.4662 C.ar      1 RES1    0.0000
     19 H8         0.1346    8.1539    1.1175 H         1 RES1    0.0000
     20 N1         3.0827    4.7507   -3.5307 N.ar      1 RES1    0.0000
     21 N2         1.1184    6.5415    0.6069 N.ar      1 RES1    0.0000
     22 N3         2.2990    3.2733    0.5643 N.2       1 RES1    0.0000
     23 O1         2.9041    2.3642   -0.3053 O.3       1 RES1    0.0000
     24 H9         2.8569    1.5759    0.2358 H         1 RES1    0.0000
@<TRIPOS>BOND
     1    1    2 1
     2    3    1 ar
     3    4    3 ar
     4    5    4 1
     5    6    4 ar
     6    7    6 1
     7    8    6 ar
     8    9    8 1
     9   10    3 1
    10   11   10 1
    11   12   11 ar
    12   13   12 1
    13   14   12 ar
    14   15   14 1
    15   16   14 ar
    16   17   16 1
    17   18   16 ar
    18   19   18 1
    19   20    1 ar
    20   21   11 ar
    21   22   10 2
    22   23   22 1
    23   24   23 1
    24    8   20 ar
    25   18   21 ar
@<TRIPOS>SUBSTRUCTURE
     1 RES1 1

@<TRIPOS>CRYSIN
   9.1149   10.1937   10.1280  90.0000  91.9285  90.0000  14 1

