# MOL2 file generated by ConQuest
# Please check atom types

@<TRIPOS>MOLECULE
FEPJIT
    33    34     1
SMALL
NO_CHARGES
****
Generated from CSD

@<TRIPOS>ATOM
      1 O1         7.7890    7.9572    8.3870 O.3       1 RES1    0.0000
      2 C1         7.4572    8.5012    7.1397 C.3       1 RES1    0.0000
      3 C2         7.8547    7.5569    6.0454 C.ar      1 RES1    0.0000
      4 C3         8.5951    6.4131    6.2981 C.ar      1 RES1    0.0000
      5 C4         8.9370    5.5864    5.2478 C.ar      1 RES1    0.0000
      6 C5         8.5722    5.8478    3.9483 C.ar      1 RES1    0.0000
      7 C6         7.8301    6.9767    3.7060 C.ar      1 RES1    0.0000
      8 C7         7.4716    7.8229    4.7331 C.ar      1 RES1    0.0000
      9 N1         9.7043    4.3656    5.5353 N.pl3     1 RES1    0.0000
     10 O2        10.0768    4.1657    6.6795 O.2       1 RES1    0.0000
     11 O3         9.9253    3.5979    4.6114 O.2       1 RES1    0.0000
     12 C8         7.5466    8.8461    9.4523 C.3       1 RES1    0.0000
     13 C9         7.5273    8.1010   10.7541 C.ar      1 RES1    0.0000
     14 C10        7.0117    6.8205   10.8202 C.ar      1 RES1    0.0000
     15 C11        6.9266    6.1929   12.0374 C.ar      1 RES1    0.0000
     16 C12        7.3440    6.7840   13.2047 C.ar      1 RES1    0.0000
     17 C13        7.8769    8.0479   13.1352 C.ar      1 RES1    0.0000
     18 C14        7.9805    8.6956   11.9238 C.ar      1 RES1    0.0000
     19 N2         6.3727    4.8330   12.0814 N.pl3     1 RES1    0.0000
     20 O4         6.0879    4.2773   11.0393 O.2       1 RES1    0.0000
     21 O5         6.2011    4.3127   13.1665 O.2       1 RES1    0.0000
     22 H1         6.5104    8.6534    7.1014 H         1 RES1    0.0000
     23 H2         7.9199    9.3349    7.0237 H         1 RES1    0.0000
     24 H3         8.8677    6.1993    7.1941 H         1 RES1    0.0000
     25 H4         8.8275    5.2596    3.2342 H         1 RES1    0.0000
     26 H5         7.5573    7.1797    2.8088 H         1 RES1    0.0000
     27 H6         6.9513    8.6063    4.5418 H         1 RES1    0.0000
     28 H7         8.2417    9.5083    9.4778 H         1 RES1    0.0000
     29 H8         6.6986    9.2768    9.3202 H         1 RES1    0.0000
     30 H9         6.7164    6.3741   10.0227 H         1 RES1    0.0000
     31 H10        7.2658    6.3266   14.0452 H         1 RES1    0.0000
     32 H11        8.1802    8.4830   13.9362 H         1 RES1    0.0000
     33 H12        8.3721    9.5716   11.8878 H         1 RES1    0.0000
@<TRIPOS>BOND
     1    1    2 1
     2    2    3 1
     3    3    4 ar
     4    4    5 ar
     5    5    6 ar
     6    6    7 ar
     7    7    8 ar
     8    8    3 ar
     9    9    5 1
    10   10    9 2
    11   11    9 2
    12   12    1 1
    13   13   12 1
    14   14   13 ar
    15   15   14 ar
    16   16   15 ar
    17   17   16 ar
    18   18   13 ar
    19   19   15 1
    20   20   19 2
    21   21   19 2
    22   22    2 1
    23   23    2 1
    24   24    4 1
    25   25    6 1
    26   26    7 1
    27   27    8 1
    28   28   12 1
    29   29   12 1
    30   30   14 1
    31   31   16 1
    32   32   17 1
    33   33   18 1
    34   17   18 ar
@<TRIPOS>SUBSTRUCTURE
     1 RES1 1

@<TRIPOS>CRYSIN
   7.6440    8.3780   12.3310  71.9600  74.6600  63.8300   2 1

