# MOL2 file generated by ConQuest
# Please check atom types

@<TRIPOS>MOLECULE
FEPLUH
    45    47     1
SMALL
NO_CHARGES
****
Generated from CSD

@<TRIPOS>ATOM
      1 O1         2.4564    4.7589    1.5810 O.2       1 RES1    0.0000
      2 O2         4.5667    5.0681    0.9579 O.3       1 RES1    0.0000
      3 O3         6.5532    4.3847    3.6786 O.2       1 RES1    0.0000
      4 O4         5.4667    2.7549    2.5632 O.3       1 RES1    0.0000
      5 O5         0.9387    6.0598    5.7552 O.3       1 RES1    0.0000
      6 N1         2.0772    6.7363    5.1325 N.2       1 RES1    0.0000
      7 C1         4.1642    4.5617    3.3165 C.3       1 RES1    0.0000
      8 C2         3.6206    4.7773    1.8539 C.2       1 RES1    0.0000
      9 C3         4.1313    5.3990   -0.4552 C.3       1 RES1    0.0000
     10 C4         5.1917    5.8986   -1.1816 C.3       1 RES1    0.0000
     11 C5         5.5569    3.9137    3.2154 C.2       1 RES1    0.0000
     12 C6         6.7324    2.0106    2.4269 C.3       1 RES1    0.0000
     13 C7         6.5637    0.8731    1.9276 C.3       1 RES1    0.0000
     14 C8         3.2022    3.6326    4.1445 C.3       1 RES1    0.0000
     15 C9         2.5888    4.4681    5.3311 C.3       1 RES1    0.0000
     16 C10        2.9697    5.8651    4.9462 C.2       1 RES1    0.0000
     17 C11        4.2398    5.9171    4.1284 C.3       1 RES1    0.0000
     18 C12        1.0923    4.6749    5.4592 C.3       1 RES1    0.0000
     19 C13        4.5337    7.1659    3.2947 C.ar      1 RES1    0.0000
     20 C14        5.8289    7.6388    3.1849 C.ar      1 RES1    0.0000
     21 C15        6.1243    8.7635    2.3878 C.ar      1 RES1    0.0000
     22 C16        5.1226    9.4050    1.6998 C.ar      1 RES1    0.0000
     23 C17        3.8321    8.9663    1.7817 C.ar      1 RES1    0.0000
     24 C18        3.5358    7.8492    2.6012 C.ar      1 RES1    0.0000
     25 H1         3.3463    6.1266   -0.4247 H         1 RES1    0.0000
     26 H2         3.7864    4.4976   -0.9377 H         1 RES1    0.0000
     27 H3         5.9114    5.1255   -1.3684 H         1 RES1    0.0000
     28 H4         5.6611    6.7016   -0.6179 H         1 RES1    0.0000
     29 H5         4.8346    6.2954   -2.1122 H         1 RES1    0.0000
     30 H6         7.2013    1.9387    3.3644 H         1 RES1    0.0000
     31 H7         7.3615    2.5838    1.7310 H         1 RES1    0.0000
     32 H8         5.5400    0.6198    2.1309 H         1 RES1    0.0000
     33 H9         7.2360    0.2185    2.4258 H         1 RES1    0.0000
     34 H10        6.7536    0.9201    0.8814 H         1 RES1    0.0000
     35 H11        2.4138    3.2838    3.4933 H         1 RES1    0.0000
     36 H12        3.7622    2.7963    4.5202 H         1 RES1    0.0000
     37 H13        3.0389    4.1710    6.2708 H         1 RES1    0.0000
     38 H14        5.0653    5.8082    4.8179 H         1 RES1    0.0000
     39 H15        0.6928    4.0736    6.2600 H         1 RES1    0.0000
     40 H16        0.5949    4.4324    4.5361 H         1 RES1    0.0000
     41 H17        6.5531    7.1843    3.6773 H         1 RES1    0.0000
     42 H18        7.0546    9.0771    2.3162 H         1 RES1    0.0000
     43 H19        5.3397   10.1814    1.1541 H         1 RES1    0.0000
     44 H20        3.1232    9.4248    1.2842 H         1 RES1    0.0000
     45 H21        2.6041    7.5579    2.6811 H         1 RES1    0.0000
@<TRIPOS>BOND
     1    1    8 2
     2    2    8 1
     3    3   11 2
     4    4   11 1
     5    5    6 1
     6    6   16 2
     7    7    8 1
     8    9    2 1
     9   10    9 1
    10   11    7 1
    11   12    4 1
    12   13   12 1
    13   14    7 1
    14   15   14 1
    15   16   15 1
    16   17    7 1
    17   18    5 1
    18   19   17 1
    19   20   19 ar
    20   21   20 ar
    21   22   21 ar
    22   23   22 ar
    23   24   19 ar
    24   25    9 1
    25   26    9 1
    26   27   10 1
    27   28   10 1
    28   29   10 1
    29   30   12 1
    30   31   12 1
    31   32   13 1
    32   33   13 1
    33   34   13 1
    34   35   14 1
    35   36   14 1
    36   37   15 1
    37   38   17 1
    38   39   18 1
    39   40   18 1
    40   41   20 1
    41   42   21 1
    42   43   22 1
    43   44   23 1
    44   45   24 1
    45   15   18 1
    46   16   17 1
    47   23   24 ar
@<TRIPOS>SUBSTRUCTURE
     1 RES1 1

@<TRIPOS>CRYSIN
  14.0750   12.1786   21.8800  90.0000 100.8040  90.0000  15 1

