# MOL2 file generated by ConQuest
# Please check atom types

@<TRIPOS>MOLECULE
FEPXUV
    57    60     1
SMALL
NO_CHARGES
****
Generated from CSD

@<TRIPOS>ATOM
      1 C1         2.6903    8.2517    5.9355 C.ar      1 RES1    0.0000
      2 C2         2.3666    6.9378    6.0746 C.ar      1 RES1    0.0000
      3 H1         2.7577    6.2835    5.5416 H         1 RES1    0.0000
      4 C3         1.4454    6.6211    7.0276 C.ar      1 RES1    0.0000
      5 C4         0.8555    5.3280    7.4578 C.3       1 RES1    0.0000
      6 C5        -0.2185    5.7850    8.4659 C.2       1 RES1    0.0000
      7 C6         0.8752    7.6337    7.7938 C.ar      1 RES1    0.0000
      8 C7         1.1994    8.9216    7.6505 C.ar      1 RES1    0.0000
      9 H2         0.8074    9.5794    8.1762 H         1 RES1    0.0000
     10 C8         2.1455    9.2401    6.6829 C.ar      1 RES1    0.0000
     11 H3         2.4012   10.1246    6.5511 H         1 RES1    0.0000
     12 C9        -0.8002    7.8293    9.6739 C.3       1 RES1    0.0000
     13 H4        -1.4045    7.2356   10.1258 H         1 RES1    0.0000
     14 H5        -1.2984    8.5321    9.2509 H         1 RES1    0.0000
     15 H6        -0.1897    8.2084   10.3112 H         1 RES1    0.0000
     16 C10        1.8524    4.3379    8.1835 C.3       1 RES1    0.0000
     17 C11        1.5240    2.9687    7.5766 C.2       1 RES1    0.0000
     18 C12        0.6287    3.2075    6.4801 C.2       1 RES1    0.0000
     19 H7         0.3451    2.5480    5.8892 H         1 RES1    0.0000
     20 C13        0.2555    4.4660    6.4077 C.2       1 RES1    0.0000
     21 C14       -0.7585    5.0355    5.5068 C.2       1 RES1    0.0000
     22 C15       -2.3174    4.5802    3.8267 C.3       1 RES1    0.0000
     23 H8        -2.1337    4.2617    2.9287 H         1 RES1    0.0000
     24 H9        -2.3442    5.5496    3.8122 H         1 RES1    0.0000
     25 C16       -3.6437    4.0125    4.3394 C.3       1 RES1    0.0000
     26 H10       -3.8324    3.1850    3.8919 H         1 RES1    0.0000
     27 H11       -4.3495    4.6391    4.1627 H         1 RES1    0.0000
     28 H12       -3.5821    3.8584    5.2852 H         1 RES1    0.0000
     29 C17        3.2648    4.6425    7.8301 C.1       1 RES1    0.0000
     30 C18        1.7176    4.3050    9.6159 C.1       1 RES1    0.0000
     31 C19        1.7175    0.6872    7.4810 C.ar      1 RES1    0.0000
     32 C20        2.3492    0.3185    6.2861 C.ar      1 RES1    0.0000
     33 C21        2.1207   -0.9192    5.8139 C.ar      1 RES1    0.0000
     34 H13        2.5324   -1.1857    5.0231 H         1 RES1    0.0000
     35 C22        1.2965   -1.7933    6.4671 C.ar      1 RES1    0.0000
     36 H14        1.1589   -2.6484    6.1253 H         1 RES1    0.0000
     37 C23        0.6845   -1.4125    7.6070 C.ar      1 RES1    0.0000
     38 H15        0.1132   -2.0097    8.0343 H         1 RES1    0.0000
     39 C24        0.8769   -0.1869    8.1502 C.ar      1 RES1    0.0000
     40 C25        3.2762    1.2619    5.5937 C.3       1 RES1    0.0000
     41 H16        3.8326    0.7738    4.9825 H         1 RES1    0.0000
     42 H17        3.8256    1.7050    6.2441 H         1 RES1    0.0000
     43 H18        2.7651    1.9145    5.1085 H         1 RES1    0.0000
     44 C26        0.2456    0.2250    9.4291 C.3       1 RES1    0.0000
     45 H19       -0.2096   -0.5262    9.8173 H         1 RES1    0.0000
     46 H20       -0.3832    0.9313    9.2625 H         1 RES1    0.0000
     47 H21        0.9225    0.5366   10.0345 H         1 RES1    0.0000
     48 N1         3.7204    8.6100    4.9767 N.pl3     1 RES1    0.0000
     49 N2        -0.0595    7.0936    8.6745 N.am      1 RES1    0.0000
     50 N3         4.3317    4.8174    7.5780 N.1       1 RES1    0.0000
     51 N4         1.6060    4.2686   10.7500 N.1       1 RES1    0.0000
     52 N5         2.0031    1.9439    8.0719 N.2       1 RES1    0.0000
     53 O1         4.0316    9.7680    4.8594 O.2       1 RES1    0.0000
     54 O2         4.2501    7.7289    4.3655 O.2       1 RES1    0.0000
     55 O3        -1.0144    5.0563    8.9844 O.2       1 RES1    0.0000
     56 O4        -1.3021    4.1111    4.7537 O.3       1 RES1    0.0000
     57 O5        -1.0533    6.1710    5.5285 O.2       1 RES1    0.0000
@<TRIPOS>BOND
     1    1    2 ar
     2    2    3 1
     3    4    2 ar
     4    5    4 1
     5    6    5 1
     6    7    4 ar
     7    8    7 ar
     8    9    8 1
     9   10    1 ar
    10   11   10 1
    11   12   13 1
    12   14   12 1
    13   15   12 1
    14   16    5 1
    15   17   16 1
    16   18   17 1
    17   19   18 1
    18   20    5 1
    19   21   20 1
    20   22   23 1
    21   24   22 1
    22   25   22 1
    23   26   25 1
    24   27   25 1
    25   28   25 1
    26   29   16 1
    27   30   16 1
    28   31   32 ar
    29   32   33 ar
    30   33   34 1
    31   35   33 ar
    32   36   35 1
    33   37   35 ar
    34   38   37 1
    35   39   31 ar
    36   40   32 1
    37   41   40 1
    38   42   40 1
    39   43   40 1
    40   44   39 1
    41   45   44 1
    42   46   44 1
    43   47   44 1
    44   48    1 1
    45   49    6 1
    46   50   29 3
    47   51   30 3
    48   52   17 2
    49   53   48 2
    50   54   48 2
    51   55    6 2
    52   56   21 1
    53   57   21 2
    54    7   49 1
    55    8   10 ar
    56   12   49 1
    57   18   20 2
    58   22   56 1
    59   31   52 1
    60   37   39 ar
@<TRIPOS>SUBSTRUCTURE
     1 RES1 1

@<TRIPOS>CRYSIN
   9.5700   17.3100   14.6100  90.0000  97.5300  90.0000  14 1

