# MOL2 file generated by ConQuest
# Please check atom types

@<TRIPOS>MOLECULE
FEQCEL
    54    57     1
SMALL
NO_CHARGES
****
Generated from CSD

@<TRIPOS>ATOM
      1 C1         3.1849    9.9430   17.0573 C.3       1 RES1    0.0000
      2 H1         2.6990   10.5142   17.6881 H         1 RES1    0.0000
      3 C2         2.2653    9.6223   15.8502 C.3       1 RES1    0.0000
      4 H2         2.6122    8.8116   15.4224 H         1 RES1    0.0000
      5 N1         0.0948    8.7575   15.0602 N.pl3     1 RES1    0.0000
      6 O1        -0.9202    9.3156   14.6705 O.2       1 RES1    0.0000
      7 C3         4.3611   10.7482   16.4450 C.3       1 RES1    0.0000
      8 H3         5.0464   10.1197   16.1372 H         1 RES1    0.0000
      9 O2         0.5708    7.7594   14.5672 O.2       1 RES1    0.0000
     10 O3         4.1034    7.7789   17.1115 O.2       1 RES1    0.0000
     11 C4         3.7170   11.4028   15.2339 C.ar      1 RES1    0.0000
     12 O4         6.0105   10.0471   18.6409 O.2       1 RES1    0.0000
     13 C5         4.1818   12.4432   14.4804 C.ar      1 RES1    0.0000
     14 H4         4.9817   12.8615   14.7032 H         1 RES1    0.0000
     15 C6         3.4554   12.8701   13.3848 C.ar      1 RES1    0.0000
     16 H5         3.7651   13.5811   12.8708 H         1 RES1    0.0000
     17 C7         2.2815   12.2492   13.0557 C.ar      1 RES1    0.0000
     18 H6         1.8046   12.5353   12.3097 H         1 RES1    0.0000
     19 C8         1.7945   11.2023   13.8149 C.ar      1 RES1    0.0000
     20 H7         0.9918   10.7905   13.5921 H         1 RES1    0.0000
     21 C9         2.5215   10.7753   14.9147 C.ar      1 RES1    0.0000
     22 C10        0.8290    9.3383   16.2732 C.3       1 RES1    0.0000
     23 H8         0.8629    8.6339   16.9538 H         1 RES1    0.0000
     24 C11        0.0525   10.4394   16.8338 C.3       1 RES1    0.0000
     25 H9         0.0236   11.1633   16.2043 H         1 RES1    0.0000
     26 H10        0.4649   10.7406   17.6469 H         1 RES1    0.0000
     27 H11       -0.8397   10.1403   17.0188 H         1 RES1    0.0000
     28 C12        3.6099    8.6773   17.7602 C.2       1 RES1    0.0000
     29 C13        3.4132    8.4920   19.2214 C.ar      1 RES1    0.0000
     30 C14        2.7565    9.3914   20.0253 C.ar      1 RES1    0.0000
     31 H12        2.4301   10.1782   19.6527 H         1 RES1    0.0000
     32 C15        2.5679    9.1606   21.3747 C.ar      1 RES1    0.0000
     33 H13        2.1166    9.7859   21.8946 H         1 RES1    0.0000
     34 C16        3.0393    8.0227   21.9401 C.ar      1 RES1    0.0000
     35 H14        2.8909    7.8526   22.8433 H         1 RES1    0.0000
     36 C17        3.7325    7.1308   21.1776 C.ar      1 RES1    0.0000
     37 H15        4.0938    6.3711   21.5740 H         1 RES1    0.0000
     38 C18        3.9078    7.3411   19.8217 C.ar      1 RES1    0.0000
     39 H16        4.3576    6.7082   19.3105 H         1 RES1    0.0000
     40 C19        5.0148   11.7745   17.3580 C.3       1 RES1    0.0000
     41 H17        5.5346   12.3825   16.8087 H         1 RES1    0.0000
     42 H18        4.3129   12.2947   17.7812 H         1 RES1    0.0000
     43 C20        5.9093   11.2327   18.4326 C.2       1 RES1    0.0000
     44 C21        6.6819   12.2167   19.2405 C.ar      1 RES1    0.0000
     45 C22        7.7140   11.7713   20.0651 C.ar      1 RES1    0.0000
     46 H19        7.9009   10.8620   20.1184 H         1 RES1    0.0000
     47 C23        8.4594   12.6621   20.8007 C.ar      1 RES1    0.0000
     48 H20        9.1563   12.3500   21.3314 H         1 RES1    0.0000
     49 C24        8.1924   13.9788   20.7609 C.ar      1 RES1    0.0000
     50 H21        8.6965   14.5716   21.2708 H         1 RES1    0.0000
     51 C25        7.1746   14.4502   19.9674 C.ar      1 RES1    0.0000
     52 H22        6.9899   15.3605   19.9365 H         1 RES1    0.0000
     53 C26        6.4301   13.5659   19.2173 C.ar      1 RES1    0.0000
     54 H23        5.7408   13.8910   18.6823 H         1 RES1    0.0000
@<TRIPOS>BOND
     1    1    2 1
     2    3    1 1
     3    4    3 1
     4    5    6 2
     5    7    1 1
     6    8    7 1
     7    9    5 2
     8   10   28 2
     9   11    7 1
    10   12   43 2
    11   13   11 ar
    12   14   13 1
    13   15   13 ar
    14   16   15 1
    15   17   15 ar
    16   18   17 1
    17   19   17 ar
    18   20   19 1
    19   21    3 1
    20   22    3 1
    21   23   22 1
    22   24   22 1
    23   25   24 1
    24   26   24 1
    25   27   24 1
    26   28    1 1
    27   29   28 1
    28   30   29 ar
    29   31   30 1
    30   32   30 ar
    31   33   32 1
    32   34   32 ar
    33   35   34 1
    34   36   34 ar
    35   37   36 1
    36   38   29 ar
    37   39   38 1
    38   40    7 1
    39   41   40 1
    40   42   40 1
    41   43   40 1
    42   44   43 1
    43   45   44 ar
    44   46   45 1
    45   47   45 ar
    46   48   47 1
    47   49   47 ar
    48   50   49 1
    49   51   49 ar
    50   52   51 1
    51   53   44 ar
    52   54   53 1
    53    5   22 1
    54   11   21 ar
    55   19   21 ar
    56   36   38 ar
    57   51   53 ar
@<TRIPOS>SUBSTRUCTURE
     1 RES1 1

@<TRIPOS>CRYSIN
   9.1112   10.8371   21.7070  90.0000  93.7450  90.0000 231 1

