# MOL2 file generated by ConQuest
# Please check atom types

@<TRIPOS>MOLECULE
FEQCAH
    54    57     1
SMALL
NO_CHARGES
****
Generated from CSD

@<TRIPOS>ATOM
      1 C1        10.8446   10.1169    1.0242 C.3       1 RES1    0.0000
      2 H1        10.7925   11.0437    0.7082 H         1 RES1    0.0000
      3 N1        10.7544    9.4180   -1.3278 N.pl3     1 RES1    0.0000
      4 O1        11.0754    8.4024   -1.9224 O.2       1 RES1    0.0000
      5 C2        10.1921   10.0077    2.4407 C.3       1 RES1    0.0000
      6 H2         9.9575    9.0723    2.6126 H         1 RES1    0.0000
      7 O2        10.8951   10.5022   -1.7630 O.2       1 RES1    0.0000
      8 C3        11.3311   10.4294    3.4054 C.3       1 RES1    0.0000
      9 H3        11.3638   11.4087    3.4456 H         1 RES1    0.0000
     10 O3         8.9287   11.9951    2.1400 O.2       1 RES1    0.0000
     11 C4        12.5674    9.9307    2.6930 C.ar      1 RES1    0.0000
     12 O4         9.9165   11.8046    5.3970 O.2       1 RES1    0.0000
     13 C5        13.8237    9.7188    3.1850 C.ar      1 RES1    0.0000
     14 H4        14.0045    9.8729    4.0845 H         1 RES1    0.0000
     15 C6        14.8214    9.2768    2.3479 C.ar      1 RES1    0.0000
     16 H5        15.6789    9.1301    2.6791 H         1 RES1    0.0000
     17 C7        14.5442    9.0520    1.0104 C.ar      1 RES1    0.0000
     18 H6        15.2029    8.6956    0.4574 H         1 RES1    0.0000
     19 C8        13.3085    9.3495    0.4906 C.ar      1 RES1    0.0000
     20 H7        13.1629    9.2714   -0.4241 H         1 RES1    0.0000
     21 C9        12.2700    9.7658    1.3208 C.ar      1 RES1    0.0000
     22 C10       10.1388    9.1954    0.0291 C.3       1 RES1    0.0000
     23 H8        10.2561    8.2611    0.2994 H         1 RES1    0.0000
     24 C11        8.6508    9.4983   -0.1649 C.3       1 RES1    0.0000
     25 H9         8.2729    8.8647   -0.7803 H         1 RES1    0.0000
     26 H10        8.5489   10.3855   -0.5170 H         1 RES1    0.0000
     27 H11        8.1987    9.4341    0.6791 H         1 RES1    0.0000
     28 C12        8.9588   10.8757    2.6486 C.2       1 RES1    0.0000
     29 C13        7.8043   10.4123    3.4650 C.ar      1 RES1    0.0000
     30 C14        6.8351   11.3070    3.8419 C.ar      1 RES1    0.0000
     31 H12        6.8929   12.1888    3.5537 H         1 RES1    0.0000
     32 C15        5.7836   10.9303    4.6333 C.ar      1 RES1    0.0000
     33 H13        5.1491   11.5606    4.8870 H         1 RES1    0.0000
     34 C16        5.6608    9.6353    5.0533 C.ar      1 RES1    0.0000
     35 H14        4.9317    9.3806    5.5716 H         1 RES1    0.0000
     36 C17        6.6157    8.7095    4.7068 C.ar      1 RES1    0.0000
     37 H15        6.5372    7.8277    4.9923 H         1 RES1    0.0000
     38 C18        7.7122    9.1066    3.9182 C.ar      1 RES1    0.0000
     39 H16        8.3749    8.4923    3.7006 H         1 RES1    0.0000
     40 C19       11.1765    9.8793    4.8301 C.3       1 RES1    0.0000
     41 H17       12.0464    9.8697    5.2584 H         1 RES1    0.0000
     42 H18       10.8621    8.9632    4.7789 H         1 RES1    0.0000
     43 C20       10.2112   10.6862    5.6950 C.2       1 RES1    0.0000
     44 C21        9.6475    9.9938    6.9119 C.ar      1 RES1    0.0000
     45 C22        8.5198   10.5567    7.4995 C.ar      1 RES1    0.0000
     46 H19        8.1215   11.3188    7.1461 H         1 RES1    0.0000
     47 C23        7.9955    9.9242    8.6624 C.ar      1 RES1    0.0000
     48 H20        7.2318   10.2656    9.0685 H         1 RES1    0.0000
     49 C24        8.5942    8.8401    9.1780 C.ar      1 RES1    0.0000
     50 H21        8.2573    8.4634    9.9597 H         1 RES1    0.0000
     51 C25        9.6812    8.2772    8.5875 C.ar      1 RES1    0.0000
     52 H22       10.0689    7.5066    8.9340 H         1 RES1    0.0000
     53 C26       10.2005    8.8915    7.4400 C.ar      1 RES1    0.0000
     54 H23       10.9503    8.5233    7.0325 H         1 RES1    0.0000
@<TRIPOS>BOND
     1    1    2 1
     2    3    4 2
     3    5    1 1
     4    6    5 1
     5    7    3 2
     6    8    5 1
     7    9    8 1
     8   10   28 2
     9   11    8 1
    10   12   43 2
    11   13   11 ar
    12   14   13 1
    13   15   13 ar
    14   16   15 1
    15   17   15 ar
    16   18   17 1
    17   19   17 ar
    18   20   19 1
    19   21    1 1
    20   22    1 1
    21   23   22 1
    22   24   22 1
    23   25   24 1
    24   26   24 1
    25   27   24 1
    26   28    5 1
    27   29   28 1
    28   30   29 ar
    29   31   30 1
    30   32   30 ar
    31   33   32 1
    32   34   32 ar
    33   35   34 1
    34   36   34 ar
    35   37   36 1
    36   38   29 ar
    37   39   38 1
    38   40    8 1
    39   41   40 1
    40   42   40 1
    41   43   40 1
    42   44   43 1
    43   45   44 ar
    44   46   45 1
    45   47   45 ar
    46   48   47 1
    47   49   47 ar
    48   50   49 1
    49   51   49 ar
    50   52   51 1
    51   53   44 ar
    52   54   53 1
    53    3   22 1
    54   11   21 ar
    55   19   21 ar
    56   36   38 ar
    57   51   53 ar
@<TRIPOS>SUBSTRUCTURE
     1 RES1 1

@<TRIPOS>CRYSIN
  14.3440   10.7023   14.5950  90.0000 108.2630  90.0000 231 1

