# MOL2 file generated by ConQuest
# Please check atom types

@<TRIPOS>MOLECULE
FEQMAR
    48    51     1
SMALL
NO_CHARGES
****
Generated from CSD

@<TRIPOS>ATOM
      1 O1         2.0434    0.3736    6.8912 O.2       1 RES1    0.0000
      2 O2         3.4510    0.0737    8.6023 O.3       1 RES1    0.0000
      3 O3        -3.5581    7.7020    2.8029 O.2       1 RES1    0.0000
      4 O4        -3.6031    5.8317    1.7463 O.2       1 RES1    0.0000
      5 O5         0.8152    5.2269    7.4163 O.3       1 RES1    0.0000
      6 N1        -3.2193    6.5396    2.6614 N.pl3     1 RES1    0.0000
      7 C1        -0.8336    5.2231    9.8643 C.ar      1 RES1    0.0000
      8 H1        -0.6339    6.0124    9.4153 H         1 RES1    0.0000
      9 C2        -2.1287    4.9857   10.2653 C.ar      1 RES1    0.0000
     10 H2        -2.7953    5.6052   10.0744 H         1 RES1    0.0000
     11 C3        -2.4355    3.8296   10.9489 C.ar      1 RES1    0.0000
     12 H3        -3.3077    3.6716   11.2318 H         1 RES1    0.0000
     13 C4        -1.4484    2.9167   11.2087 C.ar      1 RES1    0.0000
     14 H4        -1.6535    2.1355   11.6704 H         1 RES1    0.0000
     15 C5        -0.1505    3.1460   10.7897 C.ar      1 RES1    0.0000
     16 H5         0.5075    2.5115   10.9630 H         1 RES1    0.0000
     17 C6         0.1818    4.3075   10.1165 C.ar      1 RES1    0.0000
     18 C7         1.6153    4.6129    9.6886 C.3       1 RES1    0.0000
     19 H6         1.8345    5.5164    9.9979 H         1 RES1    0.0000
     20 C8         2.6095    3.6541   10.3140 C.2       1 RES1    0.0000
     21 H7         2.9377    3.8379   11.1643 H         1 RES1    0.0000
     22 C9         3.0282    2.5592    9.6867 C.2       1 RES1    0.0000
     23 H8         3.6601    2.0147   10.0980 H         1 RES1    0.0000
     24 C10        2.5190    2.1887    8.3632 C.2       1 RES1    0.0000
     25 C11        1.8410    3.1402    7.6672 C.2       1 RES1    0.0000
     26 C12        1.8706    4.5596    8.1756 C.3       1 RES1    0.0000
     27 C13        0.4328    4.3674    6.4310 C.2       1 RES1    0.0000
     28 C14        1.0037    3.1475    6.5176 C.2       1 RES1    0.0000
     29 H9         0.8727    2.4380    5.9308 H         1 RES1    0.0000
     30 C15       -0.5307    4.9073    5.4719 C.ar      1 RES1    0.0000
     31 C16       -1.0071    6.2023    5.6166 C.ar      1 RES1    0.0000
     32 H10       -0.7332    6.7135    6.3436 H         1 RES1    0.0000
     33 C17       -1.8811    6.7429    4.6961 C.ar      1 RES1    0.0000
     34 H11       -2.1856    7.6175    4.7858 H         1 RES1    0.0000
     35 C18       -2.2928    5.9594    3.6423 C.ar      1 RES1    0.0000
     36 C19       -1.8540    4.6677    3.4740 C.ar      1 RES1    0.0000
     37 H12       -2.1506    4.1551    2.7568 H         1 RES1    0.0000
     38 C20       -0.9662    4.1478    4.3898 C.ar      1 RES1    0.0000
     39 H13       -0.6539    3.2780    4.2842 H         1 RES1    0.0000
     40 C21        2.6194    0.8168    7.8564 C.2       1 RES1    0.0000
     41 C22        3.5938   -1.2971    8.2030 C.3       1 RES1    0.0000
     42 H14        4.2029   -1.7420    8.7967 H         1 RES1    0.0000
     43 H15        3.9349   -1.3354    7.3064 H         1 RES1    0.0000
     44 H16        2.7382   -1.7317    8.2388 H         1 RES1    0.0000
     45 C23        3.1797    5.2546    7.8032 C.3       1 RES1    0.0000
     46 H17        3.3093    5.2047    6.8531 H         1 RES1    0.0000
     47 H18        3.9109    4.8207    8.2489 H         1 RES1    0.0000
     48 H19        3.1417    6.1754    8.0735 H         1 RES1    0.0000
@<TRIPOS>BOND
     1    1   40 2
     2    2   40 1
     3    3    6 2
     4    4    6 2
     5    5   26 1
     6    6   35 1
     7    7    8 1
     8    9    7 ar
     9   10    9 1
    10   11    9 ar
    11   12   11 1
    12   13   11 ar
    13   14   13 1
    14   15   13 ar
    15   16   15 1
    16   17    7 ar
    17   18   17 1
    18   19   18 1
    19   20   18 1
    20   21   20 1
    21   22   20 2
    22   23   22 1
    23   24   22 1
    24   25   24 2
    25   26   18 1
    26   27    5 1
    27   28   25 1
    28   29   28 1
    29   30   27 1
    30   31   30 ar
    31   32   31 1
    32   33   31 ar
    33   34   33 1
    34   35   33 ar
    35   36   35 ar
    36   37   36 1
    37   38   30 ar
    38   39   38 1
    39   40   24 1
    40   41    2 1
    41   42   41 1
    42   43   41 1
    43   44   41 1
    44   45   26 1
    45   46   45 1
    46   47   45 1
    47   48   45 1
    48   15   17 ar
    49   25   26 1
    50   27   28 2
    51   36   38 ar
@<TRIPOS>SUBSTRUCTURE
     1 RES1 1

@<TRIPOS>CRYSIN
   8.7287   10.0945   11.9230 106.8600  94.5690 105.1710   2 1

