# MOL2 file generated by ConQuest
# Please check atom types

@<TRIPOS>MOLECULE
FERFOZ
    14    15     1
SMALL
NO_CHARGES
****
Generated from CSD

@<TRIPOS>ATOM
      1 O1         3.4565    2.9204    2.4283 O.3       1 RES1    0.0000
      2 H1         3.4692    2.1715    3.1922 H         1 RES1    0.0000
      3 N1         5.4628    3.0890    1.2979 N.2       1 RES1    0.0000
      4 N2         4.3235    2.4624    1.5172 N.pl3     1 RES1    0.0000
      5 N3         4.0767    1.4201    0.7591 N.2       1 RES1    0.0000
      6 N4         5.1365    1.3299   -0.0308 N.2       1 RES1    0.0000
      7 C1         5.9487    2.3450    0.3139 C.2       1 RES1    0.0000
      8 O1B        9.7239    2.0362   -2.4283 O.3       1 RES1    0.0000
      9 H1B        9.7112    2.7851   -3.1922 H         1 RES1    0.0000
     10 N1B        7.7176    1.8676   -1.2979 N.2       1 RES1    0.0000
     11 N2B        8.8569    2.4942   -1.5172 N.pl3     1 RES1    0.0000
     12 N3B        9.1037    3.5365   -0.7591 N.2       1 RES1    0.0000
     13 N4B        8.0439    3.6267    0.0308 N.2       1 RES1    0.0000
     14 C1B        7.2317    2.6116   -0.3139 C.2       1 RES1    0.0000
@<TRIPOS>BOND
     1    1    2 1
     2    3    4 1
     3    4    1 1
     4    5    4 1
     5    6    5 2
     6    7    3 2
     7    8    9 1
     8   10   11 1
     9   11    8 1
    10   12   11 1
    11   13   12 2
    12   14    7 1
    13    6    7 1
    14   10   14 2
    15   13   14 1
@<TRIPOS>SUBSTRUCTURE
     1 RES1 1

@<TRIPOS>CRYSIN
   6.5902    4.9566    9.4983  90.0000 111.1690  90.0000  14 1

