# MOL2 file generated by ConQuest
# Please check atom types

@<TRIPOS>MOLECULE
FESNEW02
    24    20     2
SMALL
NO_CHARGES
****
Generated from CSD

@<TRIPOS>ATOM
      1 C1         1.3169    4.1986    8.9069 C.ar      1 RES1    0.0000
      2 C2         1.8168    3.3023    7.9514 C.ar      1 RES1    0.0000
      3 C3         2.3509    2.0926    8.3038 C.ar      1 RES1    0.0000
      4 H1         2.6865    1.5149    7.6569 H         1 RES1    0.0000
      5 C4         2.3805    1.7487    9.6330 C.ar      1 RES1    0.0000
      6 C5         1.8987    2.5990   10.6015 C.ar      1 RES1    0.0000
      7 H2         1.9290    2.3514   11.4976 H         1 RES1    0.0000
      8 C6         1.3739    3.8135   10.2404 C.ar      1 RES1    0.0000
      9 H3         1.0517    4.3878   10.8969 H         1 RES1    0.0000
     10 C7         0.3230    6.3012    9.4673 C.3       1 RES1    0.0000
     11 H4        -0.0061    7.0901    9.0298 H         1 RES1    0.0000
     12 H5         1.0283    6.5425   10.0722 H         1 RES1    0.0000
     13 H6        -0.3905    5.8848    9.9564 H         1 RES1    0.0000
     14 N1         1.7965    3.6145    6.5157 N.pl3     1 RES1    0.0000
     15 N2         2.9639    0.4662   10.0137 N.pl3     1 RES1    0.0000
     16 O1         0.8285    5.3829    8.4839 O.3       1 RES1    0.0000
     17 O2         1.9699    2.6762    5.6724 O.2       1 RES1    0.0000
     18 O3         1.6681    4.7180    6.0693 O.2       1 RES1    0.0000
     19 O4         3.1464   -0.4073    9.0761 O.2       1 RES1    0.0000
     20 O5         2.8311    0.0550   11.1919 O.2       1 RES1    0.0000
     21 O6         2.7507    3.2912    5.9241 Du        2 SUP2    0.0000
     22 O7         0.8075    4.2282    6.1635 Du        2 SUP2    0.0000
     23 O8         3.1378    0.2931   11.1718 Du        2 SUP2    0.0000
     24 O9         3.6491   -0.0894    9.2444 Du        2 SUP2    0.0000
@<TRIPOS>BOND
     1    1    2 ar
     2    2    3 ar
     3    3    4 1
     4    5    3 ar
     5    6    5 ar
     6    7    6 1
     7    8    1 ar
     8    9    8 1
     9   10   11 1
    10   12   10 1
    11   13   10 1
    12   14    2 1
    13   15    5 1
    14   16    1 1
    15   17   14 2
    16   18   14 2
    17   19   15 2
    18   20   15 2
    19    6    8 ar
    20   10   16 1
@<TRIPOS>SUBSTRUCTURE
     1 RES1 1
     2 SUP2 21

@<TRIPOS>CRYSIN
   3.9793   13.7592   15.4453  90.0000  90.8870  90.0000 231 1

