# MOL2 file generated by ConQuest
# Please check atom types

@<TRIPOS>MOLECULE
FESNEW12
    24    20     2
SMALL
NO_CHARGES
****
Generated from CSD

@<TRIPOS>ATOM
      1 C1         4.3725    4.2009    6.5528 C.ar      1 RES1    0.0000
      2 C2         3.8705    3.2989    7.5104 C.ar      1 RES1    0.0000
      3 C3         3.3421    2.0842    7.1551 C.ar      1 RES1    0.0000
      4 H1         2.9702    1.5174    7.7723 H         1 RES1    0.0000
      5 C4         3.3168    1.7359    5.8183 C.ar      1 RES1    0.0000
      6 C5         3.8063    2.5913    4.8471 C.ar      1 RES1    0.0000
      7 H2         3.7492    2.3133    3.8885 H         1 RES1    0.0000
      8 C6         4.3267    3.8039    5.2120 C.ar      1 RES1    0.0000
      9 H3         4.6198    4.3640    4.5675 H         1 RES1    0.0000
     10 C7         5.3712    6.2982    5.9931 C.3       1 RES1    0.0000
     11 H4         6.0933    5.8622    5.4151 H         1 RES1    0.0000
     12 H5         5.7201    7.0264    6.5024 H         1 RES1    0.0000
     13 H6         4.6643    6.5509    5.3501 H         1 RES1    0.0000
     14 N1         3.8782    3.6181    8.9430 N.pl3     1 RES1    0.0000
     15 N2         2.7444    0.4591    5.4344 N.pl3     1 RES1    0.0000
     16 O1         4.8545    5.3754    6.9740 O.3       1 RES1    0.0000
     17 O2         4.8546    4.2280    9.3035 O.2       1 RES1    0.0000
     18 O3         2.9208    3.2919    9.5355 O.2       1 RES1    0.0000
     19 O4         2.1237   -0.1539    6.2410 O.2       1 RES1    0.0000
     20 O5         2.8268    0.0907    4.2674 O.2       1 RES1    0.0000
     21 O6         4.0290    4.7228    9.3886 Du        2 SUP2    0.0000
     22 O7         3.6846    2.6775    9.7883 Du        2 SUP2    0.0000
     23 O8         2.6202   -0.4605    6.3849 Du        2 SUP2    0.0000
     24 O9         2.5574    0.2845    4.2689 Du        2 SUP2    0.0000
@<TRIPOS>BOND
     1    1    2 ar
     2    2    3 ar
     3    3    4 1
     4    5    3 ar
     5    6    5 ar
     6    7    6 1
     7    8    1 ar
     8    9    8 1
     9   10   11 1
    10   12   10 1
    11   13   10 1
    12   14    2 1
    13   15    5 1
    14   16    1 1
    15   17   14 2
    16   18   14 2
    17   19   15 2
    18   20   15 2
    19    6    8 ar
    20   10   16 1
@<TRIPOS>SUBSTRUCTURE
     1 RES1 1
     2 SUP2 21

@<TRIPOS>CRYSIN
   3.9618   13.7450   15.4700  90.0000  91.0890  90.0000 231 1

