# MOL2 file generated by ConQuest
# Please check atom types

@<TRIPOS>MOLECULE
FESNEW21
    20    20     1
SMALL
NO_CHARGES
****
Generated from CSD

@<TRIPOS>ATOM
      1 C1         2.1376   11.3075    1.1081 C.ar      1 RES1    0.0000
      2 C2         1.9549   10.2738    0.1611 C.ar      1 RES1    0.0000
      3 C3         1.4166    9.0473    0.5124 C.ar      1 RES1    0.0000
      4 H1         1.3041    8.3947   -0.1265 H         1 RES1    0.0000
      5 C4         1.0570    8.8484    1.8342 C.ar      1 RES1    0.0000
      6 C5         1.2006    9.8359    2.7955 C.ar      1 RES1    0.0000
      7 H2         0.9854    9.6554    3.7114 H         1 RES1    0.0000
      8 C6         1.7374   11.0572    2.4314 C.ar      1 RES1    0.0000
      9 H3         1.8237   11.7233    3.1078 H         1 RES1    0.0000
     10 C7         2.8315   13.5265    1.6745 C.3       1 RES1    0.0000
     11 H4         3.3875   13.2328    2.4326 H         1 RES1    0.0000
     12 H5         3.2547   14.2170    1.2071 H         1 RES1    0.0000
     13 H6         1.9761   13.8548    2.0180 H         1 RES1    0.0000
     14 N1         2.3094   10.4387   -1.2591 N.pl3     1 RES1    0.0000
     15 N2         0.4876    7.5503    2.2067 N.pl3     1 RES1    0.0000
     16 O1         2.6622   12.4753    0.6988 O.3       1 RES1    0.0000
     17 O2         3.1501   11.2819   -1.5580 O.2       1 RES1    0.0000
     18 O3         1.7611    9.7129   -2.0691 O.2       1 RES1    0.0000
     19 O4         0.5385    6.6367    1.3894 O.2       1 RES1    0.0000
     20 O5        -0.0245    7.4416    3.3226 O.2       1 RES1    0.0000
@<TRIPOS>BOND
     1    1    2 ar
     2    2    3 ar
     3    3    4 1
     4    5    3 ar
     5    6    5 ar
     6    7    6 1
     7    8    1 ar
     8    9    8 1
     9   10   11 1
    10   12   10 1
    11   13   10 1
    12   14    2 1
    13   15    5 1
    14   16    1 1
    15   17   14 2
    16   18   14 2
    17   19   15 2
    18   20   15 2
    19    6    8 ar
    20   10   16 1
@<TRIPOS>SUBSTRUCTURE
     1 RES1 1

@<TRIPOS>CRYSIN
   3.8139   13.8230   15.3490  90.0000  96.7770  90.0000 231 1

