# MOL2 file generated by ConQuest
# Please check atom types

@<TRIPOS>MOLECULE
FESNEW13
    24    20     2
SMALL
NO_CHARGES
****
Generated from CSD

@<TRIPOS>ATOM
      1 C1         1.4205    4.1971    1.1795 C.ar      1 RES1    0.0000
      2 C2         1.9229    3.2972    0.2242 C.ar      1 RES1    0.0000
      3 C3         2.4543    2.0809    0.5789 C.ar      1 RES1    0.0000
      4 H1         2.8020    1.5177   -0.0216 H         1 RES1    0.0000
      5 C4         2.4706    1.7349    1.9110 C.ar      1 RES1    0.0000
      6 C5         1.9816    2.5875    2.8844 C.ar      1 RES1    0.0000
      7 H2         2.0513    2.2690    3.8426 H         1 RES1    0.0000
      8 C6         1.4612    3.8036    2.5173 C.ar      1 RES1    0.0000
      9 H3         1.1192    4.3760    3.1674 H         1 RES1    0.0000
     10 C7         0.4203    6.2909    1.7410 C.3       1 RES1    0.0000
     11 H4        -0.2883    5.8236    2.3269 H         1 RES1    0.0000
     12 H5         0.0889    7.0186    1.2824 H         1 RES1    0.0000
     13 H6         1.1312    6.5681    2.3794 H         1 RES1    0.0000
     14 N1         1.9191    3.6177   -1.2113 N.pl3     1 RES1    0.0000
     15 N2         3.0444    0.4538    2.2996 N.pl3     1 RES1    0.0000
     16 O1         0.9391    5.3746    0.7588 O.3       1 RES1    0.0000
     17 O2         0.9378    4.2290   -1.5698 O.2       1 RES1    0.0000
     18 O3         2.8852    3.2950   -1.7938 O.2       1 RES1    0.0000
     19 O4         3.2645   -0.3956    1.3736 O.2       1 RES1    0.0000
     20 O5         3.1866    0.2486    3.4718 O.2       1 RES1    0.0000
     21 O6         1.7627    4.7152   -1.6610 Du        2 SUP2    0.0000
     22 O7         2.1268    2.6783   -2.0565 Du        2 SUP2    0.0000
     23 O8         2.8744    0.0398    3.4517 Du        2 SUP2    0.0000
     24 O9         3.7601   -0.1030    1.5204 Du        2 SUP2    0.0000
@<TRIPOS>BOND
     1    1    2 ar
     2    2    3 ar
     3    3    4 1
     4    5    3 ar
     5    6    5 ar
     6    7    6 1
     7    8    1 ar
     8    9    8 1
     9   10   11 1
    10   12   10 1
    11   13   10 1
    12   14    2 1
    13   15    5 1
    14   16    1 1
    15   17   14 2
    16   18   14 2
    17   19   15 2
    18   20   15 2
    19    6    8 ar
    20   10   16 1
@<TRIPOS>SUBSTRUCTURE
     1 RES1 1
     2 SUP2 21

@<TRIPOS>CRYSIN
   3.9570   13.7350   15.4540  90.0000  91.1560  90.0000 231 1

