# MOL2 file generated by ConQuest
# Please check atom types

@<TRIPOS>MOLECULE
FESNEW19
    20    20     1
SMALL
NO_CHARGES
****
Generated from CSD

@<TRIPOS>ATOM
      1 C1         0.0115    2.5264   14.1735 C.ar      1 RES1    0.0000
      2 C2         0.2177    3.5537   15.1194 C.ar      1 RES1    0.0000
      3 C3         0.7583    4.7743   14.7666 C.ar      1 RES1    0.0000
      4 H1         0.8670    5.4374   15.4159 H         1 RES1    0.0000
      5 C4         1.1015    4.9791   13.4408 C.ar      1 RES1    0.0000
      6 C5         0.9308    3.9971   12.4808 C.ar      1 RES1    0.0000
      7 H2         1.1428    4.1550   11.5776 H         1 RES1    0.0000
      8 C6         0.3918    2.7822   12.8466 C.ar      1 RES1    0.0000
      9 H3         0.2838    2.1244   12.1450 H         1 RES1    0.0000
     10 C7        -0.6994    0.3134   13.6161 C.3       1 RES1    0.0000
     11 H4        -1.2527    0.6336   12.8836 H         1 RES1    0.0000
     12 H5        -1.1018   -0.4058   14.0916 H         1 RES1    0.0000
     13 H6         0.1501    0.0097   13.2399 H         1 RES1    0.0000
     14 N1        -0.1238    3.3821   16.5402 N.pl3     1 RES1    0.0000
     15 N2         1.6796    6.2694   13.0689 N.pl3     1 RES1    0.0000
     16 O1        -0.5095    1.3607   14.5837 O.3       1 RES1    0.0000
     17 O2        -0.9568    2.5460   16.8448 O.2       1 RES1    0.0000
     18 O3         0.4299    4.0965   17.3469 O.2       1 RES1    0.0000
     19 O4         1.6766    7.1695   13.8964 O.2       1 RES1    0.0000
     20 O5         2.1478    6.3877   11.9417 O.2       1 RES1    0.0000
@<TRIPOS>BOND
     1    1    2 ar
     2    2    3 ar
     3    3    4 1
     4    5    3 ar
     5    6    5 ar
     6    7    6 1
     7    8    1 ar
     8    9    8 1
     9   10   11 1
    10   12   10 1
    11   13   10 1
    12   14    2 1
    13   15    5 1
    14   16    1 1
    15   17   14 2
    16   18   14 2
    17   19   15 2
    18   20   15 2
    19    6    8 ar
    20   10   16 1
@<TRIPOS>SUBSTRUCTURE
     1 RES1 1

@<TRIPOS>CRYSIN
   3.8537   13.8040   15.3810  90.0000  96.1640  90.0000 231 1

