# MOL2 file generated by ConQuest
# Please check atom types

@<TRIPOS>MOLECULE
FESPEY
    23    25     1
SMALL
NO_CHARGES
****
Generated from CSD

@<TRIPOS>ATOM
      1 O1        -0.8022   -1.1963   -3.5244 O.3       1 RES1    0.0000
      2 C1        -0.4167   -2.4803   -3.3507 C.2       1 RES1    0.0000
      3 C2         0.5081   -2.6789   -2.4200 C.2       1 RES1    0.0000
      4 C3         1.6308   -0.8987   -0.9090 C.ar      1 RES1    0.0000
      5 C4         2.4953    1.0369    0.3532 C.ar      1 RES1    0.0000
      6 C5         2.5301    2.3788    0.5690 C.ar      1 RES1    0.0000
      7 C6         1.7246    3.2443   -0.1750 C.ar      1 RES1    0.0000
      8 C7         0.8854    2.7608   -1.1439 C.ar      1 RES1    0.0000
      9 C8        -0.0430    0.8601   -2.4167 C.ar      1 RES1    0.0000
     10 C9         0.8258    1.3617   -1.4155 C.ar      1 RES1    0.0000
     11 C10        1.6484    0.4850   -0.6650 C.ar      1 RES1    0.0000
     12 C11        0.7935   -1.3738   -1.9010 C.ar      1 RES1    0.0000
     13 C12       -0.0265   -0.4847   -2.6068 C.ar      1 RES1    0.0000
     14 N1        -1.0750   -3.4625   -4.1565 N.pl3     1 RES1    0.0000
     15 O2        -0.6993   -4.6168   -4.0236 O.2       1 RES1    0.0000
     16 O3        -1.9524   -3.0967   -4.9241 O.2       1 RES1    0.0000
     17 H1         0.9437   -3.6219   -2.1180 H         1 RES1    0.0000
     18 H2         2.2563   -1.5746   -0.3420 H         1 RES1    0.0000
     19 H3         3.1064    0.3764    0.9538 H         1 RES1    0.0000
     20 H4         2.9365    2.7763    1.3221 H         1 RES1    0.0000
     21 H5         1.7703    4.3112    0.0132 H         1 RES1    0.0000
     22 H6         0.2618    3.4467   -1.7102 H         1 RES1    0.0000
     23 H7        -0.6835    1.5139   -2.9863 H         1 RES1    0.0000
@<TRIPOS>BOND
     1    1    2 1
     2    2    3 2
     3    3   12 1
     4    4   11 ar
     5    5    6 ar
     6    6    7 ar
     7    7    8 ar
     8    8   10 ar
     9    9   10 ar
    10   10   11 ar
    11   11    5 ar
    12   12    4 ar
    13   13    1 1
    14   14    2 1
    15   15   14 2
    16   16   14 2
    17   17    3 1
    18   18    4 1
    19   19    5 1
    20   20    6 1
    21   21    7 1
    22   22    8 1
    23   23    9 1
    24    9   13 ar
    25   12   13 ar
@<TRIPOS>SUBSTRUCTURE
     1 RES1 1

@<TRIPOS>CRYSIN
   7.8500    9.1910    7.3690  92.0900 116.7900  86.4200   2 1

