# MOL2 file generated by ConQuest
# Please check atom types

@<TRIPOS>MOLECULE
FESQAX
    39    40     1
SMALL
NO_CHARGES
****
Generated from CSD

@<TRIPOS>ATOM
      1 O1         2.1865    5.9456    7.6569 O.2       1 RES1    0.0000
      2 O2         0.7013    7.5033    7.7208 O.2       1 RES1    0.0000
      3 O3         1.9394    9.8198    6.3185 O.3       1 RES1    0.0000
      4 H1         1.3110    9.4489    5.9436 H         1 RES1    0.0000
      5 O4         4.3525   11.9357    7.5468 O.2       1 RES1    0.0000
      6 O5         5.8270    8.0612    2.7417 O.3       1 RES1    0.0000
      7 O6         6.6678    8.6616    4.7218 O.2       1 RES1    0.0000
      8 N1         1.8589    7.1158    7.7211 N.pl3     1 RES1    0.0000
      9 C1         2.9575    8.1423    7.7696 C.3       1 RES1    0.0000
     10 H2         3.8086    7.6744    7.9018 H         1 RES1    0.0000
     11 C2         2.7379    9.0709    8.9458 C.3       1 RES1    0.0000
     12 H3         2.7206    8.5560    9.7680 H         1 RES1    0.0000
     13 H4         1.8832    9.5190    8.8519 H         1 RES1    0.0000
     14 C3         3.8614   10.1103    9.0110 C.3       1 RES1    0.0000
     15 H5         3.6079   10.8052    9.6375 H         1 RES1    0.0000
     16 H6         4.6629    9.6840    9.3515 H         1 RES1    0.0000
     17 C4         4.1750   10.7446    7.6793 C.2       1 RES1    0.0000
     18 C5         4.2954    9.7823    6.5076 C.3       1 RES1    0.0000
     19 H7         5.0577    9.1935    6.6818 H         1 RES1    0.0000
     20 C6         4.5618   10.5118    5.2009 C.3       1 RES1    0.0000
     21 H8         5.4215   10.9566    5.2616 H         1 RES1    0.0000
     22 H9         3.8848   11.1963    5.0820 H         1 RES1    0.0000
     23 C7         4.5633    9.6008    3.9710 C.3       1 RES1    0.0000
     24 H10        4.5436   10.1768    3.1783 H         1 RES1    0.0000
     25 C8         3.3015    8.7201    3.9344 C.3       1 RES1    0.0000
     26 H11        2.5270    9.2794    3.7646 H         1 RES1    0.0000
     27 H12        3.3762    8.0835    3.2060 H         1 RES1    0.0000
     28 C9         3.0992    7.9671    5.2366 C.3       1 RES1    0.0000
     29 H13        3.8315    7.3444    5.3617 H         1 RES1    0.0000
     30 H14        2.2770    7.4551    5.1839 H         1 RES1    0.0000
     31 C10        3.0294    8.9061    6.4352 C.3       1 RES1    0.0000
     32 C11        5.8034    8.7499    3.8834 C.2       1 RES1    0.0000
     33 C12        6.9572    7.1812    2.5231 C.3       1 RES1    0.0000
     34 H15        7.1087    6.6300    3.3061 H         1 RES1    0.0000
     35 H16        7.7589    7.7015    2.3542 H         1 RES1    0.0000
     36 C13        6.6472    6.3351    1.3585 C.3       1 RES1    0.0000
     37 H17        5.8273    5.8615    1.5167 H         1 RES1    0.0000
     38 H18        7.3590    5.7055    1.2209 H         1 RES1    0.0000
     39 H19        6.5529    6.8855    0.5783 H         1 RES1    0.0000
@<TRIPOS>BOND
     1    1    8 2
     2    2    8 2
     3    3    4 1
     4    5   17 2
     5    6   32 1
     6    7   32 2
     7    8    9 1
     8    9   10 1
     9   11    9 1
    10   12   11 1
    11   13   11 1
    12   14   11 1
    13   15   14 1
    14   16   14 1
    15   17   14 1
    16   18   17 1
    17   19   18 1
    18   20   18 1
    19   21   20 1
    20   22   20 1
    21   23   20 1
    22   24   23 1
    23   25   23 1
    24   26   25 1
    25   27   25 1
    26   28   25 1
    27   29   28 1
    28   30   28 1
    29   31    3 1
    30   32   23 1
    31   33    6 1
    32   34   33 1
    33   35   33 1
    34   36   33 1
    35   37   36 1
    36   38   36 1
    37   39   36 1
    38    9   31 1
    39   18   31 1
    40   28   31 1
@<TRIPOS>SUBSTRUCTURE
     1 RES1 1

@<TRIPOS>CRYSIN
   6.7622   22.6050    9.0134  90.0000  97.4300  90.0000  14 1

