# MOL2 file generated by ConQuest
# Please check atom types

@<TRIPOS>MOLECULE
FESRUT
    84    90     1
SMALL
NO_CHARGES
****
Generated from CSD

@<TRIPOS>ATOM
      1 C1         1.4877   12.5926   23.1021 C.ar      1 RES1    0.0000
      2 C2         0.4652   13.2139   23.8105 C.ar      1 RES1    0.0000
      3 H1        -0.2817   13.5746   23.3468 H         1 RES1    0.0000
      4 C3         0.5361   13.3066   25.1941 C.ar      1 RES1    0.0000
      5 H2        -0.1629   13.7324   25.6784 H         1 RES1    0.0000
      6 C4         1.6289   12.7805   25.8721 C.ar      1 RES1    0.0000
      7 H3         1.6780   12.8431   26.8185 H         1 RES1    0.0000
      8 C5         2.6519   12.1593   25.1634 C.ar      1 RES1    0.0000
      9 H4         3.3989   11.7986   25.6271 H         1 RES1    0.0000
     10 C6         2.5811   12.0641   23.7798 C.ar      1 RES1    0.0000
     11 H5         3.2795   11.6407   23.2955 H         1 RES1    0.0000
     12 C7         4.5251   13.6948   16.2392 C.ar      1 RES1    0.0000
     13 C8         5.6692   14.0656   16.9361 C.ar      1 RES1    0.0000
     14 H6         6.0452   13.4794   17.5818 H         1 RES1    0.0000
     15 C9         6.2628   15.2980   16.6902 C.ar      1 RES1    0.0000
     16 H7         7.0443   15.5535   17.1642 H         1 RES1    0.0000
     17 C10        5.7122   16.1573   15.7473 C.ar      1 RES1    0.0000
     18 H8         6.1177   17.0014   15.5782 H         1 RES1    0.0000
     19 C11        4.5686   15.7865   15.0504 C.ar      1 RES1    0.0000
     20 H9         4.1921   16.3727   14.4047 H         1 RES1    0.0000
     21 C12        3.9745   14.5541   15.2963 C.ar      1 RES1    0.0000
     22 H10        3.1930   14.2985   14.8198 H         1 RES1    0.0000
     23 O1         4.4353   11.7009   17.4652 O.3       1 RES1    0.0000
     24 O2         4.7745    9.1024   16.3409 O.3       1 RES1    0.0000
     25 O3         4.9468    7.0501   18.5250 O.3       1 RES1    0.0000
     26 O4         2.7579    9.5816   19.8640 O.3       1 RES1    0.0000
     27 O5         6.9255    8.5947   16.5979 O.2       1 RES1    0.0000
     28 O6         2.7774    7.3672   20.2565 O.3       1 RES1    0.0000
     29 O7         2.4874   12.0966   21.0728 O.3       1 RES1    0.0000
     30 O8         4.2356    6.0696   16.6543 O.2       1 RES1    0.0000
     31 C13        5.9900    8.7450   15.8703 C.2       1 RES1    0.0000
     32 C14        5.9543    8.5220   14.4226 C.ar      1 RES1    0.0000
     33 C15        3.7269   10.5360   17.9149 C.3       1 RES1    0.0000
     34 H11        2.8767   10.4208   17.3999 H         1 RES1    0.0000
     35 N1         2.7412    7.2971   21.6327 N.pl3     1 RES1    0.0000
     36 C16        4.9374    8.9629   13.6283 C.ar      1 RES1    0.0000
     37 H12        4.2083    9.4313   14.0178 H         1 RES1    0.0000
     38 C17        4.9429    6.0596   17.6049 C.2       1 RES1    0.0000
     39 C18        1.8910    7.8607   22.4859 C.ar      1 RES1    0.0000
     40 C19        3.4318   10.7439   19.3907 C.3       1 RES1    0.0000
     41 H13        4.2847   10.8742   19.8980 H         1 RES1    0.0000
     42 C20        4.6138    9.3236   17.7458 C.3       1 RES1    0.0000
     43 H14        5.5052    9.4965   18.1634 H         1 RES1    0.0000
     44 C21        3.9717    8.1012   18.3940 C.3       1 RES1    0.0000
     45 H15        3.1830    7.7931   17.8611 H         1 RES1    0.0000
     46 C22        7.0019    7.5952   12.4907 C.ar      1 RES1    0.0000
     47 H16        7.7137    7.1042   12.0961 H         1 RES1    0.0000
     48 C23        3.8412   12.4298   16.4954 C.2       1 RES1    0.0000
     49 C24        1.3890   12.4524   21.6583 C.2       1 RES1    0.0000
     50 C25        5.9604    5.0376   17.9149 C.ar      1 RES1    0.0000
     51 C26        7.0164    7.8356   13.8384 C.ar      1 RES1    0.0000
     52 H17        7.7438    7.5350   14.3714 H         1 RES1    0.0000
     53 C27        3.5701    8.4293   19.8109 C.3       1 RES1    0.0000
     54 H18        4.3773    8.5370   20.3925 H         1 RES1    0.0000
     55 C28        4.9513    8.7399   12.2627 C.ar      1 RES1    0.0000
     56 H19        4.2440    9.0656   11.7169 H         1 RES1    0.0000
     57 C29        2.4968   11.8912   19.6546 C.3       1 RES1    0.0000
     58 H20        2.8126   12.7079   19.1883 H         1 RES1    0.0000
     59 H21        1.5865   11.6758   19.3292 H         1 RES1    0.0000
     60 C30        5.9850    8.0486   11.6990 C.ar      1 RES1    0.0000
     61 H22        5.9967    7.8832   10.7638 H         1 RES1    0.0000
     62 O9         2.8801   12.0716   15.9446 O.2       1 RES1    0.0000
     63 O10        0.4312   12.6778   21.0229 O.2       1 RES1    0.0000
     64 C31        2.2202    7.2420   23.6875 C.ar      1 RES1    0.0000
     65 N2         3.2075    6.3201   23.4211 N.2       1 RES1    0.0000
     66 N3         3.5032    6.3502   22.1553 N.2       1 RES1    0.0000
     67 C32        7.2072    3.1313   17.2334 C.ar      1 RES1    0.0000
     68 H23        7.3818    2.4574   16.5877 H         1 RES1    0.0000
     69 C33        7.6200    4.0932   19.3036 C.ar      1 RES1    0.0000
     70 H24        8.0768    4.0957   20.1363 H         1 RES1    0.0000
     71 C34        6.2254    4.0406   16.9899 C.ar      1 RES1    0.0000
     72 H25        5.7194    3.9930   16.1880 H         1 RES1    0.0000
     73 C35        1.5006    7.5576   24.8175 C.ar      1 RES1    0.0000
     74 H26        1.6445    7.0866   25.6297 H         1 RES1    0.0000
     75 C36        0.9204    8.8326   22.3680 C.ar      1 RES1    0.0000
     76 H27        0.7246    9.2685   21.5481 H         1 RES1    0.0000
     77 C37        0.2733    9.1107   23.5236 C.ar      1 RES1    0.0000
     78 H28       -0.4457    9.7344   23.5082 H         1 RES1    0.0000
     79 C38        6.6493    5.0300   19.0602 C.ar      1 RES1    0.0000
     80 H29        6.4613    5.6889   19.7187 H         1 RES1    0.0000
     81 C39        0.6192    8.5070   24.7534 C.ar      1 RES1    0.0000
     82 H30        0.1986    8.8051   25.5503 H         1 RES1    0.0000
     83 C40        7.9379    3.1513   18.3505 C.ar      1 RES1    0.0000
     84 H31        8.6525    2.5401   18.4863 H         1 RES1    0.0000
@<TRIPOS>BOND
     1    1    2 ar
     2    2    3 1
     3    4    2 ar
     4    5    4 1
     5    6    4 ar
     6    7    6 1
     7    8    6 ar
     8    9    8 1
     9   10    1 ar
    10   11   10 1
    11   12   13 ar
    12   13   14 1
    13   15   13 ar
    14   16   15 1
    15   17   15 ar
    16   18   17 1
    17   19   17 ar
    18   20   19 1
    19   21   12 ar
    20   22   21 1
    21   23   33 1
    22   24   31 1
    23   25   38 1
    24   26   40 1
    25   27   31 2
    26   28   35 1
    27   29   49 1
    28   30   38 2
    29   31   32 1
    30   32   36 ar
    31   33   34 1
    32   35   39 1
    33   36   37 1
    34   38   50 1
    35   39   64 ar
    36   40   33 1
    37   41   40 1
    38   42   24 1
    39   43   42 1
    40   44   25 1
    41   45   44 1
    42   46   47 1
    43   48   12 1
    44   49    1 1
    45   50   71 ar
    46   51   32 ar
    47   52   51 1
    48   53   26 1
    49   54   53 1
    50   55   36 ar
    51   56   55 1
    52   57   29 1
    53   58   57 1
    54   59   57 1
    55   60   46 ar
    56   61   60 1
    57   62   48 2
    58   63   49 2
    59   64   65 1
    60   65   66 2
    61   66   35 1
    62   67   68 1
    63   69   70 1
    64   71   67 ar
    65   72   71 1
    66   73   64 ar
    67   74   73 1
    68   75   39 ar
    69   76   75 1
    70   77   75 ar
    71   78   77 1
    72   79   50 ar
    73   80   79 1
    74   81   73 ar
    75   82   81 1
    76   83   67 ar
    77   84   83 1
    78    8   10 ar
    79   19   21 ar
    80   23   48 1
    81   28   53 1
    82   33   42 1
    83   40   57 1
    84   42   44 1
    85   44   53 1
    86   46   51 ar
    87   55   60 ar
    88   69   79 ar
    89   69   83 ar
    90   77   81 ar
@<TRIPOS>SUBSTRUCTURE
     1 RES1 1

@<TRIPOS>CRYSIN
   5.5783   25.0500   25.6220  90.0000  90.0000  90.0000  19 1

