# MOL2 file generated by ConQuest
# Please check atom types

@<TRIPOS>MOLECULE
FETFUH
    24    24     1
SMALL
NO_CHARGES
****
Generated from CSD

@<TRIPOS>ATOM
      1 C1         1.3951    5.0434    7.6778 C.ar      1 RES1    0.0000
      2 C2         2.5534    5.5507    8.2296 C.ar      1 RES1    0.0000
      3 H1         3.3543    5.4874    7.7609 H         1 RES1    0.0000
      4 C3         2.5334    6.1515    9.4714 C.ar      1 RES1    0.0000
      5 H2         3.3156    6.5058    9.8275 H         1 RES1    0.0000
      6 C4         1.3529    6.2296   10.1876 C.ar      1 RES1    0.0000
      7 H3         1.3391    6.6336   11.0246 H         1 RES1    0.0000
      8 C5         0.2025    5.7055    9.6540 C.ar      1 RES1    0.0000
      9 H4        -0.5896    5.7397   10.1399 H         1 RES1    0.0000
     10 C6         0.2151    5.1267    8.3970 C.ar      1 RES1    0.0000
     11 H5        -0.5730    4.7917    8.0338 H         1 RES1    0.0000
     12 C7         1.4053    4.4116    6.3193 C.2       1 RES1    0.0000
     13 C8         1.4029    5.2770    5.1385 C.2       1 RES1    0.0000
     14 C9         1.4014    4.7014    3.7557 C.3       1 RES1    0.0000
     15 H6         0.6247    4.9886    3.2718 H         1 RES1    0.0000
     16 H7         1.3845    3.7456    3.8511 H         1 RES1    0.0000
     17 H8         2.1917    4.9608    3.2768 H         1 RES1    0.0000
     18 N1         1.4013    3.1299    6.1540 N.2       1 RES1    0.0000
     19 N2         1.4131    6.5219    5.4205 N.2       1 RES1    0.0000
     20 O1         1.4260    7.3634    4.2971 O.3       1 RES1    0.0000
     21 H9         1.3310    8.1417    4.5379 H         1 RES1    0.0000
     22 N3         1.4082    2.3484    7.2720 N.3       1 RES1    0.0000
     23 H10        1.4152    2.7131    8.0511 H         1 RES1    0.0000
     24 H11        1.4057    1.4920    7.1979 H         1 RES1    0.0000
@<TRIPOS>BOND
     1    1    2 ar
     2    2    3 1
     3    4    2 ar
     4    5    4 1
     5    6    4 ar
     6    7    6 1
     7    8    6 ar
     8    9    8 1
     9   10    1 ar
    10   11   10 1
    11   12    1 1
    12   13   12 1
    13   14   13 1
    14   15   14 1
    15   16   14 1
    16   17   14 1
    17   18   12 2
    18   19   13 2
    19   20   19 1
    20   21   20 1
    21   22   18 1
    22   23   22 1
    23   24   22 1
    24    8   10 ar
@<TRIPOS>SUBSTRUCTURE
     1 RES1 1

@<TRIPOS>CRYSIN
   6.9503    6.4535   10.1631  90.0000  93.4180  90.0000   4 1

