# MOL2 file generated by ConQuest
# Please check atom types

@<TRIPOS>MOLECULE
FETNID01
    28    28     1
SMALL
NO_CHARGES
****
Generated from CSD

@<TRIPOS>ATOM
      1 C1         3.3124    4.5831    6.4270 C.2       1 RES1    0.0000
      2 C2         3.4822    5.9661    5.8330 C.2       1 RES1    0.0000
      3 C3         3.2745    7.1427    6.6459 C.1       1 RES1    0.0000
      4 C4         4.3117    7.3536    2.8106 C.2       1 RES1    0.0000
      5 C5         4.3589    8.7481    2.3249 C.ar      1 RES1    0.0000
      6 C6         4.1040    9.8564    3.1340 C.ar      1 RES1    0.0000
      7 H1         3.8608    9.7408    4.0239 H         1 RES1    0.0000
      8 C7         4.2167   11.1324    2.5995 C.ar      1 RES1    0.0000
      9 H2         4.0537   11.8748    3.1347 H         1 RES1    0.0000
     10 C8         4.5729   11.3046    1.2654 C.ar      1 RES1    0.0000
     11 H3         4.6493   12.1623    0.9136 H         1 RES1    0.0000
     12 C9         4.8160   10.1977    0.4553 C.ar      1 RES1    0.0000
     13 H4         5.0492   10.3136   -0.4379 H         1 RES1    0.0000
     14 C10        4.7086    8.9253    0.9855 C.ar      1 RES1    0.0000
     15 H5         4.8699    8.1845    0.4476 H         1 RES1    0.0000
     16 C11        2.7031    3.4268    8.4066 C.3       1 RES1    0.0000
     17 H6         2.7787    3.5831    9.3613 H         1 RES1    0.0000
     18 H7         3.3879    2.7888    8.1505 H         1 RES1    0.0000
     19 C12        1.3511    2.8568    8.1000 C.3       1 RES1    0.0000
     20 H8         1.3261    2.5673    7.1855 H         1 RES1    0.0000
     21 H9         0.6811    3.5292    8.2410 H         1 RES1    0.0000
     22 H10        1.1808    2.1090    8.6776 H         1 RES1    0.0000
     23 N1         3.1298    8.0795    7.2882 N.1       1 RES1    0.0000
     24 N2         3.8098    5.9976    4.5965 N.2       1 RES1    0.0000
     25 O1         2.9158    4.6888    7.6856 O.3       1 RES1    0.0000
     26 O2         3.5116    3.5771    5.8121 O.2       1 RES1    0.0000
     27 O3         3.9046    7.3084    4.1464 O.3       1 RES1    0.0000
     28 O4         4.5878    6.3764    2.1873 O.2       1 RES1    0.0000
@<TRIPOS>BOND
     1    1    2 1
     2    2    3 1
     3    3   23 3
     4    4    5 1
     5    5    6 ar
     6    6    7 1
     7    8    6 ar
     8    9    8 1
     9   10    8 ar
    10   11   10 1
    11   12   10 ar
    12   13   12 1
    13   14    5 ar
    14   15   14 1
    15   16   17 1
    16   18   16 1
    17   19   16 1
    18   20   19 1
    19   21   19 1
    20   22   19 1
    21   24    2 2
    22   25    1 1
    23   26    1 2
    24   27    4 1
    25   28    4 2
    26   12   14 ar
    27   16   25 1
    28   24   27 1
@<TRIPOS>SUBSTRUCTURE
     1 RES1 1

@<TRIPOS>CRYSIN
  11.8867    8.0556   12.3853  90.0000  99.0640  90.0000 231 1

