# MOL2 file generated by ConQuest
# Please check atom types

@<TRIPOS>MOLECULE
FETRAY
    39    40     1
SMALL
NO_CHARGES
****
Generated from CSD

@<TRIPOS>ATOM
      1 O1        -7.2876   12.4703    5.1859 O.2       1 RES1    0.0000
      2 O2        -5.5231   12.0143    4.1244 O.2       1 RES1    0.0000
      3 O3         1.7765   13.2034   11.7302 O.3       1 RES1    0.0000
      4 O4        -3.6118   13.7815    8.5310 O.2       1 RES1    0.0000
      5 O5        -3.6681   12.5110    6.1613 O.3       1 RES1    0.0000
      6 N1        -6.1864   11.9956    5.1217 N.pl3     1 RES1    0.0000
      7 N2        -6.5139   10.4303    6.8189 N.ar      1 RES1    0.0000
      8 C1        -6.1212    9.6917    7.8597 C.ar      1 RES1    0.0000
      9 C2        -4.8300    9.8127    8.3474 C.ar      1 RES1    0.0000
     10 H1        -4.5505    9.2682    9.0483 H         1 RES1    0.0000
     11 C3        -3.9597   10.7261    7.8096 C.ar      1 RES1    0.0000
     12 H2        -3.0978   10.8102    8.1485 H         1 RES1    0.0000
     13 C4        -4.3778   11.5240    6.7583 C.ar      1 RES1    0.0000
     14 C5        -5.6627   11.2844    6.3000 C.ar      1 RES1    0.0000
     15 C6        -2.3880   12.8746    6.7185 C.3       1 RES1    0.0000
     16 H3        -1.7827   12.1043    6.6980 H         1 RES1    0.0000
     17 C7        -2.5348   13.3831    8.1446 C.2       1 RES1    0.0000
     18 C8        -1.3442   13.3768    9.0175 C.ar      1 RES1    0.0000
     19 C9        -0.1303   12.8392    8.6375 C.ar      1 RES1    0.0000
     20 H4        -0.0308   12.5057    7.7749 H         1 RES1    0.0000
     21 C10        0.9390   12.7846    9.5066 C.ar      1 RES1    0.0000
     22 H5         1.7497   12.4290    9.2254 H         1 RES1    0.0000
     23 C11        0.8057   13.2538   10.7799 C.ar      1 RES1    0.0000
     24 C12       -0.3941   13.8367   11.1701 C.ar      1 RES1    0.0000
     25 H6        -0.4791   14.1894   12.0250 H         1 RES1    0.0000
     26 C13       -1.4454   13.8928   10.3050 C.ar      1 RES1    0.0000
     27 H7        -2.2438   14.2838   10.5797 H         1 RES1    0.0000
     28 C14       -7.1265    8.7577    8.4463 C.3       1 RES1    0.0000
     29 H8        -6.7661    8.0863    9.0496 H         1 RES1    0.0000
     30 H9        -7.6015    8.3371    7.7531 H         1 RES1    0.0000
     31 H10       -7.7005    9.2815    8.9854 H         1 RES1    0.0000
     32 C15       -1.8625   13.9666    5.8277 C.3       1 RES1    0.0000
     33 H11       -1.7767   13.6345    4.9304 H         1 RES1    0.0000
     34 H12       -1.0027   14.2528    6.1447 H         1 RES1    0.0000
     35 H13       -2.4705   14.7088    5.8367 H         1 RES1    0.0000
     36 C16        2.9663   12.4821   11.4038 C.3       1 RES1    0.0000
     37 H14        3.4968   12.9115   10.6926 H         1 RES1    0.0000
     38 H15        3.4529   12.4983   12.2330 H         1 RES1    0.0000
     39 H16        2.7865   11.5687   11.2061 H         1 RES1    0.0000
@<TRIPOS>BOND
     1    1    6 2
     2    2    6 2
     3    3   23 1
     4    4   17 2
     5    5   13 1
     6    6   14 1
     7    7    8 ar
     8    8    9 ar
     9    9   10 1
    10   11    9 ar
    11   12   11 1
    12   13   11 ar
    13   14    7 ar
    14   15    5 1
    15   16   15 1
    16   17   15 1
    17   18   17 1
    18   19   18 ar
    19   20   19 1
    20   21   19 ar
    21   22   21 1
    22   23   21 ar
    23   24   23 ar
    24   25   24 1
    25   26   18 ar
    26   27   26 1
    27   28    8 1
    28   29   28 1
    29   30   28 1
    30   31   28 1
    31   32   15 1
    32   33   32 1
    33   34   32 1
    34   35   32 1
    35   36    3 1
    36   37   36 1
    37   38   36 1
    38   39   36 1
    39   13   14 ar
    40   24   26 ar
@<TRIPOS>SUBSTRUCTURE
     1 RES1 1

@<TRIPOS>CRYSIN
   8.1850   14.7560   15.0920  90.0000 121.7300  90.0000  14 1

