# MOL2 file generated by ConQuest
# Please check atom types

@<TRIPOS>MOLECULE
FETZOU
    65    69     1
SMALL
NO_CHARGES
****
Generated from CSD

@<TRIPOS>ATOM
      1 O1         8.1685    4.3829    3.4519 O.2       1 RES1    0.0000
      2 O2         5.8192    1.3306   -0.5992 O.2       1 RES1    0.0000
      3 O3         4.2930    1.7086    7.8906 O.3       1 RES1    0.0000
      4 O4         8.8081   -3.3968    4.8616 O.3       1 RES1    0.0000
      5 N1         7.9447    2.4325    2.5791 N.3       1 RES1    0.0000
      6 N2         8.7379    3.4400    2.9187 N.2       1 RES1    0.0000
      7 C1         8.5914    1.3674    1.7976 C.3       1 RES1    0.0000
      8 H1         9.5230    1.6448    1.6740 H         1 RES1    0.0000
      9 C2         6.4395    1.4098    0.4283 C.2       1 RES1    0.0000
     10 C3         8.6342    0.0640    2.5720 C.ar      1 RES1    0.0000
     11 C4         9.3797    0.0395    3.7427 C.ar      1 RES1    0.0000
     12 H2         9.8339    0.8078    4.0036 H         1 RES1    0.0000
     13 C5         9.4677   -1.0826    4.5288 C.ar      1 RES1    0.0000
     14 H3         9.9808   -1.0725    5.3036 H         1 RES1    0.0000
     15 C6         8.7890   -2.2272    4.1609 C.ar      1 RES1    0.0000
     16 C7         8.0473   -2.2318    2.9897 C.ar      1 RES1    0.0000
     17 H4         7.5916   -3.0015    2.7330 H         1 RES1    0.0000
     18 C8         7.9842   -1.1029    2.2061 C.ar      1 RES1    0.0000
     19 H5         7.4956   -1.1231    1.4157 H         1 RES1    0.0000
     20 C9         9.5318   -3.4062    6.0785 C.3       1 RES1    0.0000
     21 H6         9.4700   -4.2764    6.4807 H         1 RES1    0.0000
     22 H7         9.1618   -2.7504    6.6751 H         1 RES1    0.0000
     23 H8        10.4526   -3.1981    5.9051 H         1 RES1    0.0000
     24 C10        7.9585    1.3472    0.3973 C.3       1 RES1    0.0000
     25 H9         8.2099    0.5002   -0.0271 H         1 RES1    0.0000
     26 C11        8.4899    2.4680   -0.4740 C.ar      1 RES1    0.0000
     27 C12        9.4380    2.2229   -1.4359 C.ar      1 RES1    0.0000
     28 H10        9.7672    1.3606   -1.5571 H         1 RES1    0.0000
     29 C13        9.9109    3.2740   -2.2373 C.ar      1 RES1    0.0000
     30 H11       10.5584    3.1027   -2.8818 H         1 RES1    0.0000
     31 C14        9.4410    4.5277   -2.0860 C.ar      1 RES1    0.0000
     32 H12        9.7481    5.2108   -2.6383 H         1 RES1    0.0000
     33 C15        8.5214    4.7936   -1.1303 C.ar      1 RES1    0.0000
     34 H13        8.2071    5.6604   -1.0123 H         1 RES1    0.0000
     35 C16        8.0496    3.7723   -0.3291 C.ar      1 RES1    0.0000
     36 H14        7.4191    3.9669    0.3259 H         1 RES1    0.0000
     37 C17        5.7649    1.5389    1.7864 C.3       1 RES1    0.0000
     38 H15        5.8173    0.6560    2.2103 H         1 RES1    0.0000
     39 C18        4.2984    1.8900    1.6977 C.ar      1 RES1    0.0000
     40 C19        3.8739    2.9445    0.9129 C.ar      1 RES1    0.0000
     41 H16        4.4995    3.4278    0.4231 H         1 RES1    0.0000
     42 C20        2.5496    3.2962    0.8401 C.ar      1 RES1    0.0000
     43 H17        2.2839    3.9981    0.2903 H         1 RES1    0.0000
     44 C21        1.6311    2.6208    1.5682 C.ar      1 RES1    0.0000
     45 H18        0.7360    2.8711    1.5375 H         1 RES1    0.0000
     46 C22        2.0212    1.5691    2.3505 C.ar      1 RES1    0.0000
     47 H19        1.3844    1.1017    2.8425 H         1 RES1    0.0000
     48 C23        3.3600    1.1893    2.4200 C.ar      1 RES1    0.0000
     49 H20        3.6173    0.4691    2.9495 H         1 RES1    0.0000
     50 C24        6.4866    2.5295    2.7340 C.3       1 RES1    0.0000
     51 H21        6.2276    3.4336    2.4563 H         1 RES1    0.0000
     52 C25        6.0115    2.3492    4.1631 C.ar      1 RES1    0.0000
     53 C26        5.3308    3.3674    4.7882 C.ar      1 RES1    0.0000
     54 H22        5.2605    4.1927    4.3639 H         1 RES1    0.0000
     55 C27        4.7455    3.1989    6.0354 C.ar      1 RES1    0.0000
     56 H23        4.2829    3.9008    6.4315 H         1 RES1    0.0000
     57 C28        4.8523    1.9948    6.6797 C.ar      1 RES1    0.0000
     58 C29        5.5607    0.9643    6.0822 C.ar      1 RES1    0.0000
     59 H24        5.6536    0.1518    6.5238 H         1 RES1    0.0000
     60 C30        6.1283    1.1379    4.8383 C.ar      1 RES1    0.0000
     61 H25        6.5949    0.4360    4.4451 H         1 RES1    0.0000
     62 C31        3.4594    2.6976    8.4853 C.3       1 RES1    0.0000
     63 H26        3.1312    2.3747    9.3281 H         1 RES1    0.0000
     64 H27        2.7183    2.8847    7.9038 H         1 RES1    0.0000
     65 H28        3.9664    3.5017    8.6258 H         1 RES1    0.0000
@<TRIPOS>BOND
     1    1    6 2
     2    2    9 2
     3    3   57 1
     4    4   15 1
     5    5    6 1
     6    7    5 1
     7    8    7 1
     8    9   24 1
     9   10    7 1
    10   11   10 ar
    11   12   11 1
    12   13   11 ar
    13   14   13 1
    14   15   13 ar
    15   16   15 ar
    16   17   16 1
    17   18   10 ar
    18   19   18 1
    19   20    4 1
    20   21   20 1
    21   22   20 1
    22   23   20 1
    23   24    7 1
    24   25   24 1
    25   26   24 1
    26   27   26 ar
    27   28   27 1
    28   29   27 ar
    29   30   29 1
    30   31   29 ar
    31   32   31 1
    32   33   31 ar
    33   34   33 1
    34   35   26 ar
    35   36   35 1
    36   37    9 1
    37   38   37 1
    38   39   37 1
    39   40   39 ar
    40   41   40 1
    41   42   40 ar
    42   43   42 1
    43   44   42 ar
    44   45   44 1
    45   46   44 ar
    46   47   46 1
    47   48   39 ar
    48   49   48 1
    49   50    5 1
    50   51   50 1
    51   52   50 1
    52   53   52 ar
    53   54   53 1
    54   55   53 ar
    55   56   55 1
    56   57   55 ar
    57   58   57 ar
    58   59   58 1
    59   60   52 ar
    60   61   60 1
    61   62    3 1
    62   63   62 1
    63   64   62 1
    64   65   62 1
    65   16   18 ar
    66   33   35 ar
    67   37   50 1
    68   46   48 ar
    69   58   60 ar
@<TRIPOS>SUBSTRUCTURE
     1 RES1 1

@<TRIPOS>CRYSIN
  10.8364   19.4649   12.6722  90.0000 103.9260  90.0000 231 1

