# MOL2 file generated by ConQuest
# Please check atom types

@<TRIPOS>MOLECULE
FETZOT
    51    54     1
SMALL
NO_CHARGES
****
Generated from CSD

@<TRIPOS>ATOM
      1 O1         5.1125    1.5789   -1.0976 O.3       1 RES1    0.0000
      2 N1         4.1648    1.7970   -0.0108 N.3       1 RES1    0.0000
      3 C1         4.3830    3.1752    0.4307 C.3       1 RES1    0.0000
      4 C2         3.9990    4.1404   -0.7138 C.3       1 RES1    0.0000
      5 C3         4.6870    3.7506   -2.0381 C.3       1 RES1    0.0000
      6 C4         6.1522    4.1961   -2.0777 C.3       1 RES1    0.0000
      7 C5         6.8372    3.7634   -3.3480 C.ar      1 RES1    0.0000
      8 C6         7.8904    4.4768   -3.9202 C.ar      1 RES1    0.0000
      9 C7         8.4726    4.1532   -5.1306 C.ar      1 RES1    0.0000
     10 C8         8.0042    3.0464   -5.7988 C.ar      1 RES1    0.0000
     11 C9         6.9880    2.2900   -5.2518 C.ar      1 RES1    0.0000
     12 C10        6.4011    2.6311   -4.0318 C.ar      1 RES1    0.0000
     13 C11        5.3151    1.7448   -3.4764 C.3       1 RES1    0.0000
     14 C12        4.5646    2.2483   -2.2552 C.3       1 RES1    0.0000
     15 C13        4.4601    0.7448    0.9801 C.3       1 RES1    0.0000
     16 C14        4.1486   -0.6102    0.3599 C.3       1 RES1    0.0000
     17 C15        4.3255   -1.7332    1.3831 C.3       1 RES1    0.0000
     18 C16        3.4694   -1.5046    2.6115 C.3       1 RES1    0.0000
     19 C17        3.7742   -0.1636    3.2317 C.3       1 RES1    0.0000
     20 C18        3.6317    0.9884    2.2360 C.3       1 RES1    0.0000
     21 C19        5.7474    3.3840    0.9669 C.1       1 RES1    0.0000
     22 N2         6.7830    3.4919    1.4119 N.1       1 RES1    0.0000
     23 C20        2.4771    4.1555   -0.8541 C.3       1 RES1    0.0000
     24 N3         8.4690    5.6218   -3.1969 N.pl3     1 RES1    0.0000
     25 O2         8.8158    5.4583   -2.0417 O.2       1 RES1    0.0000
     26 O3         8.5914    6.6787   -3.7847 O.2       1 RES1    0.0000
     27 H1         3.7484    3.3759    1.1996 H         1 RES1    0.0000
     28 H2         4.3167    5.0232   -0.4438 H         1 RES1    0.0000
     29 H3         4.1725    4.1532   -2.7950 H         1 RES1    0.0000
     30 H4         6.1843    5.1740   -1.9793 H         1 RES1    0.0000
     31 H5         6.6505    3.8167   -1.3315 H         1 RES1    0.0000
     32 H6         9.1810    4.7216   -5.4581 H         1 RES1    0.0000
     33 H7         8.3751    2.8190   -6.6577 H         1 RES1    0.0000
     34 H8         6.6571    1.4733   -5.7340 H         1 RES1    0.0000
     35 H9         4.6425    1.6009   -4.1985 H         1 RES1    0.0000
     36 H10        5.7248    0.8585   -3.2509 H         1 RES1    0.0000
     37 H11        3.6148    1.9838   -2.3152 H         1 RES1    0.0000
     38 H12        5.4428    0.7657    1.2116 H         1 RES1    0.0000
     39 H13        3.1852   -0.5568    0.1080 H         1 RES1    0.0000
     40 H14        4.7405   -0.7773   -0.4319 H         1 RES1    0.0000
     41 H15        5.3399   -1.7518    1.6914 H         1 RES1    0.0000
     42 H16        4.1635   -2.5986    0.9717 H         1 RES1    0.0000
     43 H17        2.5074   -1.5313    2.3632 H         1 RES1    0.0000
     44 H18        3.5891   -2.2274    3.2749 H         1 RES1    0.0000
     45 H19        3.1830    0.0116    4.0066 H         1 RES1    0.0000
     46 H20        4.7366   -0.2204    3.6227 H         1 RES1    0.0000
     47 H21        2.6693    1.0557    1.9433 H         1 RES1    0.0000
     48 H22        3.8725    1.8330    2.6631 H         1 RES1    0.0000
     49 H23        2.1124    3.2251   -1.0556 H         1 RES1    0.0000
     50 H24        2.0372    4.5128   -0.0120 H         1 RES1    0.0000
     51 H25        2.2232    4.7796   -1.5954 H         1 RES1    0.0000
@<TRIPOS>BOND
     1    1    2 1
     2    2    3 1
     3    3    4 1
     4    4    5 1
     5    5    6 1
     6    6    7 1
     7    7    8 ar
     8    8    9 ar
     9    9   10 ar
    10   10   11 ar
    11   11   12 ar
    12   12    7 ar
    13   13   12 1
    14   14    1 1
    15   15    2 1
    16   16   15 1
    17   17   16 1
    18   18   17 1
    19   19   18 1
    20   20   15 1
    21   21    3 1
    22   22   21 3
    23   23    4 1
    24   24    8 1
    25   25   24 2
    26   26   24 2
    27   27    3 1
    28   28    4 1
    29   29    5 1
    30   30    6 1
    31   31    6 1
    32   32    9 1
    33   33   10 1
    34   34   11 1
    35   35   13 1
    36   36   13 1
    37   37   14 1
    38   38   15 1
    39   39   16 1
    40   40   16 1
    41   41   17 1
    42   42   17 1
    43   43   18 1
    44   44   18 1
    45   45   19 1
    46   46   19 1
    47   47   20 1
    48   48   20 1
    49   49   23 1
    50   50   23 1
    51   51   23 1
    52    5   14 1
    53   13   14 1
    54   19   20 1
@<TRIPOS>SUBSTRUCTURE
     1 RES1 1

@<TRIPOS>CRYSIN
  13.3750   11.6010   12.7250  90.0000 109.4900  90.0000 231 1

