# MOL2 file generated by ConQuest
# Please check atom types

@<TRIPOS>MOLECULE
FEVBUD10
    62    62     2
SMALL
NO_CHARGES
****
Generated from CSD

@<TRIPOS>ATOM
      1 O1        10.8814    3.3065    1.0882 O.2       1 RES1    0.0000
      2 O2         3.9927    8.6478    9.4208 O.2       1 RES1    0.0000
      3 O3         9.9558    2.7787    6.4470 O.3       1 RES1    0.0000
      4 O4         3.9061    7.4607    4.1372 O.3       1 RES1    0.0000
      5 N1        10.6274    3.2350    2.3510 N.3       1 RES1    0.0000
      6 N2         4.0870    8.2921    8.1978 N.3       1 RES1    0.0000
      7 C1         9.5152    2.3191    2.7312 C.3       1 RES1    0.0000
      8 C2         3.4462    7.0157    7.8077 C.3       1 RES1    0.0000
      9 C3         9.5556    2.0836    4.2394 C.3       1 RES1    0.0000
     10 C4         3.3039    6.9345    6.3066 C.3       1 RES1    0.0000
     11 C5         9.7942    3.3048    5.1219 C.3       1 RES1    0.0000
     12 C6         4.4641    7.3989    5.4553 C.3       1 RES1    0.0000
     13 C7        11.0988    3.9350    4.6749 C.3       1 RES1    0.0000
     14 C8         4.8528    8.7972    5.9136 C.3       1 RES1    0.0000
     15 C9        11.2335    4.2971    3.1937 C.3       1 RES1    0.0000
     16 C10        5.1222    9.0002    7.4005 C.3       1 RES1    0.0000
     17 C11        9.7826    0.9776    2.0317 C.3       1 RES1    0.0000
     18 C12        2.0916    6.9588    8.4731 C.3       1 RES1    0.0000
     19 C13        8.2029    2.9005    2.2346 C.3       1 RES1    0.0000
     20 C14        4.3083    5.8253    8.3482 C.3       1 RES1    0.0000
     21 C15       10.5966    5.6385    2.8745 C.3       1 RES1    0.0000
     22 C16        6.5038    8.5406    7.8233 C.3       1 RES1    0.0000
     23 C17       12.7170    4.3231    2.8404 C.3       1 RES1    0.0000
     24 C18        4.9721   10.4992    7.6998 C.3       1 RES1    0.0000
     25 C19        8.6512    4.2419    5.1502 C.1       1 RES1    0.0000
     26 C20        5.6379    6.4911    5.4297 C.1       1 RES1    0.0000
     27 C21        7.7006    4.9597    5.2481 C.1       1 RES1    0.0000
     28 C22        6.5904    5.7847    5.3276 C.1       1 RES1    0.0000
     29 H1        10.2367    3.4754    6.9663 H         1 RES1    0.0000
     30 H2         4.4834    7.8114    3.6321 H         1 RES1    0.0000
     31 H3        10.3137    1.4454    4.4125 H         1 RES1    0.0000
     32 H4         3.0787    6.0900    6.0867 H         1 RES1    0.0000
     33 H5         8.7744    1.7214    4.4692 H         1 RES1    0.0000
     34 H6         2.3283    7.6978    6.2143 H         1 RES1    0.0000
     35 H7        11.7569    3.2967    4.8097 H         1 RES1    0.0000
     36 H8         5.6379    9.0782    5.4624 H         1 RES1    0.0000
     37 H9        11.2758    4.6934    5.1786 H         1 RES1    0.0000
     38 H10        4.1755    9.3055    5.6752 H         1 RES1    0.0000
     39 H11       10.6601    0.6171    2.3978 H         1 RES1    0.0000
     40 H12        1.6356    7.9251    7.7041 Du        2 SUP2    0.0000
     41 H13        9.7172    1.1855    1.0641 H         1 RES1    0.0000
     42 H14        2.1359    6.9182    9.3925 H         1 RES1    0.0000
     43 H15        9.1400    0.3898    2.3268 H         1 RES1    0.0000
     44 H16        1.6741    6.1874    8.1439 H         1 RES1    0.0000
     45 H17        8.0239    3.7190    2.6957 H         1 RES1    0.0000
     46 H18        3.7329    4.9532    8.0730 H         1 RES1    0.0000
     47 H19        7.5236    2.3386    2.4120 H         1 RES1    0.0000
     48 H20        5.2531    5.7977    7.7892 H         1 RES1    0.0000
     49 H21        8.2548    3.0531    1.2344 H         1 RES1    0.0000
     50 H22        4.5219    5.9276    9.3783 H         1 RES1    0.0000
     51 H23       10.7178    5.8464    1.9721 H         1 RES1    0.0000
     52 H24        7.1965    9.0457    7.3919 H         1 RES1    0.0000
     53 H25        9.5633    5.6678    3.0930 H         1 RES1    0.0000
     54 H26        6.6770    7.5841    7.5764 H         1 RES1    0.0000
     55 H27       11.1219    6.3498    3.3200 H         1 RES1    0.0000
     56 H28        6.6577    8.6397    8.6831 H         1 RES1    0.0000
     57 H29       13.1423    5.0669    3.2632 H         1 RES1    0.0000
     58 H30        5.1953   10.7346    8.6263 H         1 RES1    0.0000
     59 H31       12.7382    4.4985    1.9296 H         1 RES1    0.0000
     60 H32        3.9639   10.7346    7.5622 H         1 RES1    0.0000
     61 H33       12.9691    3.4266    3.0504 H         1 RES1    0.0000
     62 H34        5.6764   10.8970    7.1224 H         1 RES1    0.0000
@<TRIPOS>BOND
     1    1    5 1
     2    2    6 1
     3    3   11 1
     4    4   12 1
     5    5    7 1
     6    6    8 1
     7    7    9 1
     8    8   10 1
     9    9   11 1
    10   10   12 1
    11   11   13 1
    12   12   14 1
    13   13   15 1
    14   14   16 1
    15   15    5 1
    16   16    6 1
    17   17    7 1
    18   18    8 1
    19   19    7 1
    20   20    8 1
    21   21   15 1
    22   22   16 1
    23   23   15 1
    24   24   16 1
    25   25   11 1
    26   26   12 1
    27   27   25 3
    28   28   26 3
    29   29    3 1
    30   30    4 1
    31   31    9 1
    32   32   10 1
    33   33    9 1
    34   34   10 1
    35   35   13 1
    36   36   14 1
    37   37   13 1
    38   38   14 1
    39   39   17 1
    40   41   17 1
    41   42   18 1
    42   43   17 1
    43   44   18 1
    44   45   19 1
    45   46   20 1
    46   47   19 1
    47   48   20 1
    48   49   19 1
    49   50   20 1
    50   51   21 1
    51   52   22 1
    52   53   21 1
    53   54   22 1
    54   55   21 1
    55   56   22 1
    56   57   23 1
    57   58   24 1
    58   59   23 1
    59   60   24 1
    60   61   23 1
    61   62   24 1
    62   27   28 1
@<TRIPOS>SUBSTRUCTURE
     1 RES1 1
     2 SUP2 40

@<TRIPOS>CRYSIN
  19.2420   16.2400   14.1880  90.0000  90.0000  90.0000  56 1

