# MOL2 file generated by ConQuest
# Please check atom types

@<TRIPOS>MOLECULE
FEVBUD01
    62    63     1
SMALL
NO_CHARGES
****
Generated from CSD

@<TRIPOS>ATOM
      1 O1        10.3407    3.0733   13.3621 O.3       1 RES1    0.0000
      2 O2         4.9357    2.9989   14.2827 O.2       1 RES1    0.0000
      3 O3         7.5376    8.9362    8.6534 O.3       1 RES1    0.0000
      4 O4        12.8941    9.0848    7.5818 O.2       1 RES1    0.0000
      5 N1         6.2181    3.0603   14.0695 N.3       1 RES1    0.0000
      6 N2        11.6545    8.9620    7.8988 N.3       1 RES1    0.0000
      7 C1         8.8985    4.5210   12.2717 C.1       1 RES1    0.0000
      8 C2         8.9113    5.4630   11.4869 C.1       1 RES1    0.0000
      9 C3         8.9128    6.5198   10.5833 C.1       1 RES1    0.0000
     10 C4         8.9484    7.3786    9.7796 C.1       1 RES1    0.0000
     11 C5         8.9613    3.5144   13.2734 C.3       1 RES1    0.0000
     12 C6         8.2166    2.1934   12.8697 C.3       1 RES1    0.0000
     13 C7         6.6746    2.2605   12.8810 C.3       1 RES1    0.0000
     14 C8         6.9299    4.1082   14.7958 C.3       1 RES1    0.0000
     15 C9         8.4549    3.8876   14.6487 C.3       1 RES1    0.0000
     16 C10        6.1425    0.8758   13.0036 C.3       1 RES1    0.0000
     17 C11        6.1311    2.9601   11.6190 C.3       1 RES1    0.0000
     18 C12        6.5619    3.9854   16.2579 C.3       1 RES1    0.0000
     19 C13        6.5205    5.4864   14.2808 C.3       1 RES1    0.0000
     20 C14        8.8928    8.5217    8.7628 C.3       1 RES1    0.0000
     21 C15        9.3935    8.0119    7.3894 C.3       1 RES1    0.0000
     22 C16       10.8899    7.7898    7.2574 C.3       1 RES1    0.0000
     23 C17       11.1966    9.6512    9.1269 C.3       1 RES1    0.0000
     24 C18        9.6717    9.7207    9.1363 C.3       1 RES1    0.0000
     25 C19       11.3935    6.4987    7.8724 C.3       1 RES1    0.0000
     26 C20       11.2565    7.7817    5.7538 C.3       1 RES1    0.0000
     27 C21       11.7358   11.1014    9.0533 C.3       1 RES1    0.0000
     28 C22       11.7786    9.0000   10.3758 C.3       1 RES1    0.0000
     29 H1        10.8799    3.7963   13.6790 H         1 RES1    0.0000
     30 H2         7.0298    8.2107    8.2666 H         1 RES1    0.0000
     31 H3         8.4991    1.4849   13.4413 H         1 RES1    0.0000
     32 H4         8.5148    1.9034   12.0264 H         1 RES1    0.0000
     33 H5         8.9499    4.6511   14.9637 H         1 RES1    0.0000
     34 H6         8.7587    3.2122   15.2712 H         1 RES1    0.0000
     35 H7         6.4164    0.3732   12.2509 H         1 RES1    0.0000
     36 H8         5.1896    0.9145   13.0301 H         1 RES1    0.0000
     37 H9         6.4706    0.4888   13.7960 H         1 RES1    0.0000
     38 H10        6.4007    2.4601   10.8587 H         1 RES1    0.0000
     39 H11        6.4749    3.8303   11.5812 H         1 RES1    0.0000
     40 H12        5.1810    2.9763   11.6661 H         1 RES1    0.0000
     41 H13        7.0027    4.6438   16.7653 H         1 RES1    0.0000
     42 H14        6.7944    3.1193   16.5691 H         1 RES1    0.0000
     43 H15        5.6147    4.1009   16.3333 H         1 RES1    0.0000
     44 H16        6.9984    6.1554   14.7487 H         1 RES1    0.0000
     45 H17        5.5905    5.5882   14.4280 H         1 RES1    0.0000
     46 H18        6.7103    5.5406   13.3526 H         1 RES1    0.0000
     47 H19        9.1225    8.6033    6.7065 H         1 RES1    0.0000
     48 H20        8.9584    7.2291    7.1517 H         1 RES1    0.0000
     49 H21        9.3678   10.0543    9.9683 H         1 RES1    0.0000
     50 H22        9.3892   10.4518    8.5892 H         1 RES1    0.0000
     51 H23       10.9512    5.7700    7.4743 H         1 RES1    0.0000
     52 H24       11.2308    6.5173    8.8043 H         1 RES1    0.0000
     53 H25       12.3392    6.4163    7.7214 H         1 RES1    0.0000
     54 H26       10.8086    7.0538    5.3350 H         1 RES1    0.0000
     55 H27       12.1980    7.6670    5.6482 H         1 RES1    0.0000
     56 H28       10.9869    8.5944    5.3577 H         1 RES1    0.0000
     57 H29       11.4605   11.5942    9.8287 H         1 RES1    0.0000
     58 H30       11.3877   11.5409    8.2798 H         1 RES1    0.0000
     59 H31       12.6830   11.1005    9.0118 H         1 RES1    0.0000
     60 H32       11.4648    9.4444   11.1586 H         1 RES1    0.0000
     61 H33       12.7315    9.0477   10.3569 H         1 RES1    0.0000
     62 H34       11.5204    8.0790   10.4248 H         1 RES1    0.0000
@<TRIPOS>BOND
     1    1   11 1
     2    2    5 1
     3    3   20 1
     4    4    6 1
     5    5   13 1
     6    6   22 1
     7    7    8 3
     8    8    9 1
     9    9   10 3
    10   10   20 1
    11   11    7 1
    12   12   11 1
    13   13   12 1
    14   14    5 1
    15   15   11 1
    16   16   13 1
    17   17   13 1
    18   18   14 1
    19   19   14 1
    20   20   21 1
    21   21   22 1
    22   22   25 1
    23   23    6 1
    24   24   20 1
    25   25   51 1
    26   26   22 1
    27   27   23 1
    28   28   23 1
    29   29    1 1
    30   30    3 1
    31   31   12 1
    32   32   12 1
    33   33   15 1
    34   34   15 1
    35   35   16 1
    36   36   16 1
    37   37   16 1
    38   38   17 1
    39   39   17 1
    40   40   17 1
    41   41   18 1
    42   42   18 1
    43   43   18 1
    44   44   19 1
    45   45   19 1
    46   46   19 1
    47   47   21 1
    48   48   21 1
    49   49   24 1
    50   50   24 1
    51   52   25 1
    52   53   25 1
    53   54   26 1
    54   55   26 1
    55   56   26 1
    56   57   27 1
    57   58   27 1
    58   59   27 1
    59   60   28 1
    60   61   28 1
    61   62   28 1
    62   14   15 1
    63   23   24 1
@<TRIPOS>SUBSTRUCTURE
     1 RES1 1

@<TRIPOS>CRYSIN
  14.2650    8.0790   18.8650  90.0000  90.0000  90.0000  29 1

