# MOL2 file generated by ConQuest
# Please check atom types

@<TRIPOS>MOLECULE
FEVGAR
    37    38     1
SMALL
NO_CHARGES
****
Generated from CSD

@<TRIPOS>ATOM
      1 O1         2.2291    2.7888    5.7658 O.3       1 RES1    0.0000
      2 O2         0.1386    3.5937    3.1353 O.2       1 RES1    0.0000
      3 O3         6.9401    6.7233    4.5000 O.3       1 RES1    0.0000
      4 N1         2.3082    4.0740    6.4501 N.3       1 RES1    0.0000
      5 C1         2.4962    5.1085    5.4139 C.3       1 RES1    0.0000
      6 H1         2.5622    5.9815    5.8975 H         1 RES1    0.0000
      7 C2         1.1892    5.1604    4.6012 C.3       1 RES1    0.0000
      8 H2         0.4942    5.5060    5.2313 H         1 RES1    0.0000
      9 C3         0.7138    3.7888    4.1819 C.2       1 RES1    0.0000
     10 C4         0.9148    2.6724    5.2009 C.3       1 RES1    0.0000
     11 H3         0.2372    2.7716    5.9296 H         1 RES1    0.0000
     12 C5         0.8030    1.2859    4.6112 C.3       1 RES1    0.0000
     13 H4         1.5112    1.1554    3.9462 H         1 RES1    0.0000
     14 H5        -0.0710    1.1840    4.1805 H         1 RES1    0.0000
     15 H6         0.8969    0.6193    5.3234 H         1 RES1    0.0000
     16 C6         1.2260    6.1531    3.4452 C.3       1 RES1    0.0000
     17 H7         1.8035    5.8048    2.7337 H         1 RES1    0.0000
     18 H8         1.5800    7.0105    3.7620 H         1 RES1    0.0000
     19 H9         0.3188    6.2820    3.0967 H         1 RES1    0.0000
     20 C7         3.7638    4.9848    4.5811 C.ar      1 RES1    0.0000
     21 C8         4.8128    5.8401    4.8643 C.ar      1 RES1    0.0000
     22 H10        4.7195    6.4743    5.5657 H         1 RES1    0.0000
     23 C9         6.0048    5.7903    4.1406 C.ar      1 RES1    0.0000
     24 C10        8.1103    6.8234    3.6893 C.3       1 RES1    0.0000
     25 H11        8.6382    6.0014    3.7737 H         1 RES1    0.0000
     26 H12        8.6478    7.5882    3.9847 H         1 RES1    0.0000
     27 H13        7.8497    6.9498    2.7533 H         1 RES1    0.0000
     28 C11        6.1634    4.8595    3.1307 C.ar      1 RES1    0.0000
     29 H14        6.9806    4.8027    2.6487 H         1 RES1    0.0000
     30 C12        5.1043    4.0080    2.8336 C.ar      1 RES1    0.0000
     31 H15        5.2008    3.3744    2.1318 H         1 RES1    0.0000
     32 C13        3.9113    4.0632    3.5387 C.ar      1 RES1    0.0000
     33 H16        3.1966    3.4775    3.3149 H         1 RES1    0.0000
     34 C14        3.4388    3.9394    7.3547 C.3       1 RES1    0.0000
     35 H17        3.2393    3.2566    8.0284 H         1 RES1    0.0000
     36 H18        3.6068    4.7975    7.7986 H         1 RES1    0.0000
     37 H19        4.2329    3.6741    6.8471 H         1 RES1    0.0000
@<TRIPOS>BOND
     1    1    4 1
     2    2    9 2
     3    3   23 1
     4    4    5 1
     5    5    6 1
     6    7    5 1
     7    8    7 1
     8    9    7 1
     9   10    1 1
    10   11   10 1
    11   12   10 1
    12   13   12 1
    13   14   12 1
    14   15   12 1
    15   16    7 1
    16   17   16 1
    17   18   16 1
    18   19   16 1
    19   20    5 1
    20   21   20 ar
    21   22   21 1
    22   23   21 ar
    23   24    3 1
    24   25   24 1
    25   26   24 1
    26   27   24 1
    27   28   23 ar
    28   29   28 1
    29   30   28 ar
    30   31   30 1
    31   32   20 ar
    32   33   32 1
    33   34    4 1
    34   35   34 1
    35   36   34 1
    36   37   34 1
    37    9   10 1
    38   30   32 ar
@<TRIPOS>SUBSTRUCTURE
     1 RES1 1

@<TRIPOS>CRYSIN
  16.8110    8.6613    9.1359  90.0000 101.8160  90.0000  14 1

