# MOL2 file generated by ConQuest
# Please check atom types

@<TRIPOS>MOLECULE
FEVVUA
    48    53     1
SMALL
NO_CHARGES
****
Generated from CSD

@<TRIPOS>ATOM
      1 O1        11.7886    4.6079    4.6581 O.3       1 RES1    0.0000
      2 O2        10.4532    0.7360    5.2039 O.2       1 RES1    0.0000
      3 N1        10.7694    4.6305    5.6529 N.2       1 RES1    0.0000
      4 N2        12.1187    1.6263    3.9063 N.am      1 RES1    0.0000
      5 C1        11.3468    3.7911    3.5421 C.3       1 RES1    0.0000
      6 H1        11.0322    4.3377    2.7925 H         1 RES1    0.0000
      7 C2        12.4290    2.8029    3.1109 C.3       1 RES1    0.0000
      8 H2        12.2952    2.5854    2.1645 H         1 RES1    0.0000
      9 C3        13.8529    3.2631    3.3009 C.ar      1 RES1    0.0000
     10 C4        14.2199    4.5135    2.7557 C.ar      1 RES1    0.0000
     11 H3        13.5851    5.0162    2.2978 H         1 RES1    0.0000
     12 C5        15.4836    4.9951    2.8886 C.ar      1 RES1    0.0000
     13 H4        15.7093    5.8139    2.5100 H         1 RES1    0.0000
     14 C6        16.4584    4.2578    3.5997 C.ar      1 RES1    0.0000
     15 C7        17.7747    4.7492    3.7815 C.ar      1 RES1    0.0000
     16 H5        18.0147    5.5642    3.4048 H         1 RES1    0.0000
     17 C8        18.6955    4.0445    4.5020 C.ar      1 RES1    0.0000
     18 H6        19.5612    4.3690    4.5978 H         1 RES1    0.0000
     19 C9        18.3332    2.8352    5.0934 C.ar      1 RES1    0.0000
     20 H7        18.9596    2.3680    5.5976 H         1 RES1    0.0000
     21 C10       17.0726    2.3225    4.9450 C.ar      1 RES1    0.0000
     22 H8        16.8520    1.5177    5.3550 H         1 RES1    0.0000
     23 C11       16.0987    3.0091    4.1705 C.ar      1 RES1    0.0000
     24 C12       14.7687    2.5033    3.9834 C.ar      1 RES1    0.0000
     25 C13       14.3986    1.1489    4.5633 C.3       1 RES1    0.0000
     26 H9        15.1217    0.5258    4.3909 H         1 RES1    0.0000
     27 H10       14.3059    1.2336    5.5251 H         1 RES1    0.0000
     28 C14       13.1123    0.5794    3.9943 C.3       1 RES1    0.0000
     29 H11       13.2793    0.2093    3.1128 H         1 RES1    0.0000
     30 H12       12.7884   -0.1335    4.5663 H         1 RES1    0.0000
     31 C15       10.9100    1.6226    4.4913 C.2       1 RES1    0.0000
     32 C16       10.2302    2.9502    4.1333 C.3       1 RES1    0.0000
     33 H13        9.4728    2.8382    3.5224 H         1 RES1    0.0000
     34 C17        9.8795    3.7523    5.3612 C.2       1 RES1    0.0000
     35 C18        8.6685    3.5611    6.1671 C.ar      1 RES1    0.0000
     36 C19        7.8137    2.4909    5.8988 C.ar      1 RES1    0.0000
     37 H14        8.0312    1.8857    5.2269 H         1 RES1    0.0000
     38 C20        6.6456    2.3218    6.6230 C.ar      1 RES1    0.0000
     39 H15        6.0801    1.6127    6.4167 H         1 RES1    0.0000
     40 C21        6.2993    3.1936    7.6545 C.ar      1 RES1    0.0000
     41 C22        5.0081    2.9960    8.4115 C.3       1 RES1    0.0000
     42 H16        4.2672    3.0657    7.8051 H         1 RES1    0.0000
     43 H17        4.9291    3.6694    9.0916 H         1 RES1    0.0000
     44 H18        5.0061    2.1274    8.8196 H         1 RES1    0.0000
     45 C23        7.1678    4.2495    7.9324 C.ar      1 RES1    0.0000
     46 H19        6.9655    4.8362    8.6253 H         1 RES1    0.0000
     47 C24        8.3259    4.4429    7.1980 C.ar      1 RES1    0.0000
     48 H20        8.8799    5.1638    7.3913 H         1 RES1    0.0000
@<TRIPOS>BOND
     1    1    3 1
     2    2   31 2
     3    3   34 2
     4    4    7 1
     5    5    1 1
     6    6    5 1
     7    7    5 1
     8    8    7 1
     9    9    7 1
    10   10    9 ar
    11   11   10 1
    12   12   10 ar
    13   13   12 1
    14   14   12 ar
    15   15   14 ar
    16   16   15 1
    17   17   15 ar
    18   18   17 1
    19   19   17 ar
    20   20   19 1
    21   21   19 ar
    22   22   21 1
    23   23   14 ar
    24   24    9 ar
    25   25   24 1
    26   26   25 1
    27   27   25 1
    28   28    4 1
    29   29   28 1
    30   30   28 1
    31   31    4 1
    32   32    5 1
    33   33   32 1
    34   34   32 1
    35   35   34 1
    36   36   35 ar
    37   37   36 1
    38   38   36 ar
    39   39   38 1
    40   40   38 ar
    41   41   40 1
    42   42   41 1
    43   43   41 1
    44   44   41 1
    45   45   40 ar
    46   46   45 1
    47   47   35 ar
    48   48   47 1
    49   21   23 ar
    50   23   24 ar
    51   25   28 1
    52   31   32 1
    53   45   47 ar
@<TRIPOS>SUBSTRUCTURE
     1 RES1 1

@<TRIPOS>CRYSIN
  17.0717   10.1112   10.5489  90.0000  95.4030  90.0000  14 1

