# MOL2 file generated by ConQuest
# Please check atom types

@<TRIPOS>MOLECULE
FEVWAH
    48    53     1
SMALL
NO_CHARGES
****
Generated from CSD

@<TRIPOS>ATOM
      1 O1         3.5959    6.1003   14.4818 O.2       1 RES1    0.0000
      2 O2         0.2205    5.2245   17.4941 O.3       1 RES1    0.0000
      3 N1         1.5595    5.0655   14.3121 N.am      1 RES1    0.0000
      4 N2         1.4477    5.1471   18.1925 N.2       1 RES1    0.0000
      5 C1         2.3765    5.7393   17.5296 C.2       1 RES1    0.0000
      6 C2         2.4864    5.8206   14.9212 C.2       1 RES1    0.0000
      7 C3         1.8912    6.3435   16.2294 C.3       1 RES1    0.0000
      8 H1         1.9368    7.3220   16.2649 H         1 RES1    0.0000
      9 C4        -0.8913    5.1492   14.1656 C.ar      1 RES1    0.0000
     10 C5        -3.1951    5.9299   12.7623 C.ar      1 RES1    0.0000
     11 C6        -0.7754    5.4063   12.8146 C.ar      1 RES1    0.0000
     12 C7         3.7235    5.8747   18.1057 C.ar      1 RES1    0.0000
     13 C8         0.3112    4.8726   15.0372 C.3       1 RES1    0.0000
     14 H2         0.2663    3.9558   15.3804 H         1 RES1    0.0000
     15 C9         0.4382    5.8709   16.2205 C.3       1 RES1    0.0000
     16 H3        -0.1734    6.6276   16.1049 H         1 RES1    0.0000
     17 C10       -1.9443    5.8230   12.0900 C.ar      1 RES1    0.0000
     18 C11       -2.1562    5.1949   14.8142 C.ar      1 RES1    0.0000
     19 H4        -2.2178    4.9625   15.7121 H         1 RES1    0.0000
     20 C12        1.6328    4.6066   12.9319 C.3       1 RES1    0.0000
     21 H5         1.5013    3.6465   12.8985 H         1 RES1    0.0000
     22 H6         2.5089    4.8055   12.5668 H         1 RES1    0.0000
     23 C13       -4.3361    6.3915   12.0552 C.ar      1 RES1    0.0000
     24 H7        -5.1523    6.4623   12.4939 H         1 RES1    0.0000
     25 C14        0.5555    5.3050   12.0980 C.3       1 RES1    0.0000
     26 H8         0.8609    6.1974   11.8729 H         1 RES1    0.0000
     27 H9         0.4309    4.8155   11.2706 H         1 RES1    0.0000
     28 C15       -4.2462    6.7347   10.7263 C.ar      1 RES1    0.0000
     29 H10       -4.9955    7.0510   10.2756 H         1 RES1    0.0000
     30 C16       -3.2800    5.5737   14.1409 C.ar      1 RES1    0.0000
     31 H11       -4.1002    5.5995   14.5806 H         1 RES1    0.0000
     32 C17        4.7065    6.6178   17.4508 C.ar      1 RES1    0.0000
     33 H12        4.5197    7.0150   16.6319 H         1 RES1    0.0000
     34 C18       -1.8959    6.1647   10.7110 C.ar      1 RES1    0.0000
     35 H13       -1.0925    6.0879   10.2497 H         1 RES1    0.0000
     36 C19        6.2834    6.1847   19.2476 C.ar      1 RES1    0.0000
     37 C20        4.0391    5.2768   19.3358 C.ar      1 RES1    0.0000
     38 H14        3.3979    4.7711   19.7795 H         1 RES1    0.0000
     39 C21       -3.0159    6.6060   10.0490 C.ar      1 RES1    0.0000
     40 H15       -2.9624    6.8221    9.1464 H         1 RES1    0.0000
     41 C22        5.2978    5.4329   19.8943 C.ar      1 RES1    0.0000
     42 H16        5.4894    5.0314   20.7111 H         1 RES1    0.0000
     43 C23        5.9663    6.7650   18.0231 C.ar      1 RES1    0.0000
     44 H17        6.6121    7.2631   17.5752 H         1 RES1    0.0000
     45 C24        7.6492    6.3650   19.8578 C.3       1 RES1    0.0000
     46 H18        7.6091    7.0418   20.5370 H         1 RES1    0.0000
     47 H19        8.2709    6.6307   19.1773 H         1 RES1    0.0000
     48 H20        7.9373    5.5359   20.2476 H         1 RES1    0.0000
@<TRIPOS>BOND
     1    1    6 2
     2    2    4 1
     3    3    6 1
     4    4    5 2
     5    5    7 1
     6    6    7 1
     7    7    8 1
     8    9   11 ar
     9   10   17 ar
    10   11   17 ar
    11   12    5 1
    12   13    3 1
    13   14   13 1
    14   15    2 1
    15   16   15 1
    16   17   34 ar
    17   18    9 ar
    18   19   18 1
    19   20    3 1
    20   21   20 1
    21   22   20 1
    22   23   10 ar
    23   24   23 1
    24   25   11 1
    25   26   25 1
    26   27   25 1
    27   28   23 ar
    28   29   28 1
    29   30   10 ar
    30   31   30 1
    31   32   12 ar
    32   33   32 1
    33   34   35 1
    34   36   41 ar
    35   37   12 ar
    36   38   37 1
    37   39   28 ar
    38   40   39 1
    39   41   37 ar
    40   42   41 1
    41   43   32 ar
    42   44   43 1
    43   45   36 1
    44   46   45 1
    45   47   45 1
    46   48   45 1
    47    7   15 1
    48    9   13 1
    49   13   15 1
    50   18   30 ar
    51   20   25 1
    52   34   39 ar
    53   36   43 ar
@<TRIPOS>SUBSTRUCTURE
     1 RES1 1

@<TRIPOS>CRYSIN
  10.1551    7.6558   23.6314  90.0000  95.4490  90.0000 231 1

