# MOL2 file generated by ConQuest
# Please check atom types

@<TRIPOS>MOLECULE
FEVXIN
    77    80     1
SMALL
NO_CHARGES
****
Generated from CSD

@<TRIPOS>ATOM
      1 O1         7.2859    2.0699   15.2568 O.3       1 RES1    0.0000
      2 O2         5.2383    4.2879   13.4054 O.3       1 RES1    0.0000
      3 O3         5.2910    1.8188   16.1574 O.2       1 RES1    0.0000
      4 O4         5.5816    6.1710   12.2598 O.2       1 RES1    0.0000
      5 O5        12.9593    1.9979   16.4158 O.3       1 RES1    0.0000
      6 O6         0.4182    2.4010    8.9504 O.2       1 RES1    0.0000
      7 O7         0.0980    4.4632    8.3911 O.2       1 RES1    0.0000
      8 N1         0.6788    3.6031    9.0237 N.pl3     1 RES1    0.0000
      9 C1         1.7567    4.0040    9.9436 C.ar      1 RES1    0.0000
     10 C2         3.8121    4.7199   11.6022 C.ar      1 RES1    0.0000
     11 C3         2.3751    5.2068    9.7180 C.ar      1 RES1    0.0000
     12 C4         3.4233    5.5539   10.5588 C.ar      1 RES1    0.0000
     13 C5         2.1054    3.1690   10.9850 C.ar      1 RES1    0.0000
     14 C6         3.1378    3.5377   11.8278 C.ar      1 RES1    0.0000
     15 C7        14.1194    0.6488   12.6243 C.2       1 RES1    0.0000
     16 C8        14.3661    1.5071   13.7756 C.2       1 RES1    0.0000
     17 C9         8.2853    3.0093   14.7592 C.3       1 RES1    0.0000
     18 C10        4.9624    5.1602   12.4334 C.2       1 RES1    0.0000
     19 C11       12.9914    0.6111   11.9184 C.2       1 RES1    0.0000
     20 C12       13.2823    2.5302   14.0900 C.3       1 RES1    0.0000
     21 C13        6.1119    2.5823   15.7235 C.2       1 RES1    0.0000
     22 C14       11.8198    1.4694   12.2964 C.3       1 RES1    0.0000
     23 C15       11.8964    1.9208   13.7602 C.3       1 RES1    0.0000
     24 C16        6.3819    4.5818   14.2751 C.3       1 RES1    0.0000
     25 C17       15.5049    1.4572   14.4429 C.2       1 RES1    0.0000
     26 C18       13.4074    3.0442   15.5152 C.3       1 RES1    0.0000
     27 C19        9.4013    2.1398   14.1903 C.3       1 RES1    0.0000
     28 C20        7.6336    3.9076   13.7062 C.3       1 RES1    0.0000
     29 C21       10.7401    2.8690   14.1536 C.3       1 RES1    0.0000
     30 C22       14.8497    3.4335   15.8681 C.3       1 RES1    0.0000
     31 C23       11.6799    2.6106   11.2685 C.3       1 RES1    0.0000
     32 C24        6.0102    4.0745   15.6020 C.3       1 RES1    0.0000
     33 C25       15.8420    2.3100   15.6309 C.3       1 RES1    0.0000
     34 C26       16.0313    1.4156   16.9018 C.3       1 RES1    0.0000
     35 C27       12.2358    2.3112   17.4958 C.2       1 RES1    0.0000
     36 C28       11.9853    1.1755   18.4100 C.3       1 RES1    0.0000
     37 O8        11.8089    3.4229   17.6520 O.2       1 RES1    0.0000
     38 C29       10.6016    1.1317   18.9364 C.3       1 RES1    0.0000
     39 C30       12.9804    1.2887   19.5555 C.3       1 RES1    0.0000
     40 C31        9.5805    0.8794   17.9085 C.3       1 RES1    0.0000
     41 H1         1.7328    5.8333    8.8906 H         1 RES1    0.0000
     42 H2         3.8706    6.3268   10.3949 H         1 RES1    0.0000
     43 H3         1.4293    2.4675   11.5713 H         1 RES1    0.0000
     44 H4         3.3688    3.1551   12.5356 H         1 RES1    0.0000
     45 H5        14.9109    0.2107   12.4199 H         1 RES1    0.0000
     46 H6         8.6320    3.5821   15.5634 H         1 RES1    0.0000
     47 H7        12.9752    0.2329   10.9927 H         1 RES1    0.0000
     48 H8        13.3831    3.1939   13.4806 H         1 RES1    0.0000
     49 H9        10.9589    0.8595   12.1499 H         1 RES1    0.0000
     50 H10       11.7529    1.1035   14.6570 H         1 RES1    0.0000
     51 H11        6.6499    5.5783   14.2520 H         1 RES1    0.0000
     52 H12       16.2770    0.8373   14.2327 H         1 RES1    0.0000
     53 H13       12.7716    3.9037   15.5634 H         1 RES1    0.0000
     54 H14        9.5785    1.4084   14.8306 H         1 RES1    0.0000
     55 H15        9.0963    1.6857   13.3070 H         1 RES1    0.0000
     56 H16        7.3959    3.2605   13.0370 H         1 RES1    0.0000
     57 H17       10.6398    3.5599   13.5384 H         1 RES1    0.0000
     58 H18       14.7817    3.7318   16.8748 H         1 RES1    0.0000
     59 H19       15.0267    4.1698   15.3513 H         1 RES1    0.0000
     60 H20       10.7662    3.1773   11.3399 H         1 RES1    0.0000
     61 H21       12.4037    3.1107   11.1856 H         1 RES1    0.0000
     62 H22       11.7153    2.2457   10.2985 H         1 RES1    0.0000
     63 H23        6.4955    4.3251   16.4505 H         1 RES1    0.0000
     64 H24        5.1129    4.1809   15.7948 H         1 RES1    0.0000
     65 H25       16.7402    2.6172   15.5248 H         1 RES1    0.0000
     66 H26       15.2835    1.0369   17.2798 H         1 RES1    0.0000
     67 H27       16.5107    0.8927   16.6434 H         1 RES1    0.0000
     68 H28       16.3909    2.1182   17.8198 H         1 RES1    0.0000
     69 H29       12.3092    0.4991   18.0127 H         1 RES1    0.0000
     70 H30       10.5138    0.3882   19.7291 H         1 RES1    0.0000
     71 H31       10.3711    2.0184   19.4398 H         1 RES1    0.0000
     72 H32       12.6316    0.2717   20.0569 H         1 RES1    0.0000
     73 H33       13.8988    1.2754   19.2277 H         1 RES1    0.0000
     74 H34       12.9583    1.9851   20.2884 H         1 RES1    0.0000
     75 H35        8.6575    0.8927   18.4177 H         1 RES1    0.0000
     76 H36        9.4594    1.8576   17.2027 H         1 RES1    0.0000
     77 H37        9.5913    0.3937   17.5305 H         1 RES1    0.0000
@<TRIPOS>BOND
     1    1   17 1
     2    2   18 1
     3    3   21 2
     4    4   18 2
     5    5   26 1
     6    6    8 2
     7    7    8 2
     8    8    9 1
     9    9   11 ar
    10   10   12 ar
    11   11   12 ar
    12   12   42 1
    13   13    9 ar
    14   14   10 ar
    15   15   16 1
    16   16   20 1
    17   17   27 1
    18   18   10 1
    19   19   15 2
    20   20   23 1
    21   21    1 1
    22   22   19 1
    23   23   22 1
    24   24    2 1
    25   25   16 2
    26   26   20 1
    27   27   29 1
    28   28   17 1
    29   29   23 1
    30   30   26 1
    31   31   22 1
    32   32   21 1
    33   33   25 1
    34   34   33 1
    35   35    5 1
    36   36   35 1
    37   37   35 2
    38   38   36 1
    39   39   36 1
    40   40   38 1
    41   41   11 1
    42   43   13 1
    43   44   14 1
    44   45   15 1
    45   46   17 1
    46   47   19 1
    47   48   20 1
    48   49   22 1
    49   50   23 1
    50   51   24 1
    51   52   25 1
    52   53   26 1
    53   54   27 1
    54   55   27 1
    55   56   28 1
    56   57   29 1
    57   58   30 1
    58   59   30 1
    59   60   31 1
    60   61   31 1
    61   62   31 1
    62   63   32 1
    63   64   32 1
    64   65   33 1
    65   66   34 1
    66   67   34 1
    67   68   34 1
    68   69   36 1
    69   70   38 1
    70   71   38 1
    71   72   39 1
    72   73   39 1
    73   74   39 1
    74   75   40 1
    75   76   40 1
    76   77   40 1
    77   13   14 ar
    78   24   28 1
    79   24   32 1
    80   30   33 1
@<TRIPOS>SUBSTRUCTURE
     1 RES1 1

@<TRIPOS>CRYSIN
  13.9850    5.5450   20.0280  90.0000 105.6500  90.0000   4 1

