# MOL2 file generated by ConQuest
# Please check atom types

@<TRIPOS>MOLECULE
FEWLUO
    39    39     1
SMALL
NO_CHARGES
****
Generated from CSD

@<TRIPOS>ATOM
      1 O1         4.1845    1.1380   12.0200 O.3       1 RES1    0.0000
      2 N1         5.3940    1.2991   12.7151 N.2       1 RES1    0.0000
      3 C1         5.1952    1.9569   13.7928 C.2       1 RES1    0.0000
      4 C2         6.2882    2.2654   14.6985 C.2       1 RES1    0.0000
      5 C3         7.6185    1.6319   14.4282 C.ar      1 RES1    0.0000
      6 C4         8.7045    2.4177   14.0631 C.ar      1 RES1    0.0000
      7 C5         9.9387    1.8327   13.8051 C.ar      1 RES1    0.0000
      8 C6        10.1030    0.4657   13.9280 C.ar      1 RES1    0.0000
      9 C7         9.0264   -0.3192   14.2808 C.ar      1 RES1    0.0000
     10 C8         7.7921    0.2542   14.5125 C.ar      1 RES1    0.0000
     11 C9         6.1156    3.1173   15.7324 C.2       1 RES1    0.0000
     12 C10        4.8703    3.9118   16.0115 C.3       1 RES1    0.0000
     13 C11        7.2728    3.4675   16.6276 C.2       1 RES1    0.0000
     14 O2         7.8341    4.5726   16.4766 O.2       1 RES1    0.0000
     15 N2         7.6667    2.6147   17.5824 N.am      1 RES1    0.0000
     16 C12        7.0071    1.3408   17.8861 C.3       1 RES1    0.0000
     17 C13        6.1336    1.4252   19.1165 C.3       1 RES1    0.0000
     18 C14        8.8879    2.9164   18.3477 C.3       1 RES1    0.0000
     19 C15       10.1058    2.3052   17.6895 C.3       1 RES1    0.0000
     20 H1         4.4127    0.6588   11.2302 H         1 RES1    0.0000
     21 H2         4.3266    2.2858   14.0368 H         1 RES1    0.0000
     22 H3         8.5908    3.3540   13.9771 H         1 RES1    0.0000
     23 H4        10.6895    2.4051   13.5278 H         1 RES1    0.0000
     24 H5        10.9744    0.0485   13.7103 H         1 RES1    0.0000
     25 H6         9.1446   -1.2933   14.3615 H         1 RES1    0.0000
     26 H7         7.0034   -0.2920   14.7688 H         1 RES1    0.0000
     27 H8         4.5978    3.7285   16.9330 H         1 RES1    0.0000
     28 H9         5.1004    4.8559   16.0396 H         1 RES1    0.0000
     29 H10        4.1411    3.6732   15.4270 H         1 RES1    0.0000
     30 H11        7.7311    0.6267   18.0406 H         1 RES1    0.0000
     31 H12        6.4649    1.0672   17.0980 H         1 RES1    0.0000
     32 H13        5.3568    2.0500   18.9761 H         1 RES1    0.0000
     33 H14        6.6710    1.8453   19.9064 H         1 RES1    0.0000
     34 H15        5.8043    0.5453   19.3307 H         1 RES1    0.0000
     35 H16        8.7324    2.5584   19.2534 H         1 RES1    0.0000
     36 H17        8.9771    3.8808   18.4021 H         1 RES1    0.0000
     37 H18       10.2497    2.6913   16.7978 H         1 RES1    0.0000
     38 H19       10.8943    2.5041   18.2442 H         1 RES1    0.0000
     39 H20        9.9966    1.2681   17.5579 H         1 RES1    0.0000
@<TRIPOS>BOND
     1    1    2 1
     2    2    3 2
     3    3    4 1
     4    4    5 1
     5    5    6 ar
     6    6    7 ar
     7    7    8 ar
     8    8    9 ar
     9    9   10 ar
    10   10    5 ar
    11   11    4 2
    12   12   11 1
    13   13   11 1
    14   14   13 2
    15   15   13 1
    16   16   15 1
    17   17   16 1
    18   18   15 1
    19   19   18 1
    20   20    1 1
    21   21    3 1
    22   22    6 1
    23   23    7 1
    24   24    8 1
    25   25    9 1
    26   26   10 1
    27   27   12 1
    28   28   12 1
    29   29   12 1
    30   30   16 1
    31   31   16 1
    32   32   17 1
    33   33   17 1
    34   34   17 1
    35   35   18 1
    36   36   18 1
    37   37   19 1
    38   38   19 1
    39   39   19 1
@<TRIPOS>SUBSTRUCTURE
     1 RES1 1

@<TRIPOS>CRYSIN
   8.7610    9.7020   17.8860  90.0000 101.0800  90.0000  14 1

