# MOL2 file generated by ConQuest
# Please check atom types

@<TRIPOS>MOLECULE
FEWSOS
    58    62     1
SMALL
NO_CHARGES
****
Generated from CSD

@<TRIPOS>ATOM
      1 C1         5.3316    5.8582    3.6067 C.ar      1 RES1    0.0000
      2 C2         5.6394    6.9780    2.8587 C.ar      1 RES1    0.0000
      3 H1         6.2539    6.9372    2.1353 H         1 RES1    0.0000
      4 C3         5.0062    8.1756    3.2131 C.ar      1 RES1    0.0000
      5 H2         5.2046    8.9680    2.7278 H         1 RES1    0.0000
      6 C4         4.0912    8.2295    4.2625 C.ar      1 RES1    0.0000
      7 H3         3.6766    9.0567    4.4773 H         1 RES1    0.0000
      8 C5         3.7713    7.0874    5.0066 C.ar      1 RES1    0.0000
      9 H4         3.1423    7.1205    5.7180 H         1 RES1    0.0000
     10 C6         4.4090    5.9086    4.6630 C.ar      1 RES1    0.0000
     11 C7         5.2067    3.7800    4.5366 C.2       1 RES1    0.0000
     12 C8         3.5846    4.2197    6.3622 C.2       1 RES1    0.0000
     13 C9         2.2506    4.2404    6.3040 C.2       1 RES1    0.0000
     14 H5         1.8344    4.4940    5.4885 H         1 RES1    0.0000
     15 C10        1.3823    3.8805    7.4725 C.3       1 RES1    0.0000
     16 H6         0.9768    2.9913    7.3146 H         1 RES1    0.0000
     17 H7         0.6482    4.5405    7.5478 H         1 RES1    0.0000
     18 C11        2.1652    3.8495    8.7833 C.3       1 RES1    0.0000
     19 H8         1.6267    3.3977    9.4803 H         1 RES1    0.0000
     20 H9         2.3442    4.7753    9.0845 H         1 RES1    0.0000
     21 C12        3.4916    3.1050    8.5969 C.3       1 RES1    0.0000
     22 H10        3.9650    3.0482    9.4645 H         1 RES1    0.0000
     23 H11        3.3137    2.1834    8.2822 H         1 RES1    0.0000
     24 C13        4.3690    3.8321    7.5816 C.3       1 RES1    0.0000
     25 H12        4.7499    4.6449    7.9992 H         1 RES1    0.0000
     26 H13        5.1199    3.2441    7.3160 H         1 RES1    0.0000
     27 C14        6.8131    4.0166    2.6546 C.3       1 RES1    0.0000
     28 H14        7.1701    3.1753    3.0351 H         1 RES1    0.0000
     29 H15        7.5609    4.6625    2.5946 H         1 RES1    0.0000
     30 C15        6.2924    3.7461    1.2798 C.2       1 RES1    0.0000
     31 C16        5.7090    2.6773    0.7017 C.2       1 RES1    0.0000
     32 H16        5.5030    1.8403    1.1014 H         1 RES1    0.0000
     33 C17        5.4711    3.0828   -0.6402 C.2       1 RES1    0.0000
     34 C18        4.8618    2.3084   -1.7514 C.ar      1 RES1    0.0000
     35 C19        3.7086    2.7785   -2.4093 C.ar      1 RES1    0.0000
     36 C20        3.1984    2.0391   -3.4754 C.ar      1 RES1    0.0000
     37 H17        2.4208    2.3529   -3.9218 H         1 RES1    0.0000
     38 C21        3.7908    0.8575   -3.9064 C.ar      1 RES1    0.0000
     39 C22        4.9267    0.3962   -3.2308 C.ar      1 RES1    0.0000
     40 H18        5.3354   -0.4158   -3.5068 H         1 RES1    0.0000
     41 C23        5.4702    1.1063   -2.1599 C.ar      1 RES1    0.0000
     42 C24        3.0021    4.0531   -2.0088 C.3       1 RES1    0.0000
     43 H19        3.3924    4.8094   -2.4948 H         1 RES1    0.0000
     44 H20        3.1064    4.1954   -1.0448 H         1 RES1    0.0000
     45 H21        2.0495    3.9810   -2.2272 H         1 RES1    0.0000
     46 C25        3.2098    0.0890   -5.0688 C.3       1 RES1    0.0000
     47 H22        2.6090   -0.6082   -4.7320 H         1 RES1    0.0000
     48 H23        3.9350   -0.3249   -5.5820 H         1 RES1    0.0000
     49 H24        2.7084    0.7009   -5.6471 H         1 RES1    0.0000
     50 C26        6.7204    0.5880   -1.4762 C.3       1 RES1    0.0000
     51 H25        6.4947    0.2769   -0.5748 H         1 RES1    0.0000
     52 H26        7.3827    1.3078   -1.4173 H         1 RES1    0.0000
     53 H27        7.0918   -0.1559   -1.9951 H         1 RES1    0.0000
     54 N1         4.3490    4.6314    5.2243 N.am      1 RES1    0.0000
     55 N2         5.7991    4.5488    3.5515 N.am      1 RES1    0.0000
     56 N3         5.8845    4.3125   -0.8484 N.2       1 RES1    0.0000
     57 O1         5.3885    2.5902    4.7479 O.2       1 RES1    0.0000
     58 O2         6.4094    4.7508    0.3852 O.3       1 RES1    0.0000
@<TRIPOS>BOND
     1    1    2 ar
     2    2    3 1
     3    4    2 ar
     4    5    4 1
     5    6    4 ar
     6    7    6 1
     7    8    6 ar
     8    9    8 1
     9   10    1 ar
    10   11   54 1
    11   12   13 2
    12   13   14 1
    13   15   13 1
    14   16   15 1
    15   17   15 1
    16   18   15 1
    17   19   18 1
    18   20   18 1
    19   21   18 1
    20   22   21 1
    21   23   21 1
    22   24   12 1
    23   25   24 1
    24   26   24 1
    25   27   28 1
    26   29   27 1
    27   30   27 1
    28   31   30 2
    29   32   31 1
    30   33   31 1
    31   34   33 1
    32   35   34 ar
    33   36   35 ar
    34   37   36 1
    35   38   36 ar
    36   39   38 ar
    37   40   39 1
    38   41   34 ar
    39   42   35 1
    40   43   42 1
    41   44   42 1
    42   45   42 1
    43   46   38 1
    44   47   46 1
    45   48   46 1
    46   49   46 1
    47   50   41 1
    48   51   50 1
    49   52   50 1
    50   53   50 1
    51   54   10 1
    52   55    1 1
    53   56   33 2
    54   57   11 2
    55   58   30 1
    56    8   10 ar
    57   11   55 1
    58   12   54 1
    59   21   24 1
    60   27   55 1
    61   39   41 ar
    62   56   58 1
@<TRIPOS>SUBSTRUCTURE
     1 RES1 1

