# MOL2 file generated by ConQuest
# Please check atom types

@<TRIPOS>MOLECULE
FEXBUF01
    17    17     1
SMALL
USER_CHARGES
****
Generated from CSD

@<TRIPOS>ATOM
      1 O1         4.5900    3.7853    1.5499 O.2       1 RES1   -1.0000
      2 O2         9.1642   -0.3125    1.5499 O.2       1 RES1    0.0000
      3 O3         7.4572   -1.6804    1.5499 O.2       1 RES1    0.0000
      4 N1         5.3664    2.7550    1.5499 N.pl3     1 RES1    1.0000
      5 N2         7.9419   -0.5466    1.5499 N.pl3     1 RES1    0.0000
      6 C1         4.8190    1.4891    1.5499 C.ar      1 RES1    0.0000
      7 C2         5.6713    0.3912    1.5499 C.ar      1 RES1    0.0000
      8 H1         5.3176   -0.4901    1.5499 H         1 RES1    0.0000
      9 C3         7.0446    0.5969    1.5499 C.ar      1 RES1    0.0000
     10 C4         7.5932    1.8770    1.5499 C.ar      1 RES1    0.0000
     11 H2         8.5335    2.0112    1.5499 H         1 RES1    0.0000
     12 C5         6.7235    2.9341    1.5499 C.ar      1 RES1    0.0000
     13 H3         7.0722    3.8176    1.5499 H         1 RES1    0.0000
     14 C6         3.3391    1.4175    1.5499 C.3       1 RES1    0.0000
     15 H4         3.0094    1.8226    0.8245 H         1 RES1    0.0000
     16 H5         3.1065    0.5509    1.5499 H         1 RES1    0.0000
     17 H4E        3.0094    1.8226    2.2752 H         1 RES1    0.0000
@<TRIPOS>BOND
     1    1    4 1
     2    2    5 2
     3    3    5 2
     4    4    6 ar
     5    5    9 1
     6    6    7 ar
     7    7    8 1
     8    9    7 ar
     9   10    9 ar
    10   11   10 1
    11   12    4 ar
    12   13   12 1
    13   14    6 1
    14   15   14 1
    15   16   14 1
    16   17   14 1
    17   10   12 ar
@<TRIPOS>SUBSTRUCTURE
     1 RES1 1

@<TRIPOS>CRYSIN
   8.6775   12.4069    6.1995  90.0000  90.0000  90.0000  57 1

