# MOL2 file generated by ConQuest
# Please check atom types

@<TRIPOS>MOLECULE
FEXJID
    32    31     1
SMALL
NO_CHARGES
****
Generated from CSD

@<TRIPOS>ATOM
      1 C1         7.0791    2.7092    6.7759 C.2       1 RES1    0.0000
      2 C2         8.2891    3.3107    6.0260 C.2       1 RES1    0.0000
      3 C3         8.1030    3.7328    4.5781 C.3       1 RES1    0.0000
      4 C4         9.0638    2.8869    3.6960 C.3       1 RES1    0.0000
      5 H1         9.9983    3.0691    4.0006 H         1 RES1    0.0000
      6 C5         8.9671    3.2865    2.2586 C.2       1 RES1    0.0000
      7 H2         8.1218    3.1929    1.8357 H         1 RES1    0.0000
      8 C6         9.9584    3.7579    1.5297 C.2       1 RES1    0.0000
      9 H3        10.8207    3.8666    1.9130 H         1 RES1    0.0000
     10 H4         9.8111    3.9890    0.6209 H         1 RES1    0.0000
     11 C7         8.4171    5.2223    4.4689 C.3       1 RES1    0.0000
     12 H5         7.8011    5.7286    5.0372 H         1 RES1    0.0000
     13 H6         8.3133    5.5106    3.5381 H         1 RES1    0.0000
     14 H7         9.3387    5.3839    4.7601 H         1 RES1    0.0000
     15 C8         8.8053    1.3899    3.8550 C.3       1 RES1    0.0000
     16 H8         8.9231    1.1365    4.7943 H         1 RES1    0.0000
     17 H9         9.4376    0.8889    3.2988 H         1 RES1    0.0000
     18 H10        7.8895    1.1855    3.5741 H         1 RES1    0.0000
     19 C9         5.1978    3.2973    8.2838 C.3       1 RES1    0.0000
     20 H11        4.4246    3.6737    7.8141 H         1 RES1    0.0000
     21 H12        5.2664    3.6982    9.1747 H         1 RES1    0.0000
     22 H13        5.0869    2.3270    8.3702 H         1 RES1    0.0000
     23 C10        7.4208    5.5667    8.2647 C.3       1 RES1    0.0000
     24 H14        7.4625    6.5319    8.1003 H         1 RES1    0.0000
     25 H15        8.3278    5.1946    8.2568 H         1 RES1    0.0000
     26 H16        7.0075    5.4019    9.1369 H         1 RES1    0.0000
     27 N1         6.4060    3.5820    7.5312 N.am      1 RES1    0.0000
     28 O1         6.8642    1.4999    6.7548 O.2       1 RES1    0.0000
     29 O2         9.3501    3.3615    6.6089 O.2       1 RES1    0.0000
     30 O3         6.7423    3.4468    4.2713 O.3       1 RES1    0.0000
     31 H17        6.4640    3.9933    3.6965 H         1 RES1    0.0000
     32 O4         6.6326    4.9358    7.2312 O.3       1 RES1    0.0000
@<TRIPOS>BOND
     1    1    2 1
     2    2    3 1
     3    3    4 1
     4    4    5 1
     5    6    4 1
     6    7    6 1
     7    8    6 2
     8    9    8 1
     9   10    8 1
    10   11    3 1
    11   12   11 1
    12   13   11 1
    13   14   11 1
    14   15    4 1
    15   16   15 1
    16   17   15 1
    17   18   15 1
    18   19   20 1
    19   21   19 1
    20   22   19 1
    21   23   24 1
    22   25   23 1
    23   26   23 1
    24   27    1 1
    25   28    1 2
    26   29    2 2
    27   30    3 1
    28   31   30 1
    29   32   23 1
    30   19   27 1
    31   27   32 1
@<TRIPOS>SUBSTRUCTURE
     1 RES1 1

@<TRIPOS>CRYSIN
   8.7990    7.1977   18.0654  90.0000  95.0030  90.0000 231 1

