# MOL2 file generated by ConQuest
# Please check atom types

@<TRIPOS>MOLECULE
FEYLUQ01
    19    20     1
SMALL
NO_CHARGES
****
Generated from CSD

@<TRIPOS>ATOM
      1 C1         1.4984    0.1858    8.1090 C.2       1 RES1    0.0000
      2 C2         2.1194   -0.9921    8.6186 C.2       1 RES1    0.0000
      3 C3         1.3328    1.0067   10.3923 C.3       1 RES1    0.0000
      4 C4         2.5548    0.2024   10.7065 C.3       1 RES1    0.0000
      5 N1         1.2773    1.2748    8.9389 N.3       1 RES1    0.0000
      6 N2         2.5214   -1.0651    9.9446 N.pl3     1 RES1    0.0000
      7 N3         2.2309   -1.8720    7.6747 N.2       1 RES1    0.0000
      8 N4         1.2436    0.0398    6.8473 N.2       1 RES1    0.0000
      9 N5         0.4557    2.2980    8.5070 N.pl3     1 RES1    0.0000
     10 N6         3.3998   -2.0691   10.3328 N.pl3     1 RES1    0.0000
     11 O1         1.6884   -1.2442    6.5634 O.3       1 RES1    0.0000
     12 O2         0.2474    2.3823    7.3156 O.2       1 RES1    0.0000
     13 O3         0.0508    3.0565    9.3732 O.2       1 RES1    0.0000
     14 O4         4.0702   -1.8422   11.3216 O.2       1 RES1    0.0000
     15 O5         3.4061   -3.0851    9.6668 O.2       1 RES1    0.0000
     16 H1         1.3816    1.8342   10.8133 H         1 RES1    0.0000
     17 H2         0.5408    0.5395   10.6422 H         1 RES1    0.0000
     18 H3         2.5042   -0.0332   11.6298 H         1 RES1    0.0000
     19 H4         3.3964    0.6543   10.5245 H         1 RES1    0.0000
@<TRIPOS>BOND
     1    1    2 1
     2    2    6 1
     3    3    4 1
     4    4    6 1
     5    5    1 1
     6    6   10 1
     7    7    2 2
     8    8    1 2
     9    9    5 1
    10   10   14 2
    11   11    7 1
    12   12    9 2
    13   13    9 2
    14   15   10 2
    15   16    3 1
    16   17    3 1
    17   18    4 1
    18   19    4 1
    19    3    5 1
    20    8   11 1
@<TRIPOS>SUBSTRUCTURE
     1 RES1 1

@<TRIPOS>CRYSIN
   9.7430    6.6360   12.1650  90.0000  94.2200  90.0000  14 1

