# MOL2 file generated by ConQuest
# Please check atom types

@<TRIPOS>MOLECULE
FEZLON
    48    50     1
SMALL
NO_CHARGES
****
Generated from CSD

@<TRIPOS>ATOM
      1 O1         7.7308    5.3196    4.1579 O.3       1 RES1    0.0000
      2 O2         5.6917    6.0374    4.9018 O.2       1 RES1    0.0000
      3 O3         6.8479    6.9746    7.8690 O.2       1 RES1    0.0000
      4 O4         4.0116    5.2025    8.8708 O.3       1 RES1    0.0000
      5 N1         7.0714    4.7680    6.2006 N.am      1 RES1    0.0000
      6 H1         7.8309    4.3675    6.2551 H         1 RES1    0.0000
      7 N2         4.8417    6.3191    8.6401 N.am      1 RES1    0.0000
      8 C1         8.1194    4.8660    1.8341 C.3       1 RES1    0.0000
      9 H2         9.0816    4.8161    2.0143 H         1 RES1    0.0000
     10 C2         7.5297    3.4595    1.8181 C.ar      1 RES1    0.0000
     11 C3         7.4399    2.5290    2.8476 C.ar      1 RES1    0.0000
     12 H3         7.7596    2.7308    3.6961 H         1 RES1    0.0000
     13 C4         6.8511    1.2636    2.5764 C.ar      1 RES1    0.0000
     14 H4         6.7621    0.6381    3.2575 H         1 RES1    0.0000
     15 C5         6.4096    0.9604    1.3013 C.ar      1 RES1    0.0000
     16 H5         6.0435    0.1230    1.1314 H         1 RES1    0.0000
     17 C6         6.5033    1.8809    0.2710 C.ar      1 RES1    0.0000
     18 H6         6.1981    1.6658   -0.5811 H         1 RES1    0.0000
     19 C7         7.0610    3.1396    0.5266 C.ar      1 RES1    0.0000
     20 C8         7.3085    4.2944   -0.3623 C.ar      1 RES1    0.0000
     21 C9         7.0562    4.4739   -1.7259 C.ar      1 RES1    0.0000
     22 H7         6.6564    3.8009   -2.2266 H         1 RES1    0.0000
     23 C10        7.4143    5.6769   -2.3132 C.ar      1 RES1    0.0000
     24 H8         7.2789    5.8006   -3.2239 H         1 RES1    0.0000
     25 C11        7.9775    6.7070   -1.5530 C.ar      1 RES1    0.0000
     26 H9         8.1979    7.5138   -1.9612 H         1 RES1    0.0000
     27 C12        8.2099    6.5334   -0.1986 C.ar      1 RES1    0.0000
     28 H10        8.5744    7.2238    0.3073 H         1 RES1    0.0000
     29 C13        7.8926    5.3221    0.3942 C.ar      1 RES1    0.0000
     30 C14        7.4608    5.8281    2.8297 C.3       1 RES1    0.0000
     31 H11        7.8293    6.7203    2.7294 H         1 RES1    0.0000
     32 H12        6.5041    5.8704    2.6736 H         1 RES1    0.0000
     33 C15        6.7597    5.4268    5.0801 C.2       1 RES1    0.0000
     34 C16        6.1580    4.7115    7.3273 C.3       1 RES1    0.0000
     35 H13        5.2887    4.3717    7.0289 H         1 RES1    0.0000
     36 C17        6.7421    3.7677    8.3967 C.3       1 RES1    0.0000
     37 H14        6.8342    2.8854    8.0291 H         1 RES1    0.0000
     38 H15        6.1532    3.7386    9.1550 H         1 RES1    0.0000
     39 H16        7.6034    4.0909    8.6716 H         1 RES1    0.0000
     40 C18        5.9794    6.1055    7.9517 C.2       1 RES1    0.0000
     41 C19        2.8090    5.2864    8.0528 C.3       1 RES1    0.0000
     42 H17        2.3083    6.0673    8.2973 H         1 RES1    0.0000
     43 H18        2.2706    4.5038    8.1939 H         1 RES1    0.0000
     44 H19        3.0550    5.3420    7.1267 H         1 RES1    0.0000
     45 C20        4.6406    7.4116    9.5832 C.3       1 RES1    0.0000
     46 H20        4.7832    7.0925   10.4764 H         1 RES1    0.0000
     47 H21        3.7432    7.7439    9.5014 H         1 RES1    0.0000
     48 H22        5.2623    8.1177    9.3924 H         1 RES1    0.0000
@<TRIPOS>BOND
     1    1   30 1
     2    2   33 2
     3    3   40 2
     4    4    7 1
     5    5    6 1
     6    7   40 1
     7    8    9 1
     8   10    8 1
     9   11   10 ar
    10   12   11 1
    11   13   11 ar
    12   14   13 1
    13   15   13 ar
    14   16   15 1
    15   17   15 ar
    16   18   17 1
    17   19   10 ar
    18   20   19 1
    19   21   20 ar
    20   22   21 1
    21   23   21 ar
    22   24   23 1
    23   25   23 ar
    24   26   25 1
    25   27   25 ar
    26   28   27 1
    27   29    8 1
    28   30    8 1
    29   31   30 1
    30   32   30 1
    31   33    1 1
    32   34    5 1
    33   35   34 1
    34   36   34 1
    35   37   36 1
    36   38   36 1
    37   39   36 1
    38   40   34 1
    39   41    4 1
    40   42   41 1
    41   43   41 1
    42   44   41 1
    43   45    7 1
    44   46   45 1
    45   47   45 1
    46   48   45 1
    47    5   33 1
    48   17   19 ar
    49   20   29 ar
    50   27   29 ar
@<TRIPOS>SUBSTRUCTURE
     1 RES1 1

@<TRIPOS>CRYSIN
   8.0120    8.3080   27.9370  90.0000  90.0000  90.0000  19 1

