# MOL2 file generated by ConQuest
# Please check atom types

@<TRIPOS>MOLECULE
FEZQUX
    41    42     1
SMALL
USER_CHARGES
****
Generated from CSD

@<TRIPOS>ATOM
      1 O1         4.4104   -0.9123    4.1969 O.3       1 RES1    0.0000
      2 O2         1.8810    3.8527    0.5778 O.2       1 RES1    0.0000
      3 O3        -1.1569    0.4562    1.3749 O.2       1 RES1   -1.0000
      4 N1         0.8142    3.1332    0.5845 N.pl3     1 RES1    0.0000
      5 N2        -0.6423    1.5680    1.0245 N.pl3     1 RES1    1.0000
      6 C1         3.4556   -0.1942    3.5402 C.ar      1 RES1    0.0000
      7 C2         3.9164    0.6782    2.5385 C.ar      1 RES1    0.0000
      8 C3         2.9919    1.4110    1.8189 C.ar      1 RES1    0.0000
      9 C4         1.6150    1.2820    2.0610 C.ar      1 RES1    0.0000
     10 C5         1.1902    0.4362    3.0962 C.ar      1 RES1    0.0000
     11 C6         2.0944   -0.2912    3.8519 C.ar      1 RES1    0.0000
     12 C7         5.3909    0.7886    2.2469 C.3       1 RES1    0.0000
     13 C8         1.6032   -1.2036    4.9432 C.3       1 RES1    0.0000
     14 C9         0.6317    1.9789    1.2478 C.2       1 RES1    0.0000
     15 C10       -0.3427    3.4538   -0.3116 C.3       1 RES1    0.0000
     16 C11       -1.4708    2.6545    0.3932 C.3       1 RES1    0.0000
     17 C12        0.0271    2.9125   -1.6959 C.3       1 RES1    0.0000
     18 C13       -0.5663    4.9525   -0.3731 C.3       1 RES1    0.0000
     19 C14       -2.1330    3.4085    1.5421 C.3       1 RES1    0.0000
     20 C15       -2.5056    2.0494   -0.5283 C.3       1 RES1    0.0000
     21 H1         5.5543    0.5413    1.3441 H         1 RES1    0.0000
     22 H2         5.6755    1.6837    2.3874 H         1 RES1    0.0000
     23 H3         5.8713    0.2088    2.8260 H         1 RES1    0.0000
     24 H4         2.3437   -1.6384    5.3485 H         1 RES1    0.0000
     25 H5         1.1377   -0.6942    5.5959 H         1 RES1    0.0000
     26 H6         1.0179   -1.8539    4.5714 H         1 RES1    0.0000
     27 H7         3.2949    2.0121    1.1475 H         1 RES1    0.0000
     28 H8         0.2619    0.3604    3.2834 H         1 RES1    0.0000
     29 H9        -0.6768    3.0933   -2.3058 H         1 RES1    0.0000
     30 H10        0.1659    1.9736   -1.6411 H         1 RES1    0.0000
     31 H11        0.8240    3.3327   -1.9982 H         1 RES1    0.0000
     32 H12       -1.3043    5.1387   -0.9416 H         1 RES1    0.0000
     33 H13       -0.7467    5.2810    0.4989 H         1 RES1    0.0000
     34 H14        0.2138    5.3741   -0.7155 H         1 RES1    0.0000
     35 H15       -2.6660    4.1134    1.1917 H         1 RES1    0.0000
     36 H16       -2.6812    2.8127    2.0396 H         1 RES1    0.0000
     37 H17       -1.4639    3.7716    2.1105 H         1 RES1    0.0000
     38 H18       -3.0182    2.7423   -0.9282 H         1 RES1    0.0000
     39 H19       -3.0789    1.4775   -0.0308 H         1 RES1    0.0000
     40 H20       -2.0687    1.5467   -1.2077 H         1 RES1    0.0000
     41 H21        4.0144   -1.6185    4.7453 H         1 RES1    0.0000
@<TRIPOS>BOND
     1    1    6 1
     2    2    4 2
     3    3    5 1
     4    4   14 1
     5    5   14 2
     6    6    7 ar
     7    7    8 ar
     8    8    9 ar
     9    9   10 ar
    10   10   11 ar
    11   11    6 ar
    12   12    7 1
    13   13   11 1
    14   14    9 1
    15   15    4 1
    16   16    5 1
    17   17   15 1
    18   18   15 1
    19   19   16 1
    20   20   16 1
    21   21   12 1
    22   22   12 1
    23   23   12 1
    24   24   13 1
    25   25   13 1
    26   26   13 1
    27   27    8 1
    28   28   10 1
    29   29   17 1
    30   30   17 1
    31   31   17 1
    32   32   18 1
    33   33   18 1
    34   34   18 1
    35   35   19 1
    36   36   19 1
    37   37   19 1
    38   38   20 1
    39   39   20 1
    40   40   20 1
    41   41    1 1
    42   15   16 1
@<TRIPOS>SUBSTRUCTURE
     1 RES1 1

@<TRIPOS>CRYSIN
  16.7870   13.2990   14.2900  90.0000 110.6200  90.0000  15 1

