# MOL2 file generated by ConQuest
# Please check atom types

@<TRIPOS>MOLECULE
FEZRAE01
    34    35     1
SMALL
NO_CHARGES
****
Generated from CSD

@<TRIPOS>ATOM
      1 O1         0.1753    4.5319    7.7381 O.2       1 RES1    0.0000
      2 O2         1.1066   -1.8509    7.2017 O.2       1 RES1    0.0000
      3 O3         0.8428    0.3586    3.1336 O.2       1 RES1    0.0000
      4 N1         0.8185    3.2198    6.0269 N.am      1 RES1    0.0000
      5 H1         1.0434    4.0019    5.5545 H         1 RES1    0.0000
      6 N2         1.0468   -1.6086    5.9468 N.3       1 RES1    0.0000
      7 N3         0.9521   -0.5600    4.0255 N.pl3     1 RES1    0.0000
      8 C1         0.3343    3.3793    7.2987 C.2       1 RES1    0.0000
      9 C2         0.0410    2.1594    7.9710 C.2       1 RES1    0.0000
     10 H2        -0.3009    2.1919    8.8357 H         1 RES1    0.0000
     11 C3         0.2465    0.9577    7.3869 C.2       1 RES1    0.0000
     12 H3         0.0584    0.1795    7.8586 H         1 RES1    0.0000
     13 C4         0.7473    0.8731    6.0563 C.2       1 RES1    0.0000
     14 C5         1.0242    2.0409    5.4156 C.2       1 RES1    0.0000
     15 H4         1.3572    2.0239    4.5472 H         1 RES1    0.0000
     16 C6         0.9257   -0.3927    5.3634 C.2       1 RES1    0.0000
     17 C7         0.9068   -2.7198    4.9388 C.3       1 RES1    0.0000
     18 C8        -0.5725   -3.1236    4.9740 C.3       1 RES1    0.0000
     19 H5        -1.1158   -2.3675    4.7404 H         1 RES1    0.0000
     20 H6        -0.8017   -3.4215    5.8579 H         1 RES1    0.0000
     21 H7        -0.7248   -3.8339    4.3473 H         1 RES1    0.0000
     22 C9         1.7924   -3.8849    5.3208 C.3       1 RES1    0.0000
     23 H8         2.7126   -3.6143    5.2782 H         1 RES1    0.0000
     24 H9         1.6443   -4.6129    4.7118 H         1 RES1    0.0000
     25 H10        1.5829   -4.1680    6.2143 H         1 RES1    0.0000
     26 C10        1.3078   -1.9679    3.6413 C.3       1 RES1    0.0000
     27 C11        0.5557   -2.3847    2.3967 C.3       1 RES1    0.0000
     28 H11       -0.3716   -2.1575    2.4929 H         1 RES1    0.0000
     29 H12        0.6432   -3.3317    2.2725 H         1 RES1    0.0000
     30 H13        0.9202   -1.9265    1.6348 H         1 RES1    0.0000
     31 C12        2.8142   -1.9570    3.3672 C.3       1 RES1    0.0000
     32 H14        3.1054   -2.8449    3.1446 H         1 RES1    0.0000
     33 H15        3.2800   -1.6535    4.1497 H         1 RES1    0.0000
     34 H16        3.0013   -1.3651    2.6347 H         1 RES1    0.0000
@<TRIPOS>BOND
     1    1    8 2
     2    2    6 1
     3    3    7 1
     4    4    5 1
     5    6   16 1
     6    7   16 2
     7    8    4 1
     8    9    8 1
     9   10    9 1
    10   11    9 2
    11   12   11 1
    12   13   11 1
    13   14    4 1
    14   15   14 1
    15   16   13 1
    16   17    6 1
    17   18   17 1
    18   19   18 1
    19   20   18 1
    20   21   18 1
    21   22   17 1
    22   23   22 1
    23   24   22 1
    24   25   22 1
    25   26    7 1
    26   27   26 1
    27   28   27 1
    28   29   27 1
    29   30   27 1
    30   31   26 1
    31   32   31 1
    32   33   31 1
    33   34   31 1
    34   13   14 2
    35   17   26 1
@<TRIPOS>SUBSTRUCTURE
     1 RES1 1

@<TRIPOS>CRYSIN
   8.9193   19.0930    7.6035  90.0000 104.9190  90.0000  14 1

