# MOL2 file generated by ConQuest
# Please check atom types

@<TRIPOS>MOLECULE
FEZZUG
    67    70     1
SMALL
NO_CHARGES
****
Generated from CSD

@<TRIPOS>ATOM
      1 O1         4.4084    2.3055    6.8551 O.2       1 RES1    0.0000
      2 O2         6.0163    2.5560    5.3540 O.3       1 RES1    0.0000
      3 H1         6.4968    2.2373    5.9489 H         1 RES1    0.0000
      4 O3         3.8042    2.3113    3.6152 O.3       1 RES1    0.0000
      5 O4         2.9055   -1.8849   -0.9207 O.3       1 RES1    0.0000
      6 O5         8.3983    9.6913    4.7235 O.3       1 RES1    0.0000
      7 O6         0.5897    7.2733   -0.1925 O.2       1 RES1    0.0000
      8 O7         1.5736    5.8826   -1.4892 O.2       1 RES1    0.0000
      9 N1         4.8022    5.4510    5.0947 N.pl3     1 RES1    0.0000
     10 H2         4.0999    5.6700    5.5430 H         1 RES1    0.0000
     11 N2         1.4012    6.3891   -0.4007 N.pl3     1 RES1    0.0000
     12 C1         4.7887    2.6776    5.7721 C.2       1 RES1    0.0000
     13 C2         3.8401    3.2480    4.6856 C.3       1 RES1    0.0000
     14 C3         4.5289    4.4947    4.0416 C.3       1 RES1    0.0000
     15 H3         5.3934    4.1982    3.6877 H         1 RES1    0.0000
     16 C4         3.7232    5.0348    2.8665 C.ar      1 RES1    0.0000
     17 C5         3.8649    4.4563    1.6094 C.ar      1 RES1    0.0000
     18 H4         4.4774    3.7672    1.4862 H         1 RES1    0.0000
     19 C6         3.1033    4.8948    0.5385 C.ar      1 RES1    0.0000
     20 H5         3.1926    4.5015   -0.2995 H         1 RES1    0.0000
     21 C7         2.2178    5.9154    0.7368 C.ar      1 RES1    0.0000
     22 C8         2.0676    6.5254    1.9549 C.ar      1 RES1    0.0000
     23 H6         1.4660    7.2272    2.0625 H         1 RES1    0.0000
     24 C9         2.8285    6.0770    3.0234 C.ar      1 RES1    0.0000
     25 H7         2.7359    6.4815    3.8552 H         1 RES1    0.0000
     26 C10        3.3752    0.9785    3.9411 C.3       1 RES1    0.0000
     27 H8         2.5334    1.0054    4.4216 H         1 RES1    0.0000
     28 H9         4.0359    0.5407    4.5011 H         1 RES1    0.0000
     29 C11        3.2110    0.2300    2.6467 C.ar      1 RES1    0.0000
     30 C12        3.8919   -0.9511    2.4215 C.ar      1 RES1    0.0000
     31 H10        4.4413   -1.2965    3.0873 H         1 RES1    0.0000
     32 C13        3.7712   -1.6272    1.2253 C.ar      1 RES1    0.0000
     33 H11        4.2380   -2.4209    1.0930 H         1 RES1    0.0000
     34 C14        2.9620   -1.1336    0.2243 C.ar      1 RES1    0.0000
     35 C15        2.2640    0.0397    0.4308 C.ar      1 RES1    0.0000
     36 H12        1.7068    0.3763   -0.2342 H         1 RES1    0.0000
     37 C16        2.3981    0.7108    1.6332 C.ar      1 RES1    0.0000
     38 H13        1.9302    1.5039    1.7644 H         1 RES1    0.0000
     39 C17        2.2179   -1.3375   -2.0298 C.3       1 RES1    0.0000
     40 H14        2.3163   -1.8270   -2.6799 H         1 RES1    0.0000
     41 H15        1.2716   -1.3441   -1.8680 H         1 RES1    0.0000
     42 H16        2.5664   -0.4706   -2.2484 H         1 RES1    0.0000
     43 C18        5.6829    6.5257    4.8825 C.ar      1 RES1    0.0000
     44 C19        5.6103    7.6299    5.7399 C.ar      1 RES1    0.0000
     45 H17        4.9328    7.6715    6.3762 H         1 RES1    0.0000
     46 C20        6.5243    8.6554    5.6581 C.ar      1 RES1    0.0000
     47 H18        6.4623    9.3793    6.2385 H         1 RES1    0.0000
     48 C21        7.5279    8.6124    4.7227 C.ar      1 RES1    0.0000
     49 C22        7.5981    7.5550    3.8366 C.ar      1 RES1    0.0000
     50 H19        8.2644    7.5341    3.1881 H         1 RES1    0.0000
     51 C23        6.6661    6.5172    3.9159 C.ar      1 RES1    0.0000
     52 H20        6.7094    5.8129    3.3102 H         1 RES1    0.0000
     53 C24        9.5805    9.5832    3.9911 C.3       1 RES1    0.0000
     54 H21       10.0080   10.2795    4.0568 H         1 RES1    0.0000
     55 H22        9.3726    9.4450    3.0646 H         1 RES1    0.0000
     56 H23       10.1113    8.8506    4.3123 H         1 RES1    0.0000
     57 C25        2.4486    3.5911    5.2091 C.ar      1 RES1    0.0000
     58 C26        1.3631    3.4790    4.3394 C.ar      1 RES1    0.0000
     59 H24        1.4941    3.1335    3.4862 H         1 RES1    0.0000
     60 C27        0.0969    3.8747    4.7278 C.ar      1 RES1    0.0000
     61 H25       -0.6176    3.7829    4.1391 H         1 RES1    0.0000
     62 C28       -0.1110    4.4011    5.9772 C.ar      1 RES1    0.0000
     63 H26       -0.9639    4.6649    6.2371 H         1 RES1    0.0000
     64 C29        0.9508    4.5356    6.8445 C.ar      1 RES1    0.0000
     65 H27        0.8118    4.9032    7.6878 H         1 RES1    0.0000
     66 C30        2.2253    4.1308    6.4733 C.ar      1 RES1    0.0000
     67 H28        2.9322    4.2201    7.0703 H         1 RES1    0.0000
@<TRIPOS>BOND
     1    1   12 2
     2    2    3 1
     3    4   13 1
     4    5   34 1
     5    6   48 1
     6    7   11 2
     7    8   11 2
     8    9   10 1
     9   11   21 1
    10   12    2 1
    11   13   12 1
    12   14    9 1
    13   15   14 1
    14   16   14 1
    15   17   16 ar
    16   18   17 1
    17   19   17 ar
    18   20   19 1
    19   21   19 ar
    20   22   21 ar
    21   23   22 1
    22   24   16 ar
    23   25   24 1
    24   26    4 1
    25   27   26 1
    26   28   26 1
    27   29   26 1
    28   30   29 ar
    29   31   30 1
    30   32   30 ar
    31   33   32 1
    32   34   32 ar
    33   35   34 ar
    34   36   35 1
    35   37   29 ar
    36   38   37 1
    37   39    5 1
    38   40   39 1
    39   41   39 1
    40   42   39 1
    41   43    9 1
    42   44   43 ar
    43   45   44 1
    44   46   44 ar
    45   47   46 1
    46   48   46 ar
    47   49   48 ar
    48   50   49 1
    49   51   43 ar
    50   52   51 1
    51   53    6 1
    52   54   53 1
    53   55   53 1
    54   56   53 1
    55   57   13 1
    56   58   57 ar
    57   59   58 1
    58   60   58 ar
    59   61   60 1
    60   62   60 ar
    61   63   62 1
    62   64   62 ar
    63   65   64 1
    64   66   57 ar
    65   67   66 1
    66   13   14 1
    67   22   24 ar
    68   35   37 ar
    69   49   51 ar
    70   64   66 ar
@<TRIPOS>SUBSTRUCTURE
     1 RES1 1

@<TRIPOS>CRYSIN
   9.0580   10.3496   14.9870  74.3570  78.9550  86.1610   2 1

