# MOL2 file generated by ConQuest
# Please check atom types

@<TRIPOS>MOLECULE
FEZZIU
    58    62     1
SMALL
NO_CHARGES
****
Generated from CSD

@<TRIPOS>ATOM
      1 C1        11.7869   12.1489    4.4337 C.ar      1 RES1    0.0000
      2 C2        11.7128   10.9072    3.8111 C.ar      1 RES1    0.0000
      3 C3        10.7619   10.0111    4.2106 C.ar      1 RES1    0.0000
      4 H1        10.7137    9.1807    3.7959 H         1 RES1    0.0000
      5 C4         9.8813   10.3116    5.2067 C.ar      1 RES1    0.0000
      6 C5         9.9604   11.5421    5.8823 C.ar      1 RES1    0.0000
      7 C6        10.9175   12.4382    5.4579 C.ar      1 RES1    0.0000
      8 H2        10.9780   13.2648    5.8791 H         1 RES1    0.0000
      9 C7         9.5899   12.7989    7.8149 C.ar      1 RES1    0.0000
     10 C8         9.0255   14.0801    7.7965 C.ar      1 RES1    0.0000
     11 H3         8.3252   14.3093    7.2292 H         1 RES1    0.0000
     12 C9         9.5874   14.9818    8.6865 C.ar      1 RES1    0.0000
     13 C10       10.5914   14.6568    9.5667 C.ar      1 RES1    0.0000
     14 H4        10.9101   15.2899   10.1687 H         1 RES1    0.0000
     15 C11       11.1311   13.3738    9.5505 C.ar      1 RES1    0.0000
     16 C12       10.6026   12.4476    8.6573 C.ar      1 RES1    0.0000
     17 H5        10.9434   11.5834    8.6334 H         1 RES1    0.0000
     18 C13        9.9480   17.2363    8.1527 C.ar      1 RES1    0.0000
     19 C14        9.7578   18.5963    8.4516 C.ar      1 RES1    0.0000
     20 C15       10.6310   19.5369    7.9427 C.ar      1 RES1    0.0000
     21 H6        10.5198   20.4317    8.1711 H         1 RES1    0.0000
     22 C16       11.6622   19.1773    7.1058 C.ar      1 RES1    0.0000
     23 C17       11.8586   17.8298    6.7831 C.ar      1 RES1    0.0000
     24 C18       10.9817   16.8858    7.3223 C.ar      1 RES1    0.0000
     25 H7        11.1027   15.9888    7.1101 H         1 RES1    0.0000
     26 C19       13.2270   16.1015    5.9613 C.ar      1 RES1    0.0000
     27 C20       14.0309   15.6356    6.9509 C.ar      1 RES1    0.0000
     28 H8        14.3150   16.2161    7.6190 H         1 RES1    0.0000
     29 C21       14.4348   14.3131    6.9834 C.ar      1 RES1    0.0000
     30 C22       13.9791   13.4808    5.9895 C.ar      1 RES1    0.0000
     31 H9        14.2360   12.5866    5.9808 H         1 RES1    0.0000
     32 C23       13.1492   13.9618    5.0107 C.ar      1 RES1    0.0000
     33 C24       12.7515   15.2805    4.9523 C.ar      1 RES1    0.0000
     34 H10       12.1982   15.6018    4.2767 H         1 RES1    0.0000
     35 C25       12.2414   12.9868   10.4740 C.3       1 RES1    0.0000
     36 H11       12.7342   12.2560   10.0940 H         1 RES1    0.0000
     37 H12       11.8746   12.7200   11.3207 H         1 RES1    0.0000
     38 H13       12.8268   13.7363   10.6018 H         1 RES1    0.0000
     39 C26       15.3882   13.8058    8.0639 C.3       1 RES1    0.0000
     40 H14       16.2935   13.8979    7.7597 H         1 RES1    0.0000
     41 H15       15.2030   12.8816    8.2448 H         1 RES1    0.0000
     42 H16       15.2660   14.3187    8.8662 H         1 RES1    0.0000
     43 O1        12.7132   13.0713    4.0136 O.3       1 RES1    0.0000
     44 O2         9.1168   11.8519    6.8936 O.3       1 RES1    0.0000
     45 O3         9.0996   16.3032    8.6800 O.3       1 RES1    0.0000
     46 O4        12.8651   17.4588    5.9505 O.3       1 RES1    0.0000
     47 O5        13.2183   11.3099    2.1015 O.2       1 RES1    0.0000
     48 O6        12.8626    9.2887    2.6710 O.2       1 RES1    0.0000
     49 O7         8.8686    8.2827    4.9447 O.2       1 RES1    0.0000
     50 O8         8.1325    9.4832    6.4117 O.2       1 RES1    0.0000
     51 O9         7.6706   18.4031    9.3903 O.2       1 RES1    0.0000
     52 O10        8.8390   20.1388    9.8807 O.2       1 RES1    0.0000
     53 O11       12.2365   21.3813    6.8957 O.2       1 RES1    0.0000
     54 O12       13.5110   19.9556    5.9711 O.2       1 RES1    0.0000
     55 N1        12.6712   10.4863    2.7869 N.pl3     1 RES1    0.0000
     56 N2         8.8797    9.2991    5.5553 N.pl3     1 RES1    0.0000
     57 N3         8.6821   19.0809    9.3101 N.pl3     1 RES1    0.0000
     58 N4        12.5403   20.2545    6.6110 N.pl3     1 RES1    0.0000
@<TRIPOS>BOND
     1    1    2 ar
     2    2    3 ar
     3    3    4 1
     4    5    3 ar
     5    6    5 ar
     6    7    1 ar
     7    8    7 1
     8    9   10 ar
     9   10   11 1
    10   12   10 ar
    11   13   12 ar
    12   14   13 1
    13   15   13 ar
    14   16    9 ar
    15   17   16 1
    16   18   19 ar
    17   19   20 ar
    18   20   21 1
    19   22   20 ar
    20   23   22 ar
    21   24   18 ar
    22   25   24 1
    23   26   27 ar
    24   27   28 1
    25   29   27 ar
    26   30   29 ar
    27   31   30 1
    28   32   30 ar
    29   33   26 ar
    30   34   33 1
    31   35   15 1
    32   36   35 1
    33   37   35 1
    34   38   35 1
    35   39   29 1
    36   40   39 1
    37   41   39 1
    38   42   39 1
    39   43    1 1
    40   44    6 1
    41   45   12 1
    42   46   23 1
    43   47   55 2
    44   48   55 2
    45   49   56 2
    46   50   56 2
    47   51   57 2
    48   52   57 2
    49   53   58 2
    50   54   58 2
    51   55    2 1
    52   56    5 1
    53   57   19 1
    54   58   22 1
    55    6    7 ar
    56    9   44 1
    57   15   16 ar
    58   18   45 1
    59   23   24 ar
    60   26   46 1
    61   32   33 ar
    62   32   43 1
@<TRIPOS>SUBSTRUCTURE
     1 RES1 1

@<TRIPOS>CRYSIN
  12.3501   18.7860   10.8270  90.0000  90.0000  90.0000  29 1

