# MOL2 file generated by ConQuest
# Please check atom types

@<TRIPOS>MOLECULE
FIBBAU
    53    55     1
SMALL
NO_CHARGES
****
Generated from CSD

@<TRIPOS>ATOM
      1 O1         1.1878    4.8685    3.2981 O.3       1 RES1    0.0000
      2 O2         3.2556    4.4535    4.7332 O.3       1 RES1    0.0000
      3 O3         2.6838    2.4044    5.3282 O.2       1 RES1    0.0000
      4 O4         0.1949    3.7003    6.5802 O.3       1 RES1    0.0000
      5 H1        -0.4397    3.1885    6.4919 H         1 RES1    0.0000
      6 O5         3.8424    9.1663    8.1443 O.2       1 RES1    0.0000
      7 O6         3.1366   10.2380    6.4188 O.2       1 RES1    0.0000
      8 O7         0.3276    8.0003    3.2002 O.2       1 RES1    0.0000
      9 O8        -1.1305    6.7052    4.0893 O.2       1 RES1    0.0000
     10 N1         3.1848    9.2442    7.1229 N.pl3     1 RES1    0.0000
     11 N2        -0.0483    7.2679    4.0854 N.pl3     1 RES1    0.0000
     12 C1         0.3401    1.3817    4.0072 C.ar      1 RES1    0.0000
     13 H2         1.0806    1.1058    4.4980 H         1 RES1    0.0000
     14 C2        -0.5539    0.4343    3.5117 C.ar      1 RES1    0.0000
     15 H3        -0.4031   -0.4684    3.6772 H         1 RES1    0.0000
     16 C3        -1.6396    0.8081    2.7921 C.ar      1 RES1    0.0000
     17 H4        -2.2277    0.1662    2.4638 H         1 RES1    0.0000
     18 C4        -1.8639    2.1347    2.5527 C.ar      1 RES1    0.0000
     19 H5        -2.6086    2.3995    2.0620 H         1 RES1    0.0000
     20 C5        -0.9813    3.0868    3.0416 C.ar      1 RES1    0.0000
     21 H6        -1.1418    3.9872    2.8735 H         1 RES1    0.0000
     22 C6         0.1353    2.7212    3.7751 C.ar      1 RES1    0.0000
     23 C7         1.0220    3.8646    4.2876 C.3       1 RES1    0.0000
     24 C8         0.2573    4.5691    5.4674 C.3       1 RES1    0.0000
     25 H7        -0.6548    4.7776    5.1750 H         1 RES1    0.0000
     26 C9         0.9359    5.8503    5.9100 C.ar      1 RES1    0.0000
     27 C10        1.7576    5.8148    7.0292 C.ar      1 RES1    0.0000
     28 H8         1.8207    5.0248    7.5167 H         1 RES1    0.0000
     29 C11        2.4840    6.9148    7.4427 C.ar      1 RES1    0.0000
     30 H9         3.0253    6.8693    8.1984 H         1 RES1    0.0000
     31 C12        2.3905    8.0724    6.7171 C.ar      1 RES1    0.0000
     32 C13        1.5758    8.1809    5.6115 C.ar      1 RES1    0.0000
     33 H10        1.5161    8.9763    5.1333 H         1 RES1    0.0000
     34 C14        0.8528    7.0681    5.2416 C.ar      1 RES1    0.0000
     35 C15        1.8044    4.3742    2.0890 C.3       1 RES1    0.0000
     36 H11        1.1385    3.9183    1.5503 H         1 RES1    0.0000
     37 H12        2.4946    3.7324    2.3185 H         1 RES1    0.0000
     38 C16        2.4032    5.4788    1.2999 C.ar      1 RES1    0.0000
     39 C17        3.7534    5.7078    1.2981 C.ar      1 RES1    0.0000
     40 H13        4.3050    5.2164    1.8641 H         1 RES1    0.0000
     41 C18        4.3072    6.6645    0.4591 C.ar      1 RES1    0.0000
     42 H14        5.2246    6.8165    0.4637 H         1 RES1    0.0000
     43 C19        3.4995    7.3788   -0.3679 C.ar      1 RES1    0.0000
     44 H15        3.8743    8.0006   -0.9491 H         1 RES1    0.0000
     45 C20        2.1694    7.1994   -0.3588 C.ar      1 RES1    0.0000
     46 H16        1.6238    7.7167   -0.9058 H         1 RES1    0.0000
     47 C21        1.6146    6.2400    0.4704 C.ar      1 RES1    0.0000
     48 H17        0.6946    6.1084    0.4668 H         1 RES1    0.0000
     49 C22        2.4036    3.4444    4.8266 C.2       1 RES1    0.0000
     50 C23        4.5543    4.2639    5.3385 C.3       1 RES1    0.0000
     51 H18        4.4491    4.1040    6.2786 H         1 RES1    0.0000
     52 H19        5.0876    5.0510    5.2059 H         1 RES1    0.0000
     53 H20        4.9898    3.5109    4.9323 H         1 RES1    0.0000
@<TRIPOS>BOND
     1    1   23 1
     2    2   49 1
     3    3   49 2
     4    4    5 1
     5    6   10 2
     6    7   10 2
     7    8   11 2
     8    9   11 2
     9   10   31 1
    10   11   34 1
    11   12   13 1
    12   14   12 ar
    13   15   14 1
    14   16   14 ar
    15   17   16 1
    16   18   16 ar
    17   19   18 1
    18   20   18 ar
    19   21   20 1
    20   22   12 ar
    21   23   22 1
    22   24    4 1
    23   25   24 1
    24   26   24 1
    25   27   26 ar
    26   28   27 1
    27   29   27 ar
    28   30   29 1
    29   31   29 ar
    30   32   31 ar
    31   33   32 1
    32   34   26 ar
    33   35    1 1
    34   36   35 1
    35   37   35 1
    36   38   35 1
    37   39   38 ar
    38   40   39 1
    39   41   39 ar
    40   42   41 1
    41   43   41 ar
    42   44   43 1
    43   45   43 ar
    44   46   45 1
    45   47   38 ar
    46   48   47 1
    47   49   23 1
    48   50    2 1
    49   51   50 1
    50   52   50 1
    51   53   50 1
    52   20   22 ar
    53   23   24 1
    54   32   34 ar
    55   45   47 ar
@<TRIPOS>SUBSTRUCTURE
     1 RES1 1

@<TRIPOS>CRYSIN
   8.2450    9.0700   15.5010  93.3400  91.4100 110.2600   2 1

