# MOL2 file generated by ConQuest
# Please check atom types

@<TRIPOS>MOLECULE
FIBGIG
    39    39     1
SMALL
NO_CHARGES
****
Generated from CSD

@<TRIPOS>ATOM
      1 C1        -5.5550   10.6312   10.3591 C.3       1 RES1    0.0000
      2 O1        -5.2966    9.5406    9.4908 O.3       1 RES1    0.0000
      3 C2        -4.0075    9.2963    9.1271 C.ar      1 RES1    0.0000
      4 C3        -2.9102   10.0480    9.5413 C.ar      1 RES1    0.0000
      5 C4        -1.6454    9.7053    9.0871 C.ar      1 RES1    0.0000
      6 C5        -1.4394    8.6365    8.2284 C.ar      1 RES1    0.0000
      7 C6        -2.5605    7.9018    7.8276 C.ar      1 RES1    0.0000
      8 C7        -3.8185    8.2383    8.2618 C.ar      1 RES1    0.0000
      9 C8        -0.0982    8.3067    7.7408 C.2       1 RES1    0.0000
     10 N1         0.0697    7.3446    6.9385 N.2       1 RES1    0.0000
     11 O2         1.4276    7.2207    6.5674 O.3       1 RES1    0.0000
     12 C9         1.5331    6.0721    5.7176 C.3       1 RES1    0.0000
     13 C10        2.8927    6.1034    5.0927 C.2       1 RES1    0.0000
     14 N2         3.2049    6.7584    4.0351 N.2       1 RES1    0.0000
     15 O3         2.1240    7.4610    3.5372 O.3       1 RES1    0.0000
     16 C11        2.5157    8.1505    2.3452 C.3       1 RES1    0.0000
     17 C12        3.9884    5.3157    5.7317 C.2       1 RES1    0.0000
     18 O4         3.8516    4.7775    6.7975 O.2       1 RES1    0.0000
     19 O5         5.1064    5.3000    5.0148 O.3       1 RES1    0.0000
     20 C13        6.2344    4.5387    5.5417 C.3       1 RES1    0.0000
     21 C14        6.1234    3.1162    5.2100 C.3       1 RES1    0.0000
     22 H1        -6.6304   10.6652   10.4653 H         1 RES1    0.0000
     23 H2        -5.2072   11.5535    9.9175 H         1 RES1    0.0000
     24 H3        -5.1003   10.5038   11.3314 H         1 RES1    0.0000
     25 H4        -3.0295   10.8659   10.1016 H         1 RES1    0.0000
     26 H5        -0.8045   10.1294    9.3646 H         1 RES1    0.0000
     27 H6        -2.4516    7.2291    7.2124 H         1 RES1    0.0000
     28 H7        -4.6340    7.6840    7.8840 H         1 RES1    0.0000
     29 H8         0.6272    8.8034    7.9649 H         1 RES1    0.0000
     30 H9         0.8260    6.0815    4.9918 H         1 RES1    0.0000
     31 H10        1.3786    5.3457    6.2045 H         1 RES1    0.0000
     32 H11        1.5612    8.5438    2.0254 H         1 RES1    0.0000
     33 H12        2.8852    7.4535    1.6053 H         1 RES1    0.0000
     34 H13        3.2214    8.9607    2.4610 H         1 RES1    0.0000
     35 H14        7.0843    4.8903    5.1246 H         1 RES1    0.0000
     36 H15        6.3917    4.7557    6.5808 H         1 RES1    0.0000
     37 H16        5.9556    2.9773    4.1517 H         1 RES1    0.0000
     38 H17        5.2416    2.8160    5.7570 H         1 RES1    0.0000
     39 H18        6.9659    2.5162    5.5232 H         1 RES1    0.0000
@<TRIPOS>BOND
     1    1    2 1
     2    2    3 1
     3    3    4 ar
     4    4    5 ar
     5    5    6 ar
     6    6    7 ar
     7    7    8 ar
     8    8    3 ar
     9    9    6 1
    10   10    9 2
    11   11   10 1
    12   12   11 1
    13   13   12 1
    14   14   13 2
    15   15   14 1
    16   16   15 1
    17   17   13 1
    18   18   17 2
    19   19   17 1
    20   20   19 1
    21   21   20 1
    22   22    1 1
    23   23    1 1
    24   24    1 1
    25   25    4 1
    26   26    5 1
    27   27    7 1
    28   28    8 1
    29   29    9 1
    30   30   12 1
    31   31   12 1
    32   32   16 1
    33   33   16 1
    34   34   16 1
    35   35   20 1
    36   36   20 1
    37   37   21 1
    38   38   21 1
    39   39   21 1
@<TRIPOS>SUBSTRUCTURE
     1 RES1 1

@<TRIPOS>CRYSIN
   8.1860   12.7630    7.7950 105.9000  94.0100 103.1500   2 1

