# MOL2 file generated by ConQuest
# Please check atom types

@<TRIPOS>MOLECULE
FIBVIW
    46    51     1
SMALL
NO_CHARGES
****
Generated from CSD

@<TRIPOS>ATOM
      1 O1         4.3040    1.9060   11.0477 O.2       1 RES1    0.0000
      2 N1         5.5538    2.1688   11.2481 N.3       1 RES1    0.0000
      3 C1         7.5840    2.6161   14.3778 C.ar      1 RES1    0.0000
      4 C2         8.4969    3.3212    9.1696 C.ar      1 RES1    0.0000
      5 C3         8.3991    1.3642   10.5984 C.ar      1 RES1    0.0000
      6 C4         7.7831    2.4889   10.0523 C.ar      1 RES1    0.0000
      7 C5         7.6168    4.3410    8.4394 C.3       1 RES1    0.0000
      8 C6         5.3089    1.2435   13.4787 C.ar      1 RES1    0.0000
      9 C7         6.1470    7.2191   10.5641 C.ar      1 RES1    0.0000
     10 C8         5.7690    2.6993    8.7294 C.ar      1 RES1    0.0000
     11 C9         6.8996    6.5865    9.5592 C.ar      1 RES1    0.0000
     12 C10        6.2001    4.4263   10.4295 C.ar      1 RES1    0.0000
     13 C11        6.0436    2.0575   12.5910 C.ar      1 RES1    0.0000
     14 C12        6.2907    2.8967   10.1799 C.3       1 RES1    0.0000
     15 C13        6.9237    5.1923    9.4982 C.ar      1 RES1    0.0000
     16 C14        9.8565    3.1048    8.9381 C.ar      1 RES1    0.0000
     17 C15        5.4281    5.0526   11.4067 C.ar      1 RES1    0.0000
     18 C16        5.2234    2.5677    5.9800 C.ar      1 RES1    0.0000
     19 C17        9.7607    1.1295   10.3362 C.ar      1 RES1    0.0000
     20 C18        6.8554    1.8175   15.2650 C.ar      1 RES1    0.0000
     21 C19       10.4946    2.0116    9.5408 C.ar      1 RES1    0.0000
     22 C20        4.7657    1.8458    8.2603 C.ar      1 RES1    0.0000
     23 C21        5.4190    6.4574   11.4780 C.ar      1 RES1    0.0000
     24 C22        4.5016    1.7873    6.8791 C.ar      1 RES1    0.0000
     25 C23        5.7152    1.1416   14.8061 C.ar      1 RES1    0.0000
     26 C24        7.1833    2.7530   13.0484 C.ar      1 RES1    0.0000
     27 C25        6.2299    3.4295    6.4444 C.ar      1 RES1    0.0000
     28 C26        6.5042    3.4892    7.8080 C.ar      1 RES1    0.0000
     29 H1         7.8860    0.7230   11.1931 H         1 RES1    0.0000
     30 H2        10.1991    0.3411   10.7251 H         1 RES1    0.0000
     31 H3         5.0561    2.5337    4.9965 H         1 RES1    0.0000
     32 H4         6.7445    3.9814    5.7922 H         1 RES1    0.0000
     33 H5        10.3191    3.7142    8.3643 H         1 RES1    0.0000
     34 H6        11.4596    1.8689    9.3880 H         1 RES1    0.0000
     35 H7         8.1194    4.9134    7.7509 H         1 RES1    0.0000
     36 H8         4.2651    1.3345    8.8791 H         1 RES1    0.0000
     37 H9         3.8338    1.2119    6.5411 H         1 RES1    0.0000
     38 H10        7.3805    7.1281    8.8767 H         1 RES1    0.0000
     39 H11        6.1250    8.2127   10.6386 H         1 RES1    0.0000
     40 H12        4.9037    6.8876   12.1833 H         1 RES1    0.0000
     41 H13        4.8876    4.5064   12.0273 H         1 RES1    0.0000
     42 H14        7.6730    3.3228   12.4462 H         1 RES1    0.0000
     43 H15        8.3652    3.0744   14.6786 H         1 RES1    0.0000
     44 H16        7.1542    1.7258   16.2136 H         1 RES1    0.0000
     45 H17        5.1704    0.6004   15.4335 H         1 RES1    0.0000
     46 H18        4.5117    0.7702   13.1603 H         1 RES1    0.0000
@<TRIPOS>BOND
     1    1    2 1
     2    2   13 1
     3    3   20 ar
     4    4    6 ar
     5    5    6 ar
     6    6   14 1
     7    7    4 1
     8    8   13 ar
     9    9   11 ar
    10   10   14 1
    11   11   15 ar
    12   12   14 1
    13   13   26 ar
    14   14    2 1
    15   15    7 1
    16   16    4 ar
    17   17   12 ar
    18   18   24 ar
    19   19    5 ar
    20   20   25 ar
    21   21   16 ar
    22   22   10 ar
    23   23    9 ar
    24   24   22 ar
    25   25    8 ar
    26   26    3 ar
    27   27   18 ar
    28   28    7 1
    29   29    5 1
    30   30   19 1
    31   31   18 1
    32   32   27 1
    33   33   16 1
    34   34   21 1
    35   35    7 1
    36   36   22 1
    37   37   24 1
    38   38   11 1
    39   39    9 1
    40   40   23 1
    41   41   17 1
    42   42   26 1
    43   43    3 1
    44   44   20 1
    45   45   25 1
    46   46    8 1
    47   10   28 ar
    48   12   15 ar
    49   17   23 ar
    50   19   21 ar
    51   27   28 ar
@<TRIPOS>SUBSTRUCTURE
     1 RES1 1

@<TRIPOS>CRYSIN
   9.7170   15.7180   12.0230  90.0000  93.3800  90.0000 231 1

