# MOL2 file generated by ConQuest
# Please check atom types

@<TRIPOS>MOLECULE
FICDOK01
    18    18     1
SMALL
NO_CHARGES
****
Generated from CSD

@<TRIPOS>ATOM
      1 N1         7.2753    3.7759    1.0686 N.pl3     1 RES1    0.0000
      2 C1         7.4345    5.2312    1.0114 C.3       1 RES1    0.0000
      3 H1         8.2139    5.4987    1.5598 H         1 RES1    0.0000
      4 H2         6.6092    5.6406    1.3339 H         1 RES1    0.0000
      5 H3         7.5993    5.5075    0.0847 H         1 RES1    0.0000
      6 C2         6.1531    3.0893    1.4589 C.2       1 RES1    0.0000
      7 H4         5.3401    3.5120    1.7504 H         1 RES1    0.0000
      8 N2         6.3227    1.7870    1.4253 N.2       1 RES1    0.0000
      9 C3         7.6072    1.6343    0.9775 C.2       1 RES1    0.0000
     10 N3         8.1510    0.3461    0.7397 N.pl3     1 RES1    0.0000
     11 O1         7.4980   -0.6487    1.0792 O.2       1 RES1    0.0000
     12 O2         9.2540    0.2710    0.1800 O.2       1 RES1    0.0000
     13 C4         8.2242    2.8529    0.7524 C.2       1 RES1    0.0000
     14 O3         9.4373    3.2660    0.2933 O.3       1 RES1    0.0000
     15 C5        10.5857    2.8416    1.0093 C.3       1 RES1    0.0000
     16 H5        10.5417    3.2016    1.9621 H         1 RES1    0.0000
     17 H6        11.4123    3.3347    0.5435 H         1 RES1    0.0000
     18 H7        10.6665    1.8447    0.9387 H         1 RES1    0.0000
@<TRIPOS>BOND
     1    1    2 1
     2    2    3 1
     3    4    2 1
     4    5    2 1
     5    6    1 1
     6    7    6 1
     7    8    6 2
     8    9    8 1
     9   10    9 1
    10   11   10 2
    11   12   10 2
    12   13    1 1
    13   14   13 1
    14   15   14 1
    15   16   15 1
    16   17   15 1
    17   18   15 1
    18    9   13 2
@<TRIPOS>SUBSTRUCTURE
     1 RES1 1

@<TRIPOS>CRYSIN
  10.7862    8.8688    7.0700  90.0000  93.3550  90.0000  14 1

