# MOL2 file generated by ConQuest
# Please check atom types

@<TRIPOS>MOLECULE
FICFAB
    51    52     1
SMALL
NO_CHARGES
****
Generated from CSD

@<TRIPOS>ATOM
      1 C1        -1.2624    1.1931   12.9727 C.ar      1 RES1    0.0000
      2 H1        -0.8614    0.9611   13.8020 H         1 RES1    0.0000
      3 C2        -0.4773    1.6577   11.9222 C.ar      1 RES1    0.0000
      4 H2         0.4629    1.7469   12.0241 H         1 RES1    0.0000
      5 C3        -1.0919    1.9878   10.7237 C.ar      1 RES1    0.0000
      6 C4        -2.4566    1.8500   10.5202 C.ar      1 RES1    0.0000
      7 H3        -2.8512    2.0723    9.6851 H         1 RES1    0.0000
      8 C5        -3.2306    1.3769   11.5738 C.ar      1 RES1    0.0000
      9 H4        -4.1664    1.2621   11.4569 H         1 RES1    0.0000
     10 C6        -2.6429    1.0698   12.8019 C.ar      1 RES1    0.0000
     11 C7        -3.5376    0.6528   13.9272 C.2       1 RES1    0.0000
     12 C8        -3.6238   -0.1503   16.1733 C.3       1 RES1    0.0000
     13 H5        -4.3544    0.5013   16.3773 H         1 RES1    0.0000
     14 C9        -4.1764   -1.5703   16.0208 C.3       1 RES1    0.0000
     15 H6        -4.1800   -1.8385   15.0678 H         1 RES1    0.0000
     16 H7        -5.1030   -1.6187   16.3660 H         1 RES1    0.0000
     17 C10       -3.2464   -2.4994   16.8392 C.3       1 RES1    0.0000
     18 H8        -3.8094   -3.0479   17.4575 H         1 RES1    0.0000
     19 C11       -2.4486   -1.5112   17.6640 C.2       1 RES1    0.0000
     20 C12       -2.6332   -0.2296   17.3070 C.2       1 RES1    0.0000
     21 C13       -1.9846    1.0101   17.8402 C.3       1 RES1    0.0000
     22 H9        -2.6725    1.6795   18.0378 H         1 RES1    0.0000
     23 H10       -1.3637    1.3673   17.1714 H         1 RES1    0.0000
     24 H11       -1.4931    0.7948   18.6602 H         1 RES1    0.0000
     25 C14       -1.5619   -1.9950   18.7538 C.2       1 RES1    0.0000
     26 C15        0.6279   -2.0719   19.6101 C.3       1 RES1    0.0000
     27 H12        0.3226   -1.8186   20.5062 H         1 RES1    0.0000
     28 H13        1.5160   -1.6907   19.4477 H         1 RES1    0.0000
     29 H14        0.6746   -3.0486   19.5447 H         1 RES1    0.0000
     30 C16       -2.3297   -3.4568   16.0251 C.3       1 RES1    0.0000
     31 C17       -3.1693   -4.3887   15.1599 C.3       1 RES1    0.0000
     32 H15       -2.5791   -4.9905   14.6601 H         1 RES1    0.0000
     33 H16       -3.7032   -3.8586   14.5318 H         1 RES1    0.0000
     34 H17       -3.7657   -4.9161   15.7313 H         1 RES1    0.0000
     35 C18       -1.2894   -2.6873   15.2008 C.3       1 RES1    0.0000
     36 H18       -1.7589   -2.1354   14.5262 H         1 RES1    0.0000
     37 H19       -0.7945   -2.0745   15.8004 H         1 RES1    0.0000
     38 C19       -0.3076   -3.5808   14.5003 C.2       1 RES1    0.0000
     39 H20        0.1202   -4.2531   15.0175 H         1 RES1    0.0000
     40 C20        0.0059   -3.5039   13.2248 C.2       1 RES1    0.0000
     41 H21       -0.4007   -2.8447   12.6746 H         1 RES1    0.0000
     42 H22        0.6388   -4.1076   12.8540 H         1 RES1    0.0000
     43 N1        -0.2646    2.4968    9.6199 N.pl3     1 RES1    0.0000
     44 O1         0.9561    2.5228    9.7745 O.2       1 RES1    0.0000
     45 O2        -0.8310    2.8763    8.5991 O.2       1 RES1    0.0000
     46 O3        -4.7488    0.6716   13.8691 O.2       1 RES1    0.0000
     47 O4        -2.8399    0.2796   15.0055 O.3       1 RES1    0.0000
     48 O5        -1.9330   -2.7065   19.6619 O.2       1 RES1    0.0000
     49 O6        -0.3022   -1.5661   18.6225 O.3       1 RES1    0.0000
     50 O7        -1.5592   -4.2275   16.9689 O.3       1 RES1    0.0000
     51 H23       -2.0647   -4.7648   17.3706 H         1 RES1    0.0000
@<TRIPOS>BOND
     1    1    2 1
     2    3    1 ar
     3    4    3 1
     4    5    3 ar
     5    6    5 ar
     6    7    6 1
     7    8    6 ar
     8    9    8 1
     9   10    1 ar
    10   11   10 1
    11   12   13 1
    12   14   12 1
    13   15   14 1
    14   16   14 1
    15   17   14 1
    16   18   17 1
    17   19   17 1
    18   20   12 1
    19   21   20 1
    20   22   21 1
    21   23   21 1
    22   24   21 1
    23   25   19 1
    24   26   27 1
    25   28   26 1
    26   29   26 1
    27   30   17 1
    28   31   30 1
    29   32   31 1
    30   33   31 1
    31   34   31 1
    32   35   30 1
    33   36   35 1
    34   37   35 1
    35   38   35 1
    36   39   38 1
    37   40   38 2
    38   41   40 1
    39   42   40 1
    40   43    5 1
    41   44   43 2
    42   45   43 2
    43   46   11 2
    44   47   11 1
    45   48   25 2
    46   49   25 1
    47   50   30 1
    48   51   50 1
    49    8   10 ar
    50   12   47 1
    51   19   20 2
    52   26   49 1
@<TRIPOS>SUBSTRUCTURE
     1 RES1 1

@<TRIPOS>CRYSIN
   6.6655   11.8441   12.9956 101.3990  98.1410  99.2860   2 1

