# MOL2 file generated by ConQuest
# Please check atom types

@<TRIPOS>MOLECULE
FICGUU
    27    27     1
SMALL
NO_CHARGES
****
Generated from CSD

@<TRIPOS>ATOM
      1 O1         1.2255   10.4862    8.4354 O.2       1 RES1    0.0000
      2 O2         2.5848    6.1215   10.1604 O.2       1 RES1    0.0000
      3 O3         1.6251    4.3113    9.4777 O.2       1 RES1    0.0000
      4 N1        -0.8542    9.5945    8.4296 N.am      1 RES1    0.0000
      5 H1        -1.7280    9.8072    8.3733 H         1 RES1    0.0000
      6 N2         1.7365    5.5318    9.4954 N.pl3     1 RES1    0.0000
      7 C1        -0.4349    8.2621    8.1490 C.ar      1 RES1    0.0000
      8 C2         0.4225    7.5957    9.0427 C.ar      1 RES1    0.0000
      9 C3         0.8220    6.3155    8.6555 C.ar      1 RES1    0.0000
     10 C4         0.3768    5.6918    7.5029 C.ar      1 RES1    0.0000
     11 H2         0.6817    4.8172    7.2593 H         1 RES1    0.0000
     12 C5        -0.5023    6.3633    6.6828 C.ar      1 RES1    0.0000
     13 H3        -0.8055    5.9621    5.8909 H         1 RES1    0.0000
     14 C6        -0.9197    7.6539    6.9855 C.ar      1 RES1    0.0000
     15 C7         0.7695    8.2075   10.3690 C.3       1 RES1    0.0000
     16 H4         0.8261    7.5390   11.0638 H         1 RES1    0.0000
     17 H5         1.6319    8.6544   10.3547 H         1 RES1    0.0000
     18 H6         0.0935    8.8861   10.6091 H         1 RES1    0.0000
     19 C8        -1.8820    8.3724    6.0755 C.3       1 RES1    0.0000
     20 H7        -2.1184    7.8650    5.3101 H         1 RES1    0.0000
     21 H8        -2.7320    8.6210    6.5491 H         1 RES1    0.0000
     22 H9        -1.4982    9.2278    5.7968 H         1 RES1    0.0000
     23 C9         0.0076   10.6382    8.4979 C.2       1 RES1    0.0000
     24 C10       -0.6012   11.9968    8.6665 C.3       1 RES1    0.0000
     25 H10       -1.5811   11.9830    8.6012 H         1 RES1    0.0000
     26 H11       -0.2068   12.5820    8.0426 H         1 RES1    0.0000
     27 H12       -0.3678   12.3758    9.5581 H         1 RES1    0.0000
@<TRIPOS>BOND
     1    1   23 2
     2    2    6 2
     3    3    6 2
     4    4    5 1
     5    6    9 1
     6    7    4 1
     7    8    7 ar
     8    9    8 ar
     9   10    9 ar
    10   11   10 1
    11   12   10 ar
    12   13   12 1
    13   14    7 ar
    14   15    8 1
    15   16   15 1
    16   17   15 1
    17   18   15 1
    18   19   14 1
    19   20   19 1
    20   21   19 1
    21   22   19 1
    22   23    4 1
    23   24   23 1
    24   25   24 1
    25   26   24 1
    26   27   24 1
    27   12   14 ar
@<TRIPOS>SUBSTRUCTURE
     1 RES1 1

@<TRIPOS>CRYSIN
   4.7679   19.6379   11.1048  90.0000  94.9930  90.0000  14 1

