# MOL2 file generated by ConQuest
# Please check atom types

@<TRIPOS>MOLECULE
FICQOA
    23    22     1
SMALL
NO_CHARGES
****
Generated from CSD

@<TRIPOS>ATOM
      1 O1        -1.8330    2.3004    1.3688 O.3       1 RES1    0.0000
      2 O2        -2.1565    0.6320    2.8186 O.2       1 RES1    0.0000
      3 O3         1.1005    4.2803    2.7462 O.3       1 RES1    0.0000
      4 O4        -0.7473    6.7684    2.7273 O.3       1 RES1    0.0000
      5 O5        -2.4442    0.3344    0.6827 O.2       1 RES1    0.0000
      6 O6         2.9161    4.4810    1.4825 O.2       1 RES1    0.0000
      7 N1        -1.5519    7.6602    2.0128 N.pl3     1 RES1    0.0000
      8 N2        -2.1704    0.9853    1.6701 N.pl3     1 RES1    0.0000
      9 N3         2.4773    4.3318    2.5878 N.pl3     1 RES1    0.0000
     10 O7        -2.6669    7.3177    1.7175 O.2       1 RES1    0.0000
     11 O8         3.0676    4.2164    3.6381 O.2       1 RES1    0.0000
     12 O9        -0.9940    8.6991    1.7777 O.2       1 RES1    0.0000
     13 C1        -1.1131    4.4568    1.9835 C.3       1 RES1    0.0000
     14 H1        -1.6781    4.6704    1.2121 H         1 RES1    0.0000
     15 C2        -1.3668    5.5141    3.0665 C.3       1 RES1    0.0000
     16 H2        -2.3230    5.6453    3.1715 H         1 RES1    0.0000
     17 H3        -1.0137    5.1993    3.9136 H         1 RES1    0.0000
     18 C3        -1.5677    3.1125    2.5457 C.3       1 RES1    0.0000
     19 H4        -0.8732    2.7130    3.0923 H         1 RES1    0.0000
     20 H5        -2.3694    3.2160    3.0820 H         1 RES1    0.0000
     21 C4         0.3288    4.4285    1.5169 C.3       1 RES1    0.0000
     22 H6         0.4842    3.6811    0.9177 H         1 RES1    0.0000
     23 H7         0.5614    5.2517    1.0598 H         1 RES1    0.0000
@<TRIPOS>BOND
     1    1    8 1
     2    2    8 2
     3    3    9 1
     4    4    7 1
     5    5    8 2
     6    6    9 2
     7    7   10 2
     8    9   11 2
     9   12    7 2
    10   13   14 1
    11   15    4 1
    12   16   15 1
    13   17   15 1
    14   18    1 1
    15   19   18 1
    16   20   18 1
    17   21    3 1
    18   22   21 1
    19   23   21 1
    20   13   15 1
    21   13   18 1
    22   13   21 1
@<TRIPOS>SUBSTRUCTURE
     1 RES1 1

@<TRIPOS>CRYSIN
   7.6451    7.8238    8.9723 100.5570  96.7530 114.7600   2 1

