# MOL2 file generated by ConQuest
# Please check atom types

@<TRIPOS>MOLECULE
FICVAQ
    55    60     1
SMALL
NO_CHARGES
****
Generated from CSD

@<TRIPOS>ATOM
      1 C1        10.3213    6.7169   13.1616 C.ar      1 RES1    0.0000
      2 C2         9.7038    7.9666   13.2506 C.ar      1 RES1    0.0000
      3 H1         9.6883    8.5285   12.5093 H         1 RES1    0.0000
      4 C3         9.1232    8.3692   14.4214 C.ar      1 RES1    0.0000
      5 H2         8.7229    9.2073   14.4755 H         1 RES1    0.0000
      6 C4         9.1279    7.5400   15.5192 C.ar      1 RES1    0.0000
      7 H3         8.7192    7.8132   16.3088 H         1 RES1    0.0000
      8 C5         9.7386    6.3022   15.4540 C.ar      1 RES1    0.0000
      9 H4         9.7412    5.7453   16.1982 H         1 RES1    0.0000
     10 C6        10.3486    5.8900   14.2782 C.ar      1 RES1    0.0000
     11 C7        10.9837    4.5458   14.2290 C.2       1 RES1    0.0000
     12 C8        11.7378    4.1843   13.0088 C.ar      1 RES1    0.0000
     13 C9        11.5513    4.9403   11.8270 C.ar      1 RES1    0.0000
     14 C10       10.8643    6.2525   11.8668 C.2       1 RES1    0.0000
     15 C11       12.5118    3.0264   12.9013 C.ar      1 RES1    0.0000
     16 C12       12.9062    2.5646   11.6263 C.ar      1 RES1    0.0000
     17 C13       12.6570    3.2718   10.4730 C.ar      1 RES1    0.0000
     18 H5        12.9175    2.9473    9.6417 H         1 RES1    0.0000
     19 C14       12.0059    4.4829   10.5981 C.ar      1 RES1    0.0000
     20 H6        11.8683    5.0048    9.8406 H         1 RES1    0.0000
     21 C15       13.7183    1.1153   13.1449 C.2       1 RES1    0.0000
     22 C16       13.2742    2.2888   15.2534 C.3       1 RES1    0.0000
     23 H7        13.6379    1.4675   15.6192 H         1 RES1    0.0000
     24 H8        12.4361    2.4731   15.7063 H         1 RES1    0.0000
     25 C17       14.2297    3.4085   15.5030 C.2       1 RES1    0.0000
     26 H9        15.0529    3.3867   15.0697 H         1 RES1    0.0000
     27 C18       13.9802    4.4130   16.2899 C.2       1 RES1    0.0000
     28 H10       13.1657    4.4626   16.7359 H         1 RES1    0.0000
     29 H11       14.6152    5.0815   16.4052 H         1 RES1    0.0000
     30 C19       14.0721    0.4786   10.7766 C.3       1 RES1    0.0000
     31 H12       14.9449    0.1401   11.0302 H         1 RES1    0.0000
     32 H13       14.1697    0.9638    9.9429 H         1 RES1    0.0000
     33 C20       13.1268   -0.6823   10.5713 C.3       1 RES1    0.0000
     34 H14       12.9988   -1.1700   11.4114 H         1 RES1    0.0000
     35 C21       13.5888   -1.6343    9.4728 C.3       1 RES1    0.0000
     36 H15       14.5333   -1.5259    9.2781 H         1 RES1    0.0000
     37 H16       13.4104   -2.5594    9.7017 H         1 RES1    0.0000
     38 C22       12.7345   -1.1706    8.3390 C.2       1 RES1    0.0000
     39 C23       12.8947   -1.5450    6.9320 C.ar      1 RES1    0.0000
     40 C24       13.8182   -2.4941    6.5435 C.ar      1 RES1    0.0000
     41 H17       14.3274   -2.9441    7.1789 H         1 RES1    0.0000
     42 C25       13.9778   -2.7688    5.1916 C.ar      1 RES1    0.0000
     43 H18       14.6048   -3.4117    4.9503 H         1 RES1    0.0000
     44 C26       12.4000   -1.2859    4.6086 C.ar      1 RES1    0.0000
     45 H19       11.8996   -0.8665    3.9466 H         1 RES1    0.0000
     46 C27       12.1548   -0.9365    5.9203 C.ar      1 RES1    0.0000
     47 H20       11.5056   -0.3034    6.1258 H         1 RES1    0.0000
     48 N1        13.0254    2.1149   13.8230 N.am      1 RES1    0.0000
     49 N2        13.5913    1.3846   11.8051 N.am      1 RES1    0.0000
     50 N3        11.7956   -0.3794    8.6919 N.2       1 RES1    0.0000
     51 N4        13.3023   -2.1806    4.2287 N.ar      1 RES1    0.0000
     52 O1        10.7896    3.7415   15.1230 O.2       1 RES1    0.0000
     53 O2        10.7464    6.9360   10.8629 O.2       1 RES1    0.0000
     54 O3        14.3344    0.1916   13.6438 O.2       1 RES1    0.0000
     55 O4        11.8553   -0.1746   10.0841 O.3       1 RES1    0.0000
@<TRIPOS>BOND
     1    1    2 ar
     2    2    3 1
     3    4    2 ar
     4    5    4 1
     5    6    4 ar
     6    7    6 1
     7    8    6 ar
     8    9    8 1
     9   10    1 ar
    10   11   10 1
    11   12   11 1
    12   13   12 ar
    13   14    1 1
    14   15   12 ar
    15   16   15 ar
    16   17   16 ar
    17   18   17 1
    18   19   13 ar
    19   20   19 1
    20   21   48 1
    21   22   23 1
    22   24   22 1
    23   25   22 1
    24   26   25 1
    25   27   25 2
    26   28   27 1
    27   29   27 1
    28   30   31 1
    29   32   30 1
    30   33   30 1
    31   34   33 1
    32   35   33 1
    33   36   35 1
    34   37   35 1
    35   38   35 1
    36   39   38 1
    37   40   39 ar
    38   41   40 1
    39   42   40 ar
    40   43   42 1
    41   44   45 1
    42   46   39 ar
    43   47   46 1
    44   48   15 1
    45   49   16 1
    46   50   38 2
    47   51   42 ar
    48   52   11 2
    49   53   14 2
    50   54   21 2
    51   55   33 1
    52    8   10 ar
    53   13   14 1
    54   17   19 ar
    55   21   49 1
    56   22   48 1
    57   30   49 1
    58   44   46 ar
    59   44   51 ar
    60   50   55 1
@<TRIPOS>SUBSTRUCTURE
     1 RES1 1

@<TRIPOS>CRYSIN
   8.0930   12.1191   12.2743  87.1090  73.6120  72.2830   2 1

