# MOL2 file generated by ConQuest
# Please check atom types

@<TRIPOS>MOLECULE
FICZOH
    59    60     1
SMALL
NO_CHARGES
****
Generated from CSD

@<TRIPOS>ATOM
      1 O1         7.8788    3.7857    9.5987 O.3       1 RES1    0.0000
      2 O2         5.2046    4.3138    8.7562 O.3       1 RES1    0.0000
      3 N1         8.7788    2.7833    9.0373 N.3       1 RES1    0.0000
      4 C1         6.7193    3.1945   10.2201 C.3       1 RES1    0.0000
      5 H1         6.4489    2.3850    9.6986 H         1 RES1    0.0000
      6 C2         8.6154    2.8263    7.5434 C.3       1 RES1    0.0000
      7 C3         9.7010    1.9199    6.9341 C.3       1 RES1    0.0000
      8 H2         9.4885    0.9785    7.1554 H         1 RES1    0.0000
      9 H3         9.6733    2.0103    5.9489 H         1 RES1    0.0000
     10 C4        11.1113    2.2245    7.4111 C.3       1 RES1    0.0000
     11 H4        11.7484    1.5733    7.0229 H         1 RES1    0.0000
     12 H5        11.3787    3.1333    7.1229 H         1 RES1    0.0000
     13 C5        11.1338    2.1328    8.9236 C.3       1 RES1    0.0000
     14 H6        12.0451    2.3417    9.2453 H         1 RES1    0.0000
     15 H7        10.9221    1.2042    9.1942 H         1 RES1    0.0000
     16 C6        10.1384    3.0864    9.5903 C.3       1 RES1    0.0000
     17 C7         8.6439    4.2356    6.9288 C.3       1 RES1    0.0000
     18 H8         7.9912    4.8067    7.3902 H         1 RES1    0.0000
     19 H9         8.4152    4.1814    5.9745 H         1 RES1    0.0000
     20 H10        9.5429    4.6188    7.0299 H         1 RES1    0.0000
     21 C8         7.2604    2.1946    7.1933 C.3       1 RES1    0.0000
     22 H11        7.1836    1.3165    7.6343 H         1 RES1    0.0000
     23 H12        7.1944    2.0793    6.2162 H         1 RES1    0.0000
     24 H13        6.5343    2.7820    7.5041 H         1 RES1    0.0000
     25 C9        10.6183    4.5378    9.4483 C.3       1 RES1    0.0000
     26 H14       10.9004    4.6989    8.5270 H         1 RES1    0.0000
     27 H15       11.3710    4.6922   10.0520 H         1 RES1    0.0000
     28 H16        9.8892    5.1459    9.6754 H         1 RES1    0.0000
     29 C10       10.1053    2.7525   11.0809 C.3       1 RES1    0.0000
     30 H17        9.5320    3.4224   11.5610 H         1 RES1    0.0000
     31 H18       11.0370    2.7831   11.4512 H         1 RES1    0.0000
     32 H19        9.7246    1.8335   11.2095 H         1 RES1    0.0000
     33 C11        6.9164    2.8025   11.6719 C.ar      1 RES1    0.0000
     34 C12        6.8039    1.4659   12.0536 C.ar      1 RES1    0.0000
     35 H20        6.6322    0.8039   11.3934 H         1 RES1    0.0000
     36 C13        6.9392    1.0867   13.3896 C.ar      1 RES1    0.0000
     37 H21        6.8698    0.1712   13.6344 H         1 RES1    0.0000
     38 C14        7.1755    2.0518   14.3592 C.ar      1 RES1    0.0000
     39 H22        7.2597    1.7991   15.2710 H         1 RES1    0.0000
     40 C15        7.2876    3.3887   13.9938 C.ar      1 RES1    0.0000
     41 H23        7.4491    4.0495   14.6572 H         1 RES1    0.0000
     42 C16        7.1635    3.7616   12.6580 C.ar      1 RES1    0.0000
     43 H24        7.2472    4.6755   12.4139 H         1 RES1    0.0000
     44 C17        5.6217    4.2440   10.1073 C.3       1 RES1    0.0000
     45 H25        4.8569    3.9973   10.6843 H         1 RES1    0.0000
     46 H26        5.9643    5.1247   10.4030 H         1 RES1    0.0000
     47 C18        4.1703    5.2715    8.4396 C.3       1 RES1    0.0000
     48 C19        2.9352    5.0479    9.3034 C.3       1 RES1    0.0000
     49 H27        2.6808    4.0807    9.2779 H         1 RES1    0.0000
     50 H28        2.1791    5.6006    8.9547 H         1 RES1    0.0000
     51 H29        3.1353    5.3149   10.2473 H         1 RES1    0.0000
     52 C20        3.8508    4.9754    6.9848 C.3       1 RES1    0.0000
     53 H30        4.6829    5.0669    6.4345 H         1 RES1    0.0000
     54 H31        3.1608    5.6229    6.6561 H         1 RES1    0.0000
     55 H32        3.4978    4.0406    6.9037 H         1 RES1    0.0000
     56 C21        4.6798    6.6956    8.5895 C.3       1 RES1    0.0000
     57 H33        4.8848    6.8749    9.5429 H         1 RES1    0.0000
     58 H34        3.9840    7.3308    8.2759 H         1 RES1    0.0000
     59 H35        5.5014    6.8115    8.0458 H         1 RES1    0.0000
@<TRIPOS>BOND
     1    1    3 1
     2    2   44 1
     3    3    6 1
     4    4    1 1
     5    5    4 1
     6    6    7 1
     7    7    8 1
     8    9    7 1
     9   10    7 1
    10   11   10 1
    11   12   10 1
    12   13   10 1
    13   14   13 1
    14   15   13 1
    15   16    3 1
    16   17    6 1
    17   18   17 1
    18   19   17 1
    19   20   17 1
    20   21    6 1
    21   22   21 1
    22   23   21 1
    23   24   21 1
    24   25   16 1
    25   26   25 1
    26   27   25 1
    27   28   25 1
    28   29   16 1
    29   30   29 1
    30   31   29 1
    31   32   29 1
    32   33    4 1
    33   34   33 ar
    34   35   34 1
    35   36   34 ar
    36   37   36 1
    37   38   36 ar
    38   39   38 1
    39   40   38 ar
    40   41   40 1
    41   42   33 ar
    42   43   42 1
    43   44    4 1
    44   45   44 1
    45   46   44 1
    46   47    2 1
    47   48   47 1
    48   49   48 1
    49   50   48 1
    50   51   48 1
    51   52   47 1
    52   53   52 1
    53   54   52 1
    54   55   52 1
    55   56   47 1
    56   57   56 1
    57   58   56 1
    58   59   56 1
    59   13   16 1
    60   40   42 ar
@<TRIPOS>SUBSTRUCTURE
     1 RES1 1

@<TRIPOS>CRYSIN
  15.5320   11.1190   23.2470  90.0000  90.0000  90.0000  61 1

