# MOL2 file generated by ConQuest
# Please check atom types

@<TRIPOS>MOLECULE
FIDGUV
    79    82     1
SMALL
NO_CHARGES
****
Generated from CSD

@<TRIPOS>ATOM
      1 N1         4.8945    1.1726   -1.5140 N.am      1 RES1    0.0000
      2 C1         4.1597    0.6011   -2.5518 C.2       1 RES1    0.0000
      3 C2         2.7894    1.0717   -2.5665 C.2       1 RES1    0.0000
      4 C3         2.2971    1.8676   -1.5059 C.2       1 RES1    0.0000
      5 C4         3.1193    2.2928   -0.4243 C.2       1 RES1    0.0000
      6 C5         2.6016    3.0608    0.7440 C.ar      1 RES1    0.0000
      7 C6         2.3492    4.4262    0.6375 C.ar      1 RES1    0.0000
      8 C7         1.9981    5.1879    1.7461 C.ar      1 RES1    0.0000
      9 C8         1.8673    4.5154    2.9829 C.ar      1 RES1    0.0000
     10 C9         2.1093    3.1306    3.1305 C.ar      1 RES1    0.0000
     11 C10        2.4667    2.4315    1.9760 C.ar      1 RES1    0.0000
     12 C11        4.4345    1.9490   -0.4920 C.2       1 RES1    0.0000
     13 C12        5.6148    2.2778    0.3965 C.3       1 RES1    0.0000
     14 C13        5.6190    3.7348    0.9005 C.2       1 RES1    0.0000
     15 O1         5.7120    4.6451    0.1068 O.2       1 RES1    0.0000
     16 C14        5.5160    3.9816    2.3898 C.3       1 RES1    0.0000
     17 C15        6.3235    5.1848    2.8890 C.3       1 RES1    0.0000
     18 C16        7.7921    5.2480    2.5085 C.3       1 RES1    0.0000
     19 C17        8.6709    4.0773    2.9410 C.3       1 RES1    0.0000
     20 C18        8.5117    2.7613    2.1758 C.3       1 RES1    0.0000
     21 C19        8.8076    2.8229    0.6758 C.3       1 RES1    0.0000
     22 C20        8.1478    1.6530   -0.1059 C.3       1 RES1    0.0000
     23 C21        6.7654    2.0112   -0.6070 C.3       1 RES1    0.0000
     24 O2         6.2630    0.8882   -1.3948 O.3       1 RES1    0.0000
     25 O3         4.6990   -0.2077   -3.3035 O.2       1 RES1    0.0000
     26 C22        1.8880    0.7222   -3.6646 C.2       1 RES1    0.0000
     27 O4         0.6938    1.0844   -3.6395 O.2       1 RES1    0.0000
     28 C23        2.3644   -0.0559   -4.8547 C.3       1 RES1    0.0000
     29 O5         1.0225    2.2496   -1.4765 O.3       1 RES1    0.0000
     30 C24        1.8254    6.7122    1.6400 C.3       1 RES1    0.0000
     31 C25        1.9939    7.2006    0.1894 C.3       1 RES1    0.0000
     32 C26        0.4125    7.1467    2.0657 C.3       1 RES1    0.0000
     33 C27        2.9026    7.4148    2.4847 C.3       1 RES1    0.0000
     34 O6         1.5428    5.3121    4.0500 O.3       1 RES1    0.0000
     35 C28        2.0764    2.4215    4.5041 C.3       1 RES1    0.0000
     36 C29        2.4056    0.9248    4.3595 C.3       1 RES1    0.0000
     37 C30        3.1440    3.0277    5.4348 C.3       1 RES1    0.0000
     38 C31        0.6759    2.4941    5.1442 C.3       1 RES1    0.0000
     39 H1         0.6646    1.8926   -2.2172 H         1 RES1    0.0000
     40 H2         1.2999    4.9125    4.6837 H         1 RES1    0.0000
     41 H3         2.4223    4.8695   -0.2558 H         1 RES1    0.0000
     42 H4         2.6306    1.4465    2.0375 H         1 RES1    0.0000
     43 H5         5.6466    1.7555    1.2490 H         1 RES1    0.0000
     44 H6         5.8440    3.1652    2.8653 H         1 RES1    0.0000
     45 H7         4.5537    4.1350    2.6161 H         1 RES1    0.0000
     46 H8         6.2721    5.1867    3.8874 H         1 RES1    0.0000
     47 H9         5.8853    6.0092    2.5308 H         1 RES1    0.0000
     48 H10        8.1735    6.0787    2.9152 H         1 RES1    0.0000
     49 H11        7.8434    5.3115    1.5114 H         1 RES1    0.0000
     50 H12        9.6238    4.3662    2.8483 H         1 RES1    0.0000
     51 H13        8.4713    3.8915    3.9031 H         1 RES1    0.0000
     52 H14        9.1319    2.0931    2.5833 H         1 RES1    0.0000
     53 H15        7.5672    2.4532    2.2894 H         1 RES1    0.0000
     54 H16        9.7973    2.7805    0.5418 H         1 RES1    0.0000
     55 H17        8.4577    3.6869    0.3149 H         1 RES1    0.0000
     56 H18        8.7259    1.4220   -0.8895 H         1 RES1    0.0000
     57 H19        8.0757    0.8614    0.4999 H         1 RES1    0.0000
     58 H20        6.9455    2.8828   -1.0653 H         1 RES1    0.0000
     59 H21        1.6035   -0.1923   -5.4893 H         1 RES1    0.0000
     60 H22        3.0936    0.4501   -5.3135 H         1 RES1    0.0000
     61 H23        2.7122   -0.9432   -4.5552 H         1 RES1    0.0000
     62 H24        1.8761    8.1923    0.1561 H         1 RES1    0.0000
     63 H25        2.9081    6.9626   -0.1378 H         1 RES1    0.0000
     64 H26        1.3076    6.7641   -0.3910 H         1 RES1    0.0000
     65 H27        0.3316    8.1391    1.9863 H         1 RES1    0.0000
     66 H28        0.2518    6.8746    3.0149 H         1 RES1    0.0000
     67 H29       -0.2632    6.7089    1.4733 H         1 RES1    0.0000
     68 H30        2.7881    8.4051    2.4140 H         1 RES1    0.0000
     69 H31        2.8103    7.1365    3.4413 H         1 RES1    0.0000
     70 H32        3.8085    7.1590    2.1490 H         1 RES1    0.0000
     71 H33        2.3785    0.4890    5.2597 H         1 RES1    0.0000
     72 H34        3.3199    0.8225    3.9661 H         1 RES1    0.0000
     73 H35        1.7330    0.4931    3.7588 H         1 RES1    0.0000
     74 H36        3.1169    2.5637    6.3211 H         1 RES1    0.0000
     75 H37        2.9609    4.0020    5.5628 H         1 RES1    0.0000
     76 H38        4.0488    2.9094    5.0248 H         1 RES1    0.0000
     77 H39        0.6887    2.0276    6.0285 H         1 RES1    0.0000
     78 H40        0.4191    3.4516    5.2754 H         1 RES1    0.0000
     79 H41        0.0107    2.0522    4.5434 H         1 RES1    0.0000
@<TRIPOS>BOND
     1    1    2 1
     2    2    3 1
     3    3    4 2
     4    4    5 1
     5    5    6 1
     6    6    7 ar
     7    7    8 ar
     8    8    9 ar
     9    9   10 ar
    10   10   11 ar
    11   11    6 ar
    12   12    1 1
    13   13   12 1
    14   14   13 1
    15   15   14 2
    16   16   14 1
    17   17   16 1
    18   18   17 1
    19   19   18 1
    20   20   19 1
    21   21   20 1
    22   22   21 1
    23   23   13 1
    24   24    1 1
    25   25    2 2
    26   26    3 1
    27   27   26 2
    28   28   26 1
    29   29    4 1
    30   30    8 1
    31   31   30 1
    32   32   30 1
    33   33   30 1
    34   34    9 1
    35   35   10 1
    36   36   35 1
    37   37   35 1
    38   38   35 1
    39   39   29 1
    40   40   34 1
    41   41    7 1
    42   42   11 1
    43   43   13 1
    44   44   16 1
    45   45   16 1
    46   46   17 1
    47   47   17 1
    48   48   18 1
    49   49   18 1
    50   50   19 1
    51   51   19 1
    52   52   20 1
    53   53   20 1
    54   54   21 1
    55   55   21 1
    56   56   22 1
    57   57   22 1
    58   58   23 1
    59   59   28 1
    60   60   28 1
    61   61   28 1
    62   62   31 1
    63   63   31 1
    64   64   31 1
    65   65   32 1
    66   66   32 1
    67   67   32 1
    68   68   33 1
    69   69   33 1
    70   70   33 1
    71   71   36 1
    72   72   36 1
    73   73   36 1
    74   74   37 1
    75   75   37 1
    76   76   37 1
    77   77   38 1
    78   78   38 1
    79   79   38 1
    80    5   12 2
    81   22   23 1
    82   23   24 1
@<TRIPOS>SUBSTRUCTURE
     1 RES1 1

@<TRIPOS>CRYSIN
  10.5172   20.4602   13.1197  90.0000  90.0512  90.0000 231 1

