# MOL2 file generated by ConQuest
# Please check atom types

@<TRIPOS>MOLECULE
FIDHIL
    33    34     1
SMALL
NO_CHARGES
****
Generated from CSD

@<TRIPOS>ATOM
      1 C1         5.1447    0.3342    7.6964 C.ar      1 RES1    0.0000
      2 C2         6.0176   -0.1622    8.6562 C.ar      1 RES1    0.0000
      3 H1         5.6829   -0.5568    9.4286 H         1 RES1    0.0000
      4 C3         3.1391   -0.3403    8.8572 C.3       1 RES1    0.0000
      5 H2         3.5404   -0.0951    9.7064 H         1 RES1    0.0000
      6 H3         3.2139   -1.3014    8.7468 H         1 RES1    0.0000
      7 C4         7.3791   -0.0724    8.4654 C.ar      1 RES1    0.0000
      8 H4         7.9505   -0.3953    9.1242 H         1 RES1    0.0000
      9 C5         1.6954    0.0830    8.8170 C.3       1 RES1    0.0000
     10 H5         1.3493   -0.0377    7.9191 H         1 RES1    0.0000
     11 H6         1.1784   -0.4776    9.4160 H         1 RES1    0.0000
     12 C6         7.9184    0.4844    7.3217 C.ar      1 RES1    0.0000
     13 H7         8.8407    0.5334    7.2051 H         1 RES1    0.0000
     14 C7         7.0567    0.9680    6.3527 C.ar      1 RES1    0.0000
     15 C8         1.4835    2.5440    8.3658 C.2       1 RES1    0.0000
     16 C9         5.6687    0.9001    6.5300 C.ar      1 RES1    0.0000
     17 C10        7.5682    1.5617    5.1411 C.1       1 RES1    0.0000
     18 C11        1.7347    3.4004   10.3020 C.2       1 RES1    0.0000
     19 H8         1.8339    4.0198   10.9886 H         1 RES1    0.0000
     20 C12        4.7958    1.4305    5.5179 C.1       1 RES1    0.0000
     21 C13        1.7148    2.0574   10.4665 C.2       1 RES1    0.0000
     22 C14        1.2817    2.4113    6.8980 C.3       1 RES1    0.0000
     23 H9         0.4030    2.0650    6.7253 H         1 RES1    0.0000
     24 H10        1.9385    1.8099    6.5373 H         1 RES1    0.0000
     25 H11        1.3748    3.2713    6.4826 H         1 RES1    0.0000
     26 N1         1.5472    1.4929    9.2143 N.pl3     1 RES1    0.0000
     27 N2         1.5906    3.7099    8.9897 N.2       1 RES1    0.0000
     28 N3         7.9367    2.0484    4.1818 N.1       1 RES1    0.0000
     29 N4         4.1535    1.8869    4.6899 N.1       1 RES1    0.0000
     30 N5         1.7391    1.3346   11.6822 N.pl3     1 RES1    0.0000
     31 O1         3.7987    0.3438    7.7728 O.3       1 RES1    0.0000
     32 O2         1.9311    1.9737   12.7172 O.2       1 RES1    0.0000
     33 O3         1.5554    0.1283   11.6638 O.2       1 RES1    0.0000
@<TRIPOS>BOND
     1    1    2 ar
     2    2    3 1
     3    4    5 1
     4    6    4 1
     5    7    2 ar
     6    8    7 1
     7    9    4 1
     8   10    9 1
     9   11    9 1
    10   12    7 ar
    11   13   12 1
    12   14   12 ar
    13   15   22 1
    14   16    1 ar
    15   17   14 1
    16   18   19 1
    17   20   16 1
    18   21   18 2
    19   22   23 1
    20   24   22 1
    21   25   22 1
    22   26    9 1
    23   27   15 2
    24   28   17 3
    25   29   20 3
    26   30   21 1
    27   31    1 1
    28   32   30 2
    29   33   30 2
    30    4   31 1
    31   14   16 ar
    32   15   26 1
    33   18   27 1
    34   21   26 1
@<TRIPOS>SUBSTRUCTURE
     1 RES1 1

@<TRIPOS>CRYSIN
  25.5069    7.5446   14.0286  90.0000  90.0000  90.0000  60 1

