# MOL2 file generated by ConQuest
# Please check atom types

@<TRIPOS>MOLECULE
FIFCON
    53    54     1
SMALL
NO_CHARGES
****
Generated from CSD

@<TRIPOS>ATOM
      1 N1         0.7481   -6.7661  -13.0616 N.3       1 RES1    0.0000
      2 O1         1.7639   -7.7158  -13.5316 O.3       1 RES1    0.0000
      3 O2         0.4560   -9.3798  -12.7717 O.2       1 RES1    0.0000
      4 O3        -0.3614   -6.0050  -16.5060 O.3       1 RES1    0.0000
      5 O4        -2.3651   -5.5992  -15.5336 O.3       1 RES1    0.0000
      6 O5        -2.0683   -8.0246  -12.8497 O.3       1 RES1    0.0000
      7 H1        -1.2587   -8.1478  -12.8239 H         1 RES1    0.0000
      8 C1         1.4801   -9.0098  -13.2412 C.2       1 RES1    0.0000
      9 C2         2.6489   -9.8588  -13.5895 C.3       1 RES1    0.0000
     10 H2         3.3516   -9.3080  -13.9419 H         1 RES1    0.0000
     11 H3         2.3890  -10.5056  -14.2496 H         1 RES1    0.0000
     12 H4         2.9610  -10.3120  -12.8042 H         1 RES1    0.0000
     13 C3         0.5044   -5.8644  -14.2319 C.3       1 RES1    0.0000
     14 H5        -0.0208   -5.0982  -13.9204 H         1 RES1    0.0000
     15 C4         1.7585   -5.3391  -14.8646 C.2       1 RES1    0.0000
     16 H6         2.3121   -5.9462  -15.3014 H         1 RES1    0.0000
     17 C5         2.1229   -4.0900  -14.8429 C.2       1 RES1    0.0000
     18 H7         1.5916   -3.4578  -14.4142 H         1 RES1    0.0000
     19 H8         2.9149   -3.8300  -15.2549 H         1 RES1    0.0000
     20 C6        -0.3498   -6.6484  -15.2306 C.3       1 RES1    0.0000
     21 H9         0.0292   -7.5460  -15.3336 H         1 RES1    0.0000
     22 C7        -1.8484   -6.7761  -14.9279 C.3       1 RES1    0.0000
     23 H10       -2.2014   -7.5565  -15.4034 H         1 RES1    0.0000
     24 C8        -2.3375   -6.8106  -13.5060 C.3       1 RES1    0.0000
     25 H11       -1.9192   -6.0887  -13.0117 H         1 RES1    0.0000
     26 H12       -3.2955   -6.6575  -13.5001 H         1 RES1    0.0000
     27 C9        -1.6324   -5.3939  -16.7355 C.3       1 RES1    0.0000
     28 C10       -2.2959   -6.0872  -17.9102 C.3       1 RES1    0.0000
     29 H13       -1.7838   -5.9282  -18.7073 H         1 RES1    0.0000
     30 H14       -3.1840   -5.7406  -18.0257 H         1 RES1    0.0000
     31 H15       -2.3405   -7.0312  -17.7413 H         1 RES1    0.0000
     32 C11       -1.4840   -3.9231  -16.9501 C.3       1 RES1    0.0000
     33 H16       -0.9957   -3.7670  -17.7610 H         1 RES1    0.0000
     34 H17       -1.0088   -3.5389  -16.2101 H         1 RES1    0.0000
     35 H18       -2.3528   -3.5209  -17.0169 H         1 RES1    0.0000
     36 C12        1.4186   -6.0784  -11.9209 C.3       1 RES1    0.0000
     37 H19        2.2306   -5.6325  -12.2425 H         1 RES1    0.0000
     38 C13        1.7892   -7.0988  -10.8730 C.2       1 RES1    0.0000
     39 H20        1.1034   -7.6106  -10.5092 H         1 RES1    0.0000
     40 C14        2.9895   -7.3164  -10.4412 C.2       1 RES1    0.0000
     41 H21        3.7023   -6.8241  -10.7811 H         1 RES1    0.0000
     42 H22        3.1402   -7.9647   -9.7919 H         1 RES1    0.0000
     43 C15        0.4959   -5.0563  -11.3090 C.ar      1 RES1    0.0000
     44 C16       -0.7097   -5.4134  -10.7739 C.ar      1 RES1    0.0000
     45 H23       -0.9957   -6.2959  -10.8491 H         1 RES1    0.0000
     46 C17       -1.5094   -4.5009  -10.1282 C.ar      1 RES1    0.0000
     47 H24       -2.3351   -4.7650   -9.7919 H         1 RES1    0.0000
     48 C18       -1.1026   -3.2237   -9.9815 C.ar      1 RES1    0.0000
     49 H25       -1.6316   -2.6159   -9.5164 H         1 RES1    0.0000
     50 C19        0.0754   -2.8275  -10.5146 C.ar      1 RES1    0.0000
     51 H26        0.3406   -1.9405  -10.4287 H         1 RES1    0.0000
     52 C20        0.9042   -3.7314  -11.1922 C.ar      1 RES1    0.0000
     53 H27        1.7123   -3.4503  -11.5574 H         1 RES1    0.0000
@<TRIPOS>BOND
     1    1    2 1
     2    2    8 1
     3    3    8 2
     4    4   20 1
     5    5   22 1
     6    6    7 1
     7    8    9 1
     8    9   10 1
     9   11    9 1
    10   12    9 1
    11   13    1 1
    12   14   13 1
    13   15   13 1
    14   16   15 1
    15   17   15 2
    16   18   17 1
    17   19   17 1
    18   20   13 1
    19   21   20 1
    20   22   20 1
    21   23   22 1
    22   24    6 1
    23   25   24 1
    24   26   24 1
    25   27    4 1
    26   28   27 1
    27   29   28 1
    28   30   28 1
    29   31   28 1
    30   32   27 1
    31   33   32 1
    32   34   32 1
    33   35   32 1
    34   36    1 1
    35   37   36 1
    36   38   36 1
    37   39   38 1
    38   40   38 2
    39   41   40 1
    40   42   40 1
    41   43   36 1
    42   44   43 ar
    43   45   44 1
    44   46   44 ar
    45   47   46 1
    46   48   46 ar
    47   49   48 1
    48   50   48 ar
    49   51   50 1
    50   52   43 ar
    51   53   52 1
    52    5   27 1
    53   22   24 1
    54   50   52 ar
@<TRIPOS>SUBSTRUCTURE
     1 RES1 1

@<TRIPOS>CRYSIN
   7.6890   15.0080   17.8880  90.0000  90.0000  90.0000  19 1

