# MOL2 file generated by ConQuest
# Please check atom types

@<TRIPOS>MOLECULE
FIFJUZ
    47    48     1
SMALL
NO_CHARGES
****
Generated from CSD

@<TRIPOS>ATOM
      1 O1         3.3521    6.0237    7.5193 O.3       1 RES1    0.0000
      2 O2         4.9981    5.7335    9.0132 O.3       1 RES1    0.0000
      3 O3         5.8164   10.8026    7.9644 O.2       1 RES1    0.0000
      4 O4         7.0977    9.9916    9.6177 O.3       1 RES1    0.0000
      5 N1         5.6095    5.8593    6.8215 N.2       1 RES1    0.0000
      6 N2         2.8089    9.3567    8.4978 N.1       1 RES1    0.0000
      7 N3         3.0111    6.6647    6.2652 N.2       1 RES1    0.0000
      8 N4         4.4305    6.5184   10.0752 N.2       1 RES1    0.0000
      9 N5         6.9219    6.7397    5.1071 N.3       1 RES1    0.0000
     10 N6         5.3175   10.0041    4.8644 N.1       1 RES1    0.0000
     11 N7         8.0409    6.9207    9.1429 N.1       1 RES1    0.0000
     12 C1         4.8385    7.9046    7.8409 C.3       1 RES1    0.0000
     13 C2         3.6989    8.7192    8.2014 C.1       1 RES1    0.0000
     14 C3         4.6908    6.3514    7.8041 C.3       1 RES1    0.0000
     15 C4         1.7548    6.6621    6.0823 C.2       1 RES1    0.0000
     16 C5         1.2917    7.3001    4.8143 C.3       1 RES1    0.0000
     17 C6         0.7464    6.0966    6.9992 C.3       1 RES1    0.0000
     18 C7         4.8070    6.0796   11.2097 C.2       1 RES1    0.0000
     19 C8         4.2830    6.8332   12.3851 C.3       1 RES1    0.0000
     20 C9         5.6980    4.9243   11.4403 C.3       1 RES1    0.0000
     21 C10        6.1074    6.8351    6.1450 C.2       1 RES1    0.0000
     22 C11        5.7216    8.2037    6.6643 C.3       1 RES1    0.0000
     23 C12        5.4909    9.2596    5.7079 C.1       1 RES1    0.0000
     24 C13        6.2465    8.4567    8.0950 C.3       1 RES1    0.0000
     25 C14        6.3529    9.9083    8.5368 C.2       1 RES1    0.0000
     26 C15        7.3484   11.3386   10.1735 C.3       1 RES1    0.0000
     27 C16        8.6174   11.8523    9.6253 C.3       1 RES1    0.0000
     28 C17        7.2547    7.5810    8.6566 C.1       1 RES1    0.0000
     29 H1         0.7956    6.6738    4.2628 H         1 RES1    0.0000
     30 H2         0.6944    8.0507    4.9982 H         1 RES1    0.0000
     31 H3         2.0481    7.6463    4.3085 H         1 RES1    0.0000
     32 H4        -0.0547    5.9968    6.7006 H         1 RES1    0.0000
     33 H5         0.7747    6.7581    7.7023 H         1 RES1    0.0000
     34 H6         1.0707    5.3319    7.5619 H         1 RES1    0.0000
     35 H7         5.0187    7.2694   12.8186 H         1 RES1    0.0000
     36 H8         3.7245    6.2704   12.9389 H         1 RES1    0.0000
     37 H9         3.7887    7.6271   12.0988 H         1 RES1    0.0000
     38 H10        6.3599    4.8360   10.7763 H         1 RES1    0.0000
     39 H11        5.2158    4.1666   11.3690 H         1 RES1    0.0000
     40 H12        6.1712    4.9384   12.1567 H         1 RES1    0.0000
     41 H13        7.1347    5.9698    4.8043 H         1 RES1    0.0000
     42 H14        7.2476    7.4321    4.7419 H         1 RES1    0.0000
     43 H15        6.5900   11.9966    9.8136 H         1 RES1    0.0000
     44 H16        7.4168   11.1671   11.1986 H         1 RES1    0.0000
     45 H17        8.5082   12.0564    8.6449 H         1 RES1    0.0000
     46 H18        8.8034   12.8015   10.0532 H         1 RES1    0.0000
     47 H19        9.4875   11.2163    9.7356 H         1 RES1    0.0000
@<TRIPOS>BOND
     1    1    7 1
     2    2    8 1
     3    3   25 2
     4    4   25 1
     5    5   14 1
     6    6   13 3
     7    7   15 2
     8    8   18 2
     9    9   21 1
    10   10   23 3
    11   11   28 3
    12   12   13 1
    13   14    1 1
    14   15   16 1
    15   16   29 1
    16   17   15 1
    17   18   19 1
    18   19   35 1
    19   20   18 1
    20   21    5 2
    21   22   12 1
    22   23   22 1
    23   24   12 1
    24   25   24 1
    25   26    4 1
    26   27   26 1
    27   28   24 1
    28   30   16 1
    29   31   16 1
    30   32   17 1
    31   33   17 1
    32   34   17 1
    33   36   19 1
    34   37   19 1
    35   38   20 1
    36   39   20 1
    37   40   20 1
    38   41    9 1
    39   42    9 1
    40   43   26 1
    41   44   26 1
    42   45   27 1
    43   46   27 1
    44   47   27 1
    45    2   14 1
    46   12   14 1
    47   21   22 1
    48   22   24 1
@<TRIPOS>SUBSTRUCTURE
     1 RES1 1

@<TRIPOS>CRYSIN
   9.6680    9.8250   11.5760  88.8200  74.2600  86.8600   2 1

