# MOL2 file generated by ConQuest
# Please check atom types

@<TRIPOS>MOLECULE
FIFLIP
    36    40     1
SMALL
NO_CHARGES
****
Generated from CSD

@<TRIPOS>ATOM
      1 C1         0.9285    3.0628    2.6766 C.ar      1 RES1    0.0000
      2 C2         2.2103    3.5131    3.0082 C.ar      1 RES1    0.0000
      3 C3         3.2831    2.7095    2.8260 C.ar      1 RES1    0.0000
      4 C4         4.1933    0.4606    2.3051 C.ar      1 RES1    0.0000
      5 C5         4.0029   -0.8448    2.0353 C.ar      1 RES1    0.0000
      6 C6         2.7070   -1.3397    1.8788 C.ar      1 RES1    0.0000
      7 C7         0.2623   -1.0387    1.8439 C.2       1 RES1    0.0000
      8 C8        -2.1539   -0.5875    1.6318 C.ar      1 RES1    0.0000
      9 C9        -3.1996    0.2453    1.4895 C.ar      1 RES1    0.0000
     10 C10       -3.0531    1.6519    1.3365 C.ar      1 RES1    0.0000
     11 C11       -1.7262    2.1708    1.4190 C.ar      1 RES1    0.0000
     12 C12       -0.6349    1.3054    1.7962 C.ar      1 RES1    0.0000
     13 C13        0.6964    1.7986    2.1770 C.ar      1 RES1    0.0000
     14 C14        1.8029    0.8937    2.1442 C.ar      1 RES1    0.0000
     15 C15        3.1172    1.3689    2.4075 C.ar      1 RES1    0.0000
     16 C16        1.6195   -0.4932    1.9265 C.ar      1 RES1    0.0000
     17 C17       -0.8516   -0.0669    1.7756 C.ar      1 RES1    0.0000
     18 C18       -4.1006    2.5268    0.9636 C.ar      1 RES1    0.0000
     19 C19       -3.8444    3.8168    0.6191 C.ar      1 RES1    0.0000
     20 C20       -2.5472    4.3005    0.5921 C.ar      1 RES1    0.0000
     21 C21       -1.5132    3.5046    0.9963 C.ar      1 RES1    0.0000
     22 N1        -4.5217   -0.4023    1.4233 N.pl3     1 RES1    0.0000
     23 O1         0.0438   -2.2395    1.8019 O.2       1 RES1    0.0000
     24 O2        -4.5819   -1.5421    0.9835 O.2       1 RES1    0.0000
     25 O3        -5.5065    0.2144    1.8211 O.2       1 RES1    0.0000
     26 H1         0.1610    3.6795    2.8111 H         1 RES1    0.0000
     27 H2         2.3010    4.4600    3.3946 H         1 RES1    0.0000
     28 H3         4.1756    3.0020    2.9961 H         1 RES1    0.0000
     29 H4         5.0408    0.8405    2.4623 H         1 RES1    0.0000
     30 H5         4.7797   -1.4752    1.9713 H         1 RES1    0.0000
     31 H6         2.5219   -2.2986    1.7436 H         1 RES1    0.0000
     32 H7        -2.2542   -1.5439    1.6653 H         1 RES1    0.0000
     33 H8        -5.0523    2.1528    0.9394 H         1 RES1    0.0000
     34 H9        -4.5997    4.3828    0.3487 H         1 RES1    0.0000
     35 H10       -2.3282    5.2320    0.2989 H         1 RES1    0.0000
     36 H11       -0.6170    3.8511    0.9465 H         1 RES1    0.0000
@<TRIPOS>BOND
     1    1    2 ar
     2    2    3 ar
     3    3   15 ar
     4    4    5 ar
     5    5    6 ar
     6    6   16 ar
     7    7   16 1
     8    8    9 ar
     9    9   10 ar
    10   10   11 ar
    11   11   12 ar
    12   12   13 1
    13   13    1 ar
    14   14   13 ar
    15   15    4 ar
    16   16   14 ar
    17   17    7 1
    18   18   10 ar
    19   19   18 ar
    20   20   19 ar
    21   21   11 ar
    22   22    9 1
    23   23    7 2
    24   24   22 2
    25   25   22 2
    26   26    1 1
    27   27    2 1
    28   28    3 1
    29   29    4 1
    30   30    5 1
    31   31    6 1
    32   32    8 1
    33   33   18 1
    34   34   19 1
    35   35   20 1
    36   36   21 1
    37    8   17 ar
    38   12   17 ar
    39   14   15 ar
    40   20   21 ar
@<TRIPOS>SUBSTRUCTURE
     1 RES1 1

@<TRIPOS>CRYSIN
  23.3490    8.5770    7.1800  90.0000  97.6200  90.0000  14 2

