# MOL2 file generated by ConQuest
# Please check atom types

@<TRIPOS>MOLECULE
FIFSOF
    56    59     1
SMALL
NO_CHARGES
****
Generated from CSD

@<TRIPOS>ATOM
      1 O1         2.0962   11.7322    0.0251 O.3       1 RES1    0.0000
      2 H1         2.8611   11.7477   -0.2696 H         1 RES1    0.0000
      3 O2         0.4733    9.8172    0.8390 O.3       1 RES1    0.0000
      4 H2         0.9287   10.2245    0.2920 H         1 RES1    0.0000
      5 O3         6.4190    7.5074    3.5550 O.2       1 RES1    0.0000
      6 O4         5.5317    7.4713    5.4717 O.2       1 RES1    0.0000
      7 N1         5.5021    7.7239    4.2874 N.pl3     1 RES1    0.0000
      8 C1         2.0615   12.3922    1.3137 C.3       1 RES1    0.0000
      9 H3         2.9448   12.3764    1.7375 H         1 RES1    0.0000
     10 C2         1.5772   13.7979    1.1434 C.2       1 RES1    0.0000
     11 C3         0.2963   13.9335    1.5253 C.2       1 RES1    0.0000
     12 C4        -0.2802   12.5976    1.9889 C.3       1 RES1    0.0000
     13 H4        -0.7631   12.1964    1.2362 H         1 RES1    0.0000
     14 C5         1.0049   11.7703    2.2322 C.3       1 RES1    0.0000
     15 H5         1.2886   11.9690    3.1490 H         1 RES1    0.0000
     16 C6         2.4704   14.7968    0.4704 C.3       1 RES1    0.0000
     17 H6         3.1284   15.1107    1.0945 H         1 RES1    0.0000
     18 H7         1.9449   15.5384    0.1595 H         1 RES1    0.0000
     19 H8         2.9095   14.3819   -0.2761 H         1 RES1    0.0000
     20 C7        -0.5114   15.1662    1.4338 C.ar      1 RES1    0.0000
     21 C8         0.0008   16.3832    1.8504 C.ar      1 RES1    0.0000
     22 H9         0.8415   16.4205    2.2460 H         1 RES1    0.0000
     23 C9        -0.7408   17.5567    1.6788 C.ar      1 RES1    0.0000
     24 H10       -0.3917   18.3726    1.9575 H         1 RES1    0.0000
     25 C10       -1.9887   17.5047    1.0958 C.ar      1 RES1    0.0000
     26 H11       -2.4685   18.2891    0.9596 H         1 RES1    0.0000
     27 C11       -2.5170   16.3225    0.7213 C.ar      1 RES1    0.0000
     28 H12       -3.3682   16.2950    0.3465 H         1 RES1    0.0000
     29 C12       -1.7957   15.1418    0.8910 C.ar      1 RES1    0.0000
     30 H13       -2.1750   14.3306    0.6403 H         1 RES1    0.0000
     31 C13       -1.1937   12.5901    3.1890 C.ar      1 RES1    0.0000
     32 C14       -2.4289   11.9648    3.1257 C.ar      1 RES1    0.0000
     33 H14       -2.7273   11.6242    2.3133 H         1 RES1    0.0000
     34 C15       -3.2230   11.8392    4.2444 C.ar      1 RES1    0.0000
     35 H15       -4.0474   11.4152    4.1713 H         1 RES1    0.0000
     36 C16       -2.8209   12.3285    5.4736 C.ar      1 RES1    0.0000
     37 C17       -1.6043   12.9867    5.5328 C.ar      1 RES1    0.0000
     38 H16       -1.3171   13.3432    6.3426 H         1 RES1    0.0000
     39 C18       -0.8094   13.1267    4.4080 C.ar      1 RES1    0.0000
     40 H17       -0.0037   13.5876    4.4714 H         1 RES1    0.0000
     41 C19       -3.6921   12.1279    6.6967 C.3       1 RES1    0.0000
     42 H18       -4.5964   11.9599    6.4219 H         1 RES1    0.0000
     43 H19       -3.6649   12.9175    7.2422 H         1 RES1    0.0000
     44 H20       -3.3672   11.3788    7.2022 H         1 RES1    0.0000
     45 C20        0.8136   10.2534    2.1636 C.3       1 RES1    0.0000
     46 H21        0.0585   10.0286    2.7468 H         1 RES1    0.0000
     47 C21        2.0310    9.5312    2.7049 C.ar      1 RES1    0.0000
     48 C22        2.1174    9.2626    4.0697 C.ar      1 RES1    0.0000
     49 H22        1.4111    9.4893    4.6303 H         1 RES1    0.0000
     50 C23        3.2459    8.6621    4.5967 C.ar      1 RES1    0.0000
     51 H23        3.2998    8.4732    5.5057 H         1 RES1    0.0000
     52 C24        4.2864    8.3489    3.7542 C.ar      1 RES1    0.0000
     53 C25        4.2373    8.6160    2.4204 C.ar      1 RES1    0.0000
     54 H24        4.9572    8.4101    1.8681 H         1 RES1    0.0000
     55 C26        3.1003    9.1962    1.9051 C.ar      1 RES1    0.0000
     56 H25        3.0529    9.3679    0.9922 H         1 RES1    0.0000
@<TRIPOS>BOND
     1    1    2 1
     2    3    4 1
     3    5    7 2
     4    6    7 2
     5    7   52 1
     6    8    1 1
     7    9    8 1
     8   10    8 1
     9   11   10 2
    10   12   11 1
    11   13   12 1
    12   14    8 1
    13   15   14 1
    14   16   10 1
    15   17   16 1
    16   18   16 1
    17   19   16 1
    18   20   11 1
    19   21   20 ar
    20   22   21 1
    21   23   21 ar
    22   24   23 1
    23   25   23 ar
    24   26   25 1
    25   27   25 ar
    26   28   27 1
    27   29   20 ar
    28   30   29 1
    29   31   12 1
    30   32   31 ar
    31   33   32 1
    32   34   32 ar
    33   35   34 1
    34   36   34 ar
    35   37   36 ar
    36   38   37 1
    37   39   31 ar
    38   40   39 1
    39   41   36 1
    40   42   41 1
    41   43   41 1
    42   44   41 1
    43   45    3 1
    44   46   45 1
    45   47   45 1
    46   48   47 ar
    47   49   48 1
    48   50   48 ar
    49   51   50 1
    50   52   50 ar
    51   53   52 ar
    52   54   53 1
    53   55   47 ar
    54   56   55 1
    55   12   14 1
    56   14   45 1
    57   27   29 ar
    58   37   39 ar
    59   53   55 ar
@<TRIPOS>SUBSTRUCTURE
     1 RES1 1

@<TRIPOS>CRYSIN
   8.4661   14.4345   18.4482  90.0000  90.0000  90.0000  19 1

