# MOL2 file generated by ConQuest
# Please check atom types

@<TRIPOS>MOLECULE
FIGZUQ
    33    35     1
SMALL
NO_CHARGES
****
Generated from CSD

@<TRIPOS>ATOM
      1 O1         3.7867    3.7781    1.4866 O.2       1 RES1    0.0000
      2 O2         6.4079    0.2754    2.5900 O.2       1 RES1    0.0000
      3 O3         2.1247   -0.3426    0.7334 O.2       1 RES1    0.0000
      4 O4         5.1713    3.4884    8.9510 O.2       1 RES1    0.0000
      5 O5         4.2118    5.2910    8.2791 O.2       1 RES1    0.0000
      6 O6         1.7452    1.5417   -5.8537 O.2       1 RES1    0.0000
      7 O7         2.9855    3.2274   -5.6768 O.2       1 RES1    0.0000
      8 N1         5.0671    2.0315    2.1045 N.am      1 RES1    0.0000
      9 N2         2.9551    1.7178    1.0930 N.am      1 RES1    0.0000
     10 N3         4.8407    4.2568    8.0917 N.pl3     1 RES1    0.0000
     11 N4         2.2987    2.3901   -5.1582 N.pl3     1 RES1    0.0000
     12 C1         3.9358    2.5951    1.5652 C.2       1 RES1    0.0000
     13 C2         5.3729    0.6884    2.1509 C.2       1 RES1    0.0000
     14 C3         4.3130   -0.2946    1.6030 C.3       1 RES1    0.0000
     15 C4         3.0340    0.3410    1.1488 C.2       1 RES1    0.0000
     16 C5         6.0747    2.9569    2.6808 C.3       1 RES1    0.0000
     17 C6         5.7479    3.3171    4.1012 C.ar      1 RES1    0.0000
     18 C7         5.9498    2.3757    5.1005 C.ar      1 RES1    0.0000
     19 C8         5.6609    2.6879    6.3922 C.ar      1 RES1    0.0000
     20 C9         5.1408    3.9430    6.6628 C.ar      1 RES1    0.0000
     21 C10        4.9344    4.8843    5.7080 C.ar      1 RES1    0.0000
     22 C11        5.2350    4.5594    4.4381 C.ar      1 RES1    0.0000
     23 C12        1.7462    2.3165    0.4883 C.3       1 RES1    0.0000
     24 C13        1.8047    2.3469   -0.9955 C.ar      1 RES1    0.0000
     25 C14        1.1876    1.4328   -1.7733 C.ar      1 RES1    0.0000
     26 C15        1.3020    1.4312   -3.1720 C.ar      1 RES1    0.0000
     27 C16        2.1240    2.3709   -3.7255 C.ar      1 RES1    0.0000
     28 C17        2.7358    3.3315   -2.9950 C.ar      1 RES1    0.0000
     29 C18        2.6143    3.3267   -1.6200 C.ar      1 RES1    0.0000
     30 C19        4.0310   -1.2935    2.7461 C.3       1 RES1    0.0000
     31 C20        3.4561   -0.6740    3.9318 C.3       1 RES1    0.0000
     32 C21        4.9559   -1.0358    0.4022 C.3       1 RES1    0.0000
     33 C22        5.2238   -0.1585   -0.7987 C.3       1 RES1    0.0000
@<TRIPOS>BOND
     1    1   12 2
     2    2   13 2
     3    3   15 2
     4    4   10 2
     5    5   10 2
     6    6   11 2
     7    7   11 2
     8    8   12 1
     9    9   12 1
    10   10   20 1
    11   11   27 1
    12   13    8 1
    13   14   13 1
    14   15    9 1
    15   16    8 1
    16   17   16 1
    17   18   17 ar
    18   19   18 ar
    19   20   19 ar
    20   21   20 ar
    21   22   17 ar
    22   23    9 1
    23   24   23 1
    24   25   24 ar
    25   26   25 ar
    26   27   26 ar
    27   28   27 ar
    28   29   24 ar
    29   30   14 1
    30   31   30 1
    31   32   14 1
    32   33   32 1
    33   14   15 1
    34   21   22 ar
    35   28   29 ar
@<TRIPOS>SUBSTRUCTURE
     1 RES1 1

@<TRIPOS>CRYSIN
  14.6500   16.0090    9.5490  90.0000  97.7000  90.0000 231 1

