# MOL2 file generated by ConQuest
# Please check atom types

@<TRIPOS>MOLECULE
FIHLIS
    20    20     1
SMALL
NO_CHARGES
****
Generated from CSD

@<TRIPOS>ATOM
      1 C1        -6.0337    8.0100    1.6005 C.ar      1 RES1    0.0000
      2 C2        -5.3320    6.8032    1.5992 C.ar      1 RES1    0.0000
      3 H1        -5.7120    6.0271    1.5818 H         1 RES1    0.0000
      4 C3        -3.9492    6.8401    1.6689 C.ar      1 RES1    0.0000
      5 C4        -5.3090    9.1955    1.6689 C.ar      1 RES1    0.0000
      6 H2        -5.7695    9.9930    1.6689 H         1 RES1    0.0000
      7 C5        -7.5389    8.0186    1.5249 C.3       1 RES1    0.0000
      8 H3        -7.9090    8.2147    2.4107 H         1 RES1    0.0000
      9 H4        -7.8556    7.1415    1.2254 H         1 RES1    0.0000
     10 H5        -7.8298    8.7058    0.8900 H         1 RES1    0.0000
     11 N1        -3.2118    5.5629    1.6689 N.pl3     1 RES1    0.0000
     12 O1        -3.8401    4.5333    1.4739 O.2       1 RES1    0.0000
     13 C1D       -3.9200    9.2304    1.7366 C.ar      1 RES1    0.0000
     14 C2D       -3.2257    8.0193    1.7379 C.ar      1 RES1    0.0000
     15 H1D       -2.3636    7.9603    1.7553 H         1 RES1    0.0000
     16 C5D       -3.1748   10.5381    1.8122 C.3       1 RES1    0.0000
     17 H3D       -3.1597   10.9567    0.9264 H         1 RES1    0.0000
     18 H4D       -2.2569   10.3739    2.1117 H         1 RES1    0.0000
     19 H5D       -3.6246   11.1337    2.4471 H         1 RES1    0.0000
     20 O1D       -2.0059    5.5923    1.8631 O.2       1 RES1    0.0000
@<TRIPOS>BOND
     1    1    2 ar
     2    2    3 1
     3    4    2 ar
     4    5    1 ar
     5    6    5 1
     6    7    1 1
     7    8    7 1
     8    9    7 1
     9   10    7 1
    10   11    4 1
    11   12   11 2
    12   13    5 ar
    13   14    4 ar
    14   15   14 1
    15   16   13 1
    16   17   16 1
    17   18   16 1
    18   19   16 1
    19   20   11 2
    20   13   14 ar
@<TRIPOS>SUBSTRUCTURE
     1 RES1 1

@<TRIPOS>CRYSIN
   8.2069    8.2069   10.0112  90.0000  90.0000 120.0000 152 1

