# MOL2 file generated by ConQuest
# Please check atom types

@<TRIPOS>MOLECULE
FIHMOZ
    22    22     1
SMALL
NO_CHARGES
****
Generated from CSD

@<TRIPOS>ATOM
      1 O1        -3.8578    7.3866    3.6658 O.2       1 RES1    0.0000
      2 O2        -2.6523    8.7983    4.9280 O.3       1 RES1    0.0000
      3 O3        -1.2355    4.9088    0.1395 O.2       1 RES1    0.0000
      4 O4         0.4725    6.0111   -0.5969 O.2       1 RES1    0.0000
      5 O5         2.5756    5.6468    1.3608 O.2       1 RES1    0.0000
      6 O6         2.7107    7.7419    0.8161 O.2       1 RES1    0.0000
      7 N1        -0.3649    5.7513    0.2575 N.pl3     1 RES1    0.0000
      8 N2         2.1446    6.7868    1.3262 N.pl3     1 RES1    0.0000
      9 C1        -1.5091    7.5810    3.2995 C.ar      1 RES1    0.0000
     10 C2        -1.5261    6.7890    2.1549 C.ar      1 RES1    0.0000
     11 H1        -2.3287    6.4408    1.8025 H         1 RES1    0.0000
     12 C3        -0.3379    6.5308    1.5036 C.ar      1 RES1    0.0000
     13 C4         0.8587    7.0504    1.9880 C.ar      1 RES1    0.0000
     14 C5         0.8827    7.8082    3.1400 C.ar      1 RES1    0.0000
     15 H2         1.7065    8.1152    3.4641 H         1 RES1    0.0000
     16 C6        -0.3045    8.0691    3.7965 C.ar      1 RES1    0.0000
     17 H3        -0.3041    8.5967    4.6139 H         1 RES1    0.0000
     18 C7        -2.8098    7.8881    3.9723 C.2       1 RES1    0.0000
     19 C8        -3.8182    9.0668    5.7488 C.3       1 RES1    0.0000
     20 H4        -4.5978    9.3831    5.2593 H         1 RES1    0.0000
     21 H5        -4.0756    8.2488    6.2310 H         1 RES1    0.0000
     22 H6        -3.6012    9.7833    6.3423 H         1 RES1    0.0000
@<TRIPOS>BOND
     1    1   18 2
     2    2   18 1
     3    3    7 2
     4    4    7 2
     5    5    8 2
     6    6    8 2
     7    7   12 1
     8    8   13 1
     9    9   10 ar
    10   10   11 1
    11   12   10 ar
    12   13   12 ar
    13   14   13 ar
    14   15   14 1
    15   16    9 ar
    16   17   16 1
    17   18    9 1
    18   19    2 1
    19   20   19 1
    20   21   19 1
    21   22   19 1
    22   14   16 ar
@<TRIPOS>SUBSTRUCTURE
     1 RES1 1

@<TRIPOS>CRYSIN
   7.8023    7.9080    8.3277  63.0150  87.6660  88.1420   2 1

