# MOL2 file generated by ConQuest
# Please check atom types

@<TRIPOS>MOLECULE
FIHMAL
    20    20     1
SMALL
NO_CHARGES
****
Generated from CSD

@<TRIPOS>ATOM
      1 O1        -1.4140   -1.4362    9.6993 O.2       1 RES1    0.0000
      2 O2        -1.2974   -3.5076    9.0753 O.2       1 RES1    0.0000
      3 O3         0.6440   -3.0679   11.2308 O.2       1 RES1    0.0000
      4 O4         2.4245   -4.1914   10.7325 O.2       1 RES1    0.0000
      5 O5        -0.6201   -1.0515    6.9017 O.3       1 RES1    0.0000
      6 N1        -0.8369   -2.3812    9.1857 N.pl3     1 RES1    0.0000
      7 N2         1.5674   -3.3623   10.4790 N.pl3     1 RES1    0.0000
      8 C1         0.5604   -1.4647    7.4044 C.ar      1 RES1    0.0000
      9 C2         0.4978   -2.1463    8.6192 C.ar      1 RES1    0.0000
     10 C3         1.6467   -2.6537    9.1995 C.ar      1 RES1    0.0000
     11 C4         2.8764   -2.4771    8.6134 C.ar      1 RES1    0.0000
     12 H1         3.6097   -2.8102    9.0080 H         1 RES1    0.0000
     13 C5         2.9415   -1.7910    7.4217 C.ar      1 RES1    0.0000
     14 H2         3.7676   -1.6797    7.0350 H         1 RES1    0.0000
     15 C6         1.8131   -1.2930    6.8140 C.ar      1 RES1    0.0000
     16 H3         1.8689   -0.8086    5.9621 H         1 RES1    0.0000
     17 C7        -0.6290   -0.5547    5.5459 C.3       1 RES1    0.0000
     18 H4        -1.5328   -0.3668    5.3645 H         1 RES1    0.0000
     19 H5        -0.1152    0.2841    5.4653 H         1 RES1    0.0000
     20 H6        -0.2652   -1.2340    4.9180 H         1 RES1    0.0000
@<TRIPOS>BOND
     1    1    6 2
     2    2    6 2
     3    3    7 2
     4    4    7 2
     5    5    8 1
     6    6    9 1
     7    7   10 1
     8    8    9 ar
     9    9   10 ar
    10   10   11 ar
    11   11   12 1
    12   13   11 ar
    13   14   13 1
    14   15    8 ar
    15   16   15 1
    16   17    5 1
    17   18   17 1
    18   19   17 1
    19   20   17 1
    20   13   15 ar
@<TRIPOS>SUBSTRUCTURE
     1 RES1 1

@<TRIPOS>CRYSIN
   7.4114    7.8862    8.1835 114.5430 101.6040  94.0080   2 1

