# MOL2 file generated by ConQuest
# Please check atom types

@<TRIPOS>MOLECULE
FIHWAX
    51    54     1
SMALL
NO_CHARGES
****
Generated from CSD

@<TRIPOS>ATOM
      1 O1         1.7621    7.9653    7.7435 O.2       1 RES1    0.0000
      2 O2        -1.7521    4.7909   14.1789 O.3       1 RES1    0.0000
      3 H1        -1.8967    4.8293   14.9852 H         1 RES1    0.0000
      4 N1         0.6437    3.3478    8.8016 N.ar      1 RES1    0.0000
      5 N2         0.9376    5.9283    8.3204 N.am      1 RES1    0.0000
      6 H2         0.3966    5.5519    8.8724 H         1 RES1    0.0000
      7 N3        -0.4981    5.3838   13.8957 N.2       1 RES1    0.0000
      8 C1         0.4646    2.0669    9.0577 C.ar      1 RES1    0.0000
      9 H3        -0.0741    1.8347    9.7799 H         1 RES1    0.0000
     10 C2         1.0389    1.0381    8.3080 C.ar      1 RES1    0.0000
     11 H4         0.8972    0.1491    8.5412 H         1 RES1    0.0000
     12 C3         1.7964    1.3466    7.2466 C.ar      1 RES1    0.0000
     13 H5         2.1753    0.6690    6.7346 H         1 RES1    0.0000
     14 C4         2.0199    2.6946    6.9019 C.ar      1 RES1    0.0000
     15 C5         1.4256    3.6670    7.7289 C.ar      1 RES1    0.0000
     16 C6         1.6139    5.0498    7.4442 C.ar      1 RES1    0.0000
     17 C7         2.3699    5.4200    6.3776 C.ar      1 RES1    0.0000
     18 H6         2.4962    6.3212    6.1860 H         1 RES1    0.0000
     19 C8         2.9642    4.4275    5.5600 C.ar      1 RES1    0.0000
     20 H7         3.4827    4.6891    4.8331 H         1 RES1    0.0000
     21 C9         2.7976    3.1144    5.8075 C.ar      1 RES1    0.0000
     22 H8         3.1972    2.4832    5.2530 H         1 RES1    0.0000
     23 C10        1.0154    7.2723    8.4191 C.2       1 RES1    0.0000
     24 C11        0.0661    7.8839    9.4229 C.ar      1 RES1    0.0000
     25 C12       -0.9752    8.6900    8.9291 C.ar      1 RES1    0.0000
     26 C13       -1.8601    9.2560    9.8240 C.ar      1 RES1    0.0000
     27 H9        -2.5678    9.7673    9.5040 H         1 RES1    0.0000
     28 C14       -1.7177    9.0789   11.1842 C.ar      1 RES1    0.0000
     29 H10       -2.3133    9.4855   11.7710 H         1 RES1    0.0000
     30 C15       -0.6940    8.2997   11.6698 C.ar      1 RES1    0.0000
     31 H11       -0.6060    8.1809   12.5880 H         1 RES1    0.0000
     32 C16        0.2168    7.6854   10.8059 C.ar      1 RES1    0.0000
     33 C17        1.3561    6.9182   11.4013 C.ar      1 RES1    0.0000
     34 C18        1.1435    5.8988   12.3300 C.ar      1 RES1    0.0000
     35 C19        2.2359    5.3261   12.9721 C.ar      1 RES1    0.0000
     36 H12        2.0956    4.6389   13.5827 H         1 RES1    0.0000
     37 C20        3.5184    5.7540   12.7241 C.ar      1 RES1    0.0000
     38 H13        4.2353    5.3718   13.1772 H         1 RES1    0.0000
     39 C21        3.7343    6.7559   11.7983 C.ar      1 RES1    0.0000
     40 H14        4.6003    7.0416   11.6146 H         1 RES1    0.0000
     41 C22        2.6587    7.3326   11.1439 C.ar      1 RES1    0.0000
     42 H15        2.8098    8.0073   10.5224 H         1 RES1    0.0000
     43 C23       -1.1627    8.9515    7.4541 C.3       1 RES1    0.0000
     44 H16       -0.6266    9.7032    7.1918 H         1 RES1    0.0000
     45 H17       -2.0869    9.1395    7.2776 H         1 RES1    0.0000
     46 H18       -0.8927    8.1765    6.9551 H         1 RES1    0.0000
     47 C24       -0.2227    5.3637   12.6478 C.2       1 RES1    0.0000
     48 C25       -1.0949    4.8070   11.5872 C.3       1 RES1    0.0000
     49 H19       -1.8855    4.4351   11.9854 H         1 RES1    0.0000
     50 H20       -0.6221    4.1190   11.1127 H         1 RES1    0.0000
     51 H21       -1.3422    5.5049   10.9764 H         1 RES1    0.0000
@<TRIPOS>BOND
     1    1   23 2
     2    2    3 1
     3    4    8 ar
     4    5    6 1
     5    7    2 1
     6    8    9 1
     7   10    8 ar
     8   11   10 1
     9   12   10 ar
    10   13   12 1
    11   14   12 ar
    12   15    4 ar
    13   16    5 1
    14   17   16 ar
    15   18   17 1
    16   19   17 ar
    17   20   19 1
    18   21   14 ar
    19   22   21 1
    20   23    5 1
    21   24   23 1
    22   25   24 ar
    23   26   25 ar
    24   27   26 1
    25   28   26 ar
    26   29   28 1
    27   30   28 ar
    28   31   30 1
    29   32   24 ar
    30   33   32 1
    31   34   33 ar
    32   35   34 ar
    33   36   35 1
    34   37   35 ar
    35   38   37 1
    36   39   37 ar
    37   40   39 1
    38   41   33 ar
    39   42   41 1
    40   43   25 1
    41   44   43 1
    42   45   43 1
    43   46   43 1
    44   47    7 2
    45   48   47 1
    46   49   48 1
    47   50   48 1
    48   51   48 1
    49   14   15 ar
    50   15   16 ar
    51   19   21 ar
    52   30   32 ar
    53   34   47 1
    54   39   41 ar
@<TRIPOS>SUBSTRUCTURE
     1 RES1 1

@<TRIPOS>CRYSIN
   8.3711   13.4125   18.3318  90.0000  90.0000  90.0000  33 1

