# MOL2 file generated by ConQuest
# Please check atom types

@<TRIPOS>MOLECULE
FIJFEJ
    47    48     1
SMALL
NO_CHARGES
****
Generated from CSD

@<TRIPOS>ATOM
      1 N1         5.2462    2.7533    3.2728 N.3       1 RES1    0.0000
      2 C1         4.3865    3.0444    4.3064 C.2       1 RES1    0.0000
      3 C2         4.8340    2.9047    5.5880 C.2       1 RES1    0.0000
      4 C3         6.3158    2.6806    5.8215 C.3       1 RES1    0.0000
      5 C4         6.9219    1.8860    4.6854 C.2       1 RES1    0.0000
      6 C5         6.4221    2.0315    3.4317 C.2       1 RES1    0.0000
      7 C6         8.4501    5.9112    5.3446 C.ar      1 RES1    0.0000
      8 C7         8.4787    6.5253    6.6020 C.ar      1 RES1    0.0000
      9 C8         8.9895    7.8060    6.7889 C.ar      1 RES1    0.0000
     10 C9         9.5349    8.4987    5.7281 C.ar      1 RES1    0.0000
     11 C10        9.5425    7.9311    4.4842 C.ar      1 RES1    0.0000
     12 C11        9.0106    6.6534    4.2936 C.ar      1 RES1    0.0000
     13 C12        6.9691    4.0398    5.9903 C.2       1 RES1    0.0000
     14 C13        7.8820    4.5578    5.1970 C.2       1 RES1    0.0000
     15 C14        3.0328    3.5072    3.8499 C.3       1 RES1    0.0000
     16 C15        4.0274    3.0793    6.7911 C.2       1 RES1    0.0000
     17 C16        1.9151    3.4431    7.7683 C.3       1 RES1    0.0000
     18 C17        8.1239    1.0798    4.9340 C.2       1 RES1    0.0000
     19 C18        9.5214    0.1601    6.5998 C.3       1 RES1    0.0000
     20 C19        6.9834    1.4902    2.1532 C.3       1 RES1    0.0000
     21 N2         9.1033    6.0917    2.9232 N.pl3     1 RES1    0.0000
     22 O1         8.4349    5.2185    2.5616 O.2       1 RES1    0.0000
     23 O2        10.0887    6.4293    2.2353 O.2       1 RES1    0.0000
     24 O3         4.5095    3.0910    7.9077 O.2       1 RES1    0.0000
     25 O4         2.7175    3.2219    6.5900 O.3       1 RES1    0.0000
     26 O5         8.8412    0.5821    4.1075 O.2       1 RES1    0.0000
     27 O6         8.3599    0.9517    6.2510 O.3       1 RES1    0.0000
     28 H1         5.0068    2.7941    2.5540 H         1 RES1    0.0000
     29 H2         6.4229    2.0665    6.4642 H         1 RES1    0.0000
     30 H3         8.1677    6.1412    7.2326 H         1 RES1    0.0000
     31 H4         9.2045    8.3240    7.6696 H         1 RES1    0.0000
     32 H5         9.7439    9.3718    5.9217 H         1 RES1    0.0000
     33 H6         9.8114    8.3240    3.6239 H         1 RES1    0.0000
     34 H7         6.8022    4.4240    6.9388 H         1 RES1    0.0000
     35 H8         8.1424    3.9583    4.4375 H         1 RES1    0.0000
     36 H9         2.6467    2.9978    3.7519 H         1 RES1    0.0000
     37 H10        2.6383    4.1620    4.5053 H         1 RES1    0.0000
     38 H11        3.1356    3.9874    3.0739 H         1 RES1    0.0000
     39 H12        2.1747    4.3949    8.1970 H         1 RES1    0.0000
     40 H13        0.8682    3.4635    7.4888 H         1 RES1    0.0000
     41 H14        2.0567    2.7359    8.4230 H         1 RES1    0.0000
     42 H15       10.4098    0.6694    6.2758 H         1 RES1    0.0000
     43 H16        9.5163    0.0873    7.7148 H         1 RES1    0.0000
     44 H17        9.4826   -0.7858    6.1477 H         1 RES1    0.0000
     45 H18        7.7294    2.1538    1.7554 H         1 RES1    0.0000
     46 H19        7.4428    0.5239    2.3280 H         1 RES1    0.0000
     47 H20        6.2290    1.3970    1.5219 H         1 RES1    0.0000
@<TRIPOS>BOND
     1    1    2 1
     2    2    3 2
     3    3    4 1
     4    4    5 1
     5    5    6 2
     6    6    1 1
     7    7    8 ar
     8    8    9 ar
     9    9   10 ar
    10   10   11 ar
    11   11   12 ar
    12   12    7 ar
    13   13    4 1
    14   14    7 1
    15   15    2 1
    16   16    3 1
    17   17   25 1
    18   18    5 1
    19   19   27 1
    20   20    6 1
    21   21   12 1
    22   22   21 2
    23   23   21 2
    24   24   16 2
    25   25   16 1
    26   26   18 2
    27   27   18 1
    28   28    1 1
    29   29    4 1
    30   30    8 1
    31   31    9 1
    32   32   10 1
    33   33   11 1
    34   34   13 1
    35   35   14 1
    36   36   15 1
    37   37   15 1
    38   38   15 1
    39   39   17 1
    40   40   17 1
    41   41   17 1
    42   42   19 1
    43   43   19 1
    44   44   19 1
    45   45   20 1
    46   46   20 1
    47   47   20 1
    48   13   14 2
@<TRIPOS>SUBSTRUCTURE
     1 RES1 1

@<TRIPOS>CRYSIN
   8.4290   29.1050    7.5340  90.0000  90.0000  90.0000  19 1

