# MOL2 file generated by ConQuest
# Please check atom types

@<TRIPOS>MOLECULE
FIJFIN
    73    74     1
SMALL
NO_CHARGES
****
Generated from CSD

@<TRIPOS>ATOM
      1 N1         9.4225    2.9669    3.6188 N.2       1 RES1    0.0000
      2 C1         9.9919    2.0130    2.9833 C.2       1 RES1    0.0000
      3 C2        11.0570    2.4350    2.0301 C.ar      1 RES1    0.0000
      4 C3        11.8429    3.5471    2.2873 C.ar      1 RES1    0.0000
      5 C4        12.8603    3.8951    1.4223 C.ar      1 RES1    0.0000
      6 C5        13.0796    3.1657    0.2774 C.ar      1 RES1    0.0000
      7 C6        12.2890    2.0847   -0.0076 C.ar      1 RES1    0.0000
      8 C7        11.2833    1.7047    0.8726 C.ar      1 RES1    0.0000
      9 C8         9.7015    0.5560    3.1246 C.ar      1 RES1    0.0000
     10 C9        10.6629   -0.2738    3.6794 C.ar      1 RES1    0.0000
     11 C10       10.4184   -1.6345    3.8155 C.ar      1 RES1    0.0000
     12 C11        9.2382   -2.1708    3.3717 C.ar      1 RES1    0.0000
     13 C12        8.2976   -1.3591    2.7967 C.ar      1 RES1    0.0000
     14 C13        8.5152    0.0086    2.6782 C.ar      1 RES1    0.0000
     15 O1         8.4496    2.4299    4.5267 O.3       1 RES1    0.0000
     16 C14        7.7338    3.4051    5.1673 C.2       1 RES1    0.0000
     17 O2         7.9018    4.5679    5.0159 O.2       1 RES1    0.0000
     18 C15        6.7182    2.7517    6.0524 C.3       1 RES1    0.0000
     19 C16        5.7731    3.7205    6.7308 C.3       1 RES1    0.0000
     20 C17        4.8591    3.0173    7.7219 C.3       1 RES1    0.0000
     21 C18        3.9185    3.9523    8.4608 C.3       1 RES1    0.0000
     22 C19        3.0664    3.2421    9.5048 C.3       1 RES1    0.0000
     23 C20        2.1201    4.1575   10.2639 C.3       1 RES1    0.0000
     24 C21        1.2856    3.4428   11.3079 C.3       1 RES1    0.0000
     25 C22        0.3294    4.3548   12.0620 C.3       1 RES1    0.0000
     26 C23       -0.5044    3.6486   13.1085 C.3       1 RES1    0.0000
     27 C24       -1.4504    4.5668   13.8626 C.3       1 RES1    0.0000
     28 C25       -2.2833    3.8677   14.9217 C.3       1 RES1    0.0000
     29 C26       -3.2068    4.7952   15.6833 C.3       1 RES1    0.0000
     30 C27       -4.0516    4.1277   16.7375 C.3       1 RES1    0.0000
     31 C28       -4.9893    5.0669   17.4612 C.3       1 RES1    0.0000
     32 C29       -5.8774    4.4116   18.4801 C.3       1 RES1    0.0000
     33 H1        11.6674    4.0589    3.0766 H         1 RES1    0.0000
     34 H2        13.4182    4.6630    1.6140 H         1 RES1    0.0000
     35 H3        13.8154    3.4001   -0.3531 H         1 RES1    0.0000
     36 H4        12.4253    1.5635   -0.8322 H         1 RES1    0.0000
     37 H5        10.7258    0.9754    0.6809 H         1 RES1    0.0000
     38 H6        11.5012    0.1075    3.9845 H         1 RES1    0.0000
     39 H7        11.1152   -2.1873    4.2115 H         1 RES1    0.0000
     40 H8         9.0784   -3.1015    3.4549 H         1 RES1    0.0000
     41 H9         7.4808   -1.7352    2.4966 H         1 RES1    0.0000
     42 H10        7.7926    0.5198    2.3705 H         1 RES1    0.0000
     43 H11        7.2096    2.2432    6.7333 H         1 RES1    0.0000
     44 H12        6.2419    2.0831    5.5228 H         1 RES1    0.0000
     45 H13        6.2461    4.4320    7.1620 H         1 RES1    0.0000
     46 H14        5.2282    4.1836    6.0272 H         1 RES1    0.0000
     47 H15        5.4097    2.5441    8.3725 H         1 RES1    0.0000
     48 H16        4.3540    2.3406    7.2377 H         1 RES1    0.0000
     49 H17        4.4622    4.6157    8.9273 H         1 RES1    0.0000
     50 H18        3.3326    4.4303    7.7925 H         1 RES1    0.0000
     51 H19        3.6629    2.7727   10.1378 H         1 RES1    0.0000
     52 H20        2.5805    2.4900    9.0786 H         1 RES1    0.0000
     53 H21        2.6194    4.8553   10.6422 H         1 RES1    0.0000
     54 H22        1.5434    4.6480    9.6082 H         1 RES1    0.0000
     55 H23        1.8838    2.9635   11.9535 H         1 RES1    0.0000
     56 H24        0.8024    2.6988   10.8944 H         1 RES1    0.0000
     57 H25        0.8393    5.0532   12.5083 H         1 RES1    0.0000
     58 H26       -0.2352    4.8478   11.4239 H         1 RES1    0.0000
     59 H27        0.0679    3.1922   13.7188 H         1 RES1    0.0000
     60 H28       -1.0154    2.9579   12.6849 H         1 RES1    0.0000
     61 H29       -0.9253    5.2565   14.3493 H         1 RES1    0.0000
     62 H30       -2.0619    5.0116   13.2397 H         1 RES1    0.0000
     63 H31       -1.6823    3.4493   15.5598 H         1 RES1    0.0000
     64 H32       -2.7623    3.1702   14.5258 H         1 RES1    0.0000
     65 H33       -2.6875    5.4796   16.1398 H         1 RES1    0.0000
     66 H34       -3.7672    5.3082   15.1058 H         1 RES1    0.0000
     67 H35       -4.6417    3.4074   16.4172 H         1 RES1    0.0000
     68 H36       -3.5517    3.6597   17.4511 H         1 RES1    0.0000
     69 H37       -4.4544    5.7622   17.9051 H         1 RES1    0.0000
     70 H38       -5.5621    5.5174   16.7955 H         1 RES1    0.0000
     71 H39       -6.4223    3.7029   18.0816 H         1 RES1    0.0000
     72 H40       -5.3039    3.9961   19.2164 H         1 RES1    0.0000
     73 H41       -6.4790    5.0947   18.9138 H         1 RES1    0.0000
@<TRIPOS>BOND
     1    1    2 2
     2    2    3 1
     3    3    4 ar
     4    4    5 ar
     5    5    6 ar
     6    6    7 ar
     7    7    8 ar
     8    8    3 ar
     9    9    2 1
    10   10    9 ar
    11   11   10 ar
    12   12   11 ar
    13   13   12 ar
    14   14    9 ar
    15   15    1 1
    16   16   15 1
    17   17   16 2
    18   18   16 1
    19   19   18 1
    20   20   19 1
    21   21   20 1
    22   22   21 1
    23   23   22 1
    24   24   23 1
    25   25   24 1
    26   26   25 1
    27   27   26 1
    28   28   27 1
    29   29   28 1
    30   30   29 1
    31   31   30 1
    32   32   31 1
    33   33    4 1
    34   34    5 1
    35   35    6 1
    36   36    7 1
    37   37    8 1
    38   38   10 1
    39   39   11 1
    40   40   12 1
    41   41   13 1
    42   42   14 1
    43   43   18 1
    44   44   18 1
    45   45   19 1
    46   46   19 1
    47   47   20 1
    48   48   20 1
    49   49   21 1
    50   50   21 1
    51   51   22 1
    52   52   22 1
    53   53   23 1
    54   54   23 1
    55   55   24 1
    56   56   24 1
    57   57   25 1
    58   58   25 1
    59   59   26 1
    60   60   26 1
    61   61   27 1
    62   62   27 1
    63   63   28 1
    64   64   28 1
    65   65   29 1
    66   66   29 1
    67   67   30 1
    68   68   30 1
    69   69   31 1
    70   70   31 1
    71   71   32 1
    72   72   32 1
    73   73   32 1
    74   13   14 ar
@<TRIPOS>SUBSTRUCTURE
     1 RES1 1

@<TRIPOS>CRYSIN
   5.7640    8.9970   25.5760  81.7900  84.6200  86.7800   2 1

