# MOL2 file generated by ConQuest
# Please check atom types

@<TRIPOS>MOLECULE
FIJPUL
    60    63     1
SMALL
NO_CHARGES
****
Generated from CSD

@<TRIPOS>ATOM
      1 N1         5.4723   10.3609    4.1879 N.2       1 RES1    0.0000
      2 H1         5.6055   12.2627    4.9687 H         1 RES1    0.0000
      3 N2         5.7271   11.7160    4.2307 N.pl3     1 RES1    0.0000
      4 N3         6.0876   14.6205    4.1574 N.pl3     1 RES1    0.0000
      5 N4         6.7107   14.3019   -0.6405 N.pl3     1 RES1    0.0000
      6 O1         5.9026   14.1071    5.2682 O.2       1 RES1    0.0000
      7 O2         6.2207   15.8262    4.0203 O.2       1 RES1    0.0000
      8 O3         6.6128   15.5159   -0.6843 O.2       1 RES1    0.0000
      9 O4         6.9467   13.6119   -1.6181 O.2       1 RES1    0.0000
     10 C1         5.2039    9.7755    5.2943 C.2       1 RES1    0.0000
     11 C2         5.1831   10.4506    6.6436 C.3       1 RES1    0.0000
     12 H2         4.7765   11.3475    6.5458 H         1 RES1    0.0000
     13 H3         6.1142   10.5735    6.9551 H         1 RES1    0.0000
     14 C3         4.4095    9.6701    7.6970 C.3       1 RES1    0.0000
     15 H4         4.5829   10.0635    8.5896 H         1 RES1    0.0000
     16 H5         3.4395    9.7459    7.5129 H         1 RES1    0.0000
     17 C4         4.8003    8.2189    7.7105 C.ar      1 RES1    0.0000
     18 C5         4.8816    7.5033    8.9144 C.ar      1 RES1    0.0000
     19 H6         4.7045    7.9459    9.7366 H         1 RES1    0.0000
     20 C6         5.2147    6.1653    8.9199 C.ar      1 RES1    0.0000
     21 H7         5.2593    5.6908    9.7418 H         1 RES1    0.0000
     22 C7         5.4838    5.5158    7.7374 C.ar      1 RES1    0.0000
     23 H8         5.7227    4.5967    7.7423 H         1 RES1    0.0000
     24 C8         5.4047    6.2073    6.5354 C.ar      1 RES1    0.0000
     25 H9         5.5839    5.7529    5.7220 H         1 RES1    0.0000
     26 C9         5.0651    7.5578    6.5064 C.ar      1 RES1    0.0000
     27 C10        4.8441    8.2939    5.1756 C.3       1 RES1    0.0000
     28 C11        3.3309    8.2078    4.8772 C.3       1 RES1    0.0000
     29 H10        2.8286    8.6104    5.6152 H         1 RES1    0.0000
     30 H11        3.0704    7.2680    4.7784 H         1 RES1    0.0000
     31 H12        3.1337    8.6907    4.0484 H         1 RES1    0.0000
     32 C12        5.5860    7.6401    4.0007 C.3       1 RES1    0.0000
     33 H13        5.2572    6.7119    3.9051 H         1 RES1    0.0000
     34 H14        5.3450    8.1260    3.1725 H         1 RES1    0.0000
     35 C13        7.1014    7.6002    4.1055 C.3       1 RES1    0.0000
     36 H15        7.3576    7.2899    5.0104 H         1 RES1    0.0000
     37 H16        7.4605    8.5143    3.9859 H         1 RES1    0.0000
     38 C14        7.7203    6.6769    3.0649 C.3       1 RES1    0.0000
     39 H17        8.7010    6.6595    3.1986 H         1 RES1    0.0000
     40 H18        7.3813    5.7589    3.2116 H         1 RES1    0.0000
     41 C15        7.4288    7.0803    1.6316 C.ar      1 RES1    0.0000
     42 C16        6.6978    6.2707    0.7904 C.ar      1 RES1    0.0000
     43 H19        6.3329    5.4596    1.1262 H         1 RES1    0.0000
     44 C17        6.4848    6.6151   -0.5344 C.ar      1 RES1    0.0000
     45 H20        5.9933    6.0352   -1.1027 H         1 RES1    0.0000
     46 C18        6.9856    7.7977   -1.0245 C.ar      1 RES1    0.0000
     47 H21        6.8489    8.0299   -1.9343 H         1 RES1    0.0000
     48 C19        7.6872    8.6484   -0.1926 C.ar      1 RES1    0.0000
     49 H22        8.0189    9.4757   -0.5240 H         1 RES1    0.0000
     50 C20        7.9045    8.2847    1.1316 C.ar      1 RES1    0.0000
     51 H23        8.3866    8.8696    1.7049 H         1 RES1    0.0000
     52 C21        6.0271   12.3570    3.0808 C.ar      1 RES1    0.0000
     53 C22        6.1631   13.7680    2.9924 C.ar      1 RES1    0.0000
     54 C23        6.3862   14.3958    1.7711 C.ar      1 RES1    0.0000
     55 H24        6.4452   15.3430    1.7231 H         1 RES1    0.0000
     56 C24        6.5207   13.6378    0.6447 C.ar      1 RES1    0.0000
     57 C25        6.4768   12.2474    0.6942 C.ar      1 RES1    0.0000
     58 H25        6.6121   11.7357   -0.0938 H         1 RES1    0.0000
     59 C26        6.2372   11.6264    1.8855 C.ar      1 RES1    0.0000
     60 H26        6.2106   10.6769    1.9134 H         1 RES1    0.0000
@<TRIPOS>BOND
     1    1    3 1
     2    2    3 1
     3    3   52 1
     4    4    6 2
     5    5    8 2
     6    7    4 2
     7    9    5 2
     8   10    1 2
     9   11   10 1
    10   12   11 1
    11   13   11 1
    12   14   11 1
    13   15   14 1
    14   16   14 1
    15   17   14 1
    16   18   17 ar
    17   19   18 1
    18   20   18 ar
    19   21   20 1
    20   22   20 ar
    21   23   22 1
    22   24   22 ar
    23   25   24 1
    24   26   17 ar
    25   27   10 1
    26   28   27 1
    27   29   28 1
    28   30   28 1
    29   31   28 1
    30   32   27 1
    31   33   32 1
    32   34   32 1
    33   35   32 1
    34   36   35 1
    35   37   35 1
    36   38   35 1
    37   39   38 1
    38   40   38 1
    39   41   38 1
    40   42   41 ar
    41   43   42 1
    42   44   42 ar
    43   45   44 1
    44   46   44 ar
    45   47   46 1
    46   48   46 ar
    47   49   48 1
    48   50   41 ar
    49   51   50 1
    50   52   53 ar
    51   53    4 1
    52   54   53 ar
    53   55   54 1
    54   56    5 1
    55   57   56 ar
    56   58   57 1
    57   59   52 ar
    58   60   59 1
    59   24   26 ar
    60   26   27 1
    61   48   50 ar
    62   54   56 ar
    63   57   59 ar
@<TRIPOS>SUBSTRUCTURE
     1 RES1 1

@<TRIPOS>CRYSIN
   7.1957   12.1702   26.0685  90.0000  90.0000  90.0000  19 1

