# MOL2 file generated by ConQuest
# Please check atom types

@<TRIPOS>MOLECULE
FIJQUM
    85    89     1
SMALL
NO_CHARGES
****
Generated from CSD

@<TRIPOS>ATOM
      1 O1         0.1936   15.1852   18.8932 O.2       1 RES1    0.0000
      2 O2        -0.8291   15.2741   20.7826 O.2       1 RES1    0.0000
      3 N1         1.9443   12.0952   17.2541 N.2       1 RES1    0.0000
      4 N2         1.1628   12.9265   18.0098 N.pl3     1 RES1    0.0000
      5 H1         1.0242   13.7429   17.7759 H         1 RES1    0.0000
      6 N3        -0.2513   14.6298   19.9153 N.pl3     1 RES1    0.0000
      7 C1         4.0547   12.3248   14.2220 C.3       1 RES1    0.0000
      8 H2         3.2978   12.4247   13.6082 H         1 RES1    0.0000
      9 C2         4.6094   13.7541   14.4845 C.3       1 RES1    0.0000
     10 C3         5.0803   14.3946   13.1590 C.3       1 RES1    0.0000
     11 H3         5.8791   13.9355   12.8588 H         1 RES1    0.0000
     12 H4         4.3942   14.2650   12.4874 H         1 RES1    0.0000
     13 C4         5.3808   15.8721   13.2657 C.3       1 RES1    0.0000
     14 H5         6.2128   15.9961   13.7483 H         1 RES1    0.0000
     15 H6         5.4934   16.2405   12.3762 H         1 RES1    0.0000
     16 C5         4.2931   16.5997   13.9663 C.2       1 RES1    0.0000
     17 H7         4.2425   17.5235   13.8729 H         1 RES1    0.0000
     18 C6         3.3830   15.9739   14.7269 C.2       1 RES1    0.0000
     19 H8         2.6694   16.4664   15.0627 H         1 RES1    0.0000
     20 C7         3.4668   14.5705   15.0404 C.2       1 RES1    0.0000
     21 C8         2.5481   13.9966   15.8477 C.2       1 RES1    0.0000
     22 H9         1.8533   14.5279   16.1657 H         1 RES1    0.0000
     23 C9         2.5770   12.6043   16.2503 C.2       1 RES1    0.0000
     24 C10        3.4986   11.6620   15.5028 C.3       1 RES1    0.0000
     25 H10        4.2598   11.4676   16.0879 H         1 RES1    0.0000
     26 C11        2.8601   10.3012   15.1005 C.3       1 RES1    0.0000
     27 H11        2.2000   10.5085   14.4066 H         1 RES1    0.0000
     28 C12        2.1335    9.4607   16.1235 C.3       1 RES1    0.0000
     29 H12        1.2495    9.8161   16.3014 H         1 RES1    0.0000
     30 H13        2.6304    9.4236   16.9575 H         1 RES1    0.0000
     31 C13        2.0497    8.0814   15.4741 C.3       1 RES1    0.0000
     32 H14        1.1296    7.8685   15.2539 H         1 RES1    0.0000
     33 H15        2.3849    7.4019   16.0812 H         1 RES1    0.0000
     34 C14        2.9193    8.1202   14.1798 C.3       1 RES1    0.0000
     35 H16        2.3271    8.3739   13.4392 H         1 RES1    0.0000
     36 C15        3.8626    9.3311   14.4489 C.3       1 RES1    0.0000
     37 C16        4.4288   10.0179   13.2012 C.3       1 RES1    0.0000
     38 H17        3.7181   10.1401   12.5519 H         1 RES1    0.0000
     39 H18        5.1049    9.4495   12.8009 H         1 RES1    0.0000
     40 C17        5.0514   11.3917   13.5415 C.3       1 RES1    0.0000
     41 H19        5.8141   11.2602   14.1242 H         1 RES1    0.0000
     42 H20        5.3692   11.8082   12.7253 H         1 RES1    0.0000
     43 C18        3.5332    6.7539   13.8217 C.3       1 RES1    0.0000
     44 H21        4.1385    6.5003   14.5512 H         1 RES1    0.0000
     45 C19        2.4239    5.6801   13.7394 C.3       1 RES1    0.0000
     46 H22        1.9183    5.6894   14.5690 H         1 RES1    0.0000
     47 H23        1.8143    5.9171   13.0211 H         1 RES1    0.0000
     48 C20        2.9410    4.2693   13.4970 C.3       1 RES1    0.0000
     49 H24        3.3975    4.2545   12.6408 H         1 RES1    0.0000
     50 H25        3.5982    4.0657   14.1798 H         1 RES1    0.0000
     51 C21        1.9255    3.2029   13.4993 C.3       1 RES1    0.0000
     52 H26        1.3029    3.3733   12.7743 H         1 RES1    0.0000
     53 H27        1.4257    3.2585   14.3288 H         1 RES1    0.0000
     54 C22        2.4585    1.7699   13.3503 C.3       1 RES1    0.0000
     55 H28        3.1086    1.6366   14.0730 H         1 RES1    0.0000
     56 C23        1.4243    0.7757   13.5393 C.3       1 RES1    0.0000
     57 H29        0.7873    0.8368   12.8232 H         1 RES1    0.0000
     58 H30        0.9794    0.9294   14.3755 H         1 RES1    0.0000
     59 H31        1.8186   -0.1000   13.5437 H         1 RES1    0.0000
     60 C24        3.2053    1.6237   12.0759 C.3       1 RES1    0.0000
     61 H32        3.8886    2.2957   12.0270 H         1 RES1    0.0000
     62 H33        2.6001    1.7292   11.3376 H         1 RES1    0.0000
     63 H34        3.6084    0.7535   12.0404 H         1 RES1    0.0000
     64 C25        4.3479    6.7835   12.5363 C.3       1 RES1    0.0000
     65 H35        5.1222    7.3371   12.6631 H         1 RES1    0.0000
     66 H36        3.8106    7.1427   11.8269 H         1 RES1    0.0000
     67 H37        4.6238    5.8930   12.3117 H         1 RES1    0.0000
     68 C26        4.9965    8.9330   15.3985 C.3       1 RES1    0.0000
     69 H38        4.6311    8.4665   16.1524 H         1 RES1    0.0000
     70 H39        5.4530    9.7217   15.6987 H         1 RES1    0.0000
     71 H40        5.6133    8.3609   14.9359 H         1 RES1    0.0000
     72 C27        5.7621   13.7689   15.5075 C.3       1 RES1    0.0000
     73 H41        6.5205   13.3097   15.1405 H         1 RES1    0.0000
     74 H42        5.4790   13.3282   16.3125 H         1 RES1    0.0000
     75 H43        6.0019   14.6760   15.7054 H         1 RES1    0.0000
     76 C28        0.6110   12.4155   19.1503 C.ar      1 RES1    0.0000
     77 C29        0.7092   11.0436   19.4460 C.ar      1 RES1    0.0000
     78 H44        1.1643   10.4863   18.8567 H         1 RES1    0.0000
     79 C30        0.1546   10.5030   20.5758 C.ar      1 RES1    0.0000
     80 H45        0.2513    9.5940   20.7426 H         1 RES1    0.0000
     81 C31       -0.5605   11.3028   21.4854 C.ar      1 RES1    0.0000
     82 H46       -0.9476   10.9381   22.2482 H         1 RES1    0.0000
     83 C32       -0.6659   12.6284   21.2118 C.ar      1 RES1    0.0000
     84 H47       -1.1339   13.1690   21.8056 H         1 RES1    0.0000
     85 C33       -0.1112   13.2079   20.0977 C.ar      1 RES1    0.0000
@<TRIPOS>BOND
     1    1    6 2
     2    2    6 2
     3    3    4 1
     4    4    5 1
     5    6   85 1
     6    7    8 1
     7    9    7 1
     8   10    9 1
     9   11   10 1
    10   12   10 1
    11   13   10 1
    12   14   13 1
    13   15   13 1
    14   16   13 1
    15   17   16 1
    16   18   16 2
    17   19   18 1
    18   20    9 1
    19   21   20 2
    20   22   21 1
    21   23    3 2
    22   24    7 1
    23   25   24 1
    24   26   24 1
    25   27   26 1
    26   28   26 1
    27   29   28 1
    28   30   28 1
    29   31   28 1
    30   32   31 1
    31   33   31 1
    32   34   31 1
    33   35   34 1
    34   36   26 1
    35   37   36 1
    36   38   37 1
    37   39   37 1
    38   40    7 1
    39   41   40 1
    40   42   40 1
    41   43   34 1
    42   44   43 1
    43   45   43 1
    44   46   45 1
    45   47   45 1
    46   48   45 1
    47   49   48 1
    48   50   48 1
    49   51   48 1
    50   52   51 1
    51   53   51 1
    52   54   51 1
    53   55   54 1
    54   56   54 1
    55   57   56 1
    56   58   56 1
    57   59   56 1
    58   60   54 1
    59   61   60 1
    60   62   60 1
    61   63   60 1
    62   64   43 1
    63   65   64 1
    64   66   64 1
    65   67   64 1
    66   68   36 1
    67   69   68 1
    68   70   68 1
    69   71   68 1
    70   72    9 1
    71   73   72 1
    72   74   72 1
    73   75   72 1
    74   76    4 1
    75   77   76 ar
    76   78   77 1
    77   79   77 ar
    78   80   79 1
    79   81   79 ar
    80   82   81 1
    81   83   81 ar
    82   84   83 1
    83   85   76 ar
    84   18   20 1
    85   21   23 1
    86   23   24 1
    87   34   36 1
    88   37   40 1
    89   83   85 ar
@<TRIPOS>SUBSTRUCTURE
     1 RES1 1

@<TRIPOS>CRYSIN
  14.4450   18.5140   22.2393  90.0000  90.0000  90.0000  20 1

