# MOL2 file generated by ConQuest
# Please check atom types

@<TRIPOS>MOLECULE
FIJREX
    86    90     1
SMALL
NO_CHARGES
****
Generated from CSD

@<TRIPOS>ATOM
      1 C1         8.9791    1.4613   15.8846 C.3       1 RES1    0.0000
      2 H1         8.8191    2.3316   15.4866 H         1 RES1    0.0000
      3 H2         8.2860    1.3071   16.5461 H         1 RES1    0.0000
      4 C2        10.3371    1.4828   16.5889 C.3       1 RES1    0.0000
      5 H3        10.9999    1.8637   15.9918 H         1 RES1    0.0000
      6 H4        10.2811    2.0505   17.3722 H         1 RES1    0.0000
      7 C3        10.7780    0.1134   17.0041 C.2       1 RES1    0.0000
      8 C4        10.1258   -1.0380   16.4208 C.2       1 RES1    0.0000
      9 H5        10.3353   -1.8805   16.7548 H         1 RES1    0.0000
     10 C5         9.2285   -0.9510   15.4170 C.2       1 RES1    0.0000
     11 C6         8.8689    0.3881   14.7899 C.3       1 RES1    0.0000
     12 C7         7.4140    0.3689   14.2488 C.3       1 RES1    0.0000
     13 H6         6.8295    0.3034   15.0323 H         1 RES1    0.0000
     14 C8         7.1143   -0.8648   13.3833 C.3       1 RES1    0.0000
     15 H7         7.7462   -0.8799   12.6345 H         1 RES1    0.0000
     16 C9         7.3127   -2.1352   14.2088 C.3       1 RES1    0.0000
     17 H8         6.5962   -2.1959   14.8604 H         1 RES1    0.0000
     18 H9         7.2369   -2.9025   13.6203 H         1 RES1    0.0000
     19 C10        8.6215   -2.2150   14.9302 C.2       1 RES1    0.0000
     20 C11        7.0359    1.6729   13.5356 C.3       1 RES1    0.0000
     21 H10        7.6836    1.8397   12.8327 H         1 RES1    0.0000
     22 H11        7.0986    2.4027   14.1711 H         1 RES1    0.0000
     23 C12        5.6321    1.6824   12.9180 C.3       1 RES1    0.0000
     24 H12        4.9698    1.6601   13.6256 H         1 RES1    0.0000
     25 H13        5.5071    2.5041   12.4170 H         1 RES1    0.0000
     26 C13        5.4183    0.4871   11.9888 C.3       1 RES1    0.0000
     27 C14        3.9484    0.2020   11.5630 C.3       1 RES1    0.0000
     28 H14        3.3896    0.3402   12.3556 H         1 RES1    0.0000
     29 C15        3.9444   -1.3231   11.2674 C.3       1 RES1    0.0000
     30 H15        3.1275   -1.7272   11.5961 H         1 RES1    0.0000
     31 H16        4.0029   -1.4804   10.3121 H         1 RES1    0.0000
     32 C16        5.1660   -1.9316   11.9831 C.3       1 RES1    0.0000
     33 H17        4.9041   -2.6774   12.5451 H         1 RES1    0.0000
     34 H18        5.8286   -2.2358   11.3435 H         1 RES1    0.0000
     35 C17        5.7047   -0.7737   12.8224 C.3       1 RES1    0.0000
     36 H19        5.1130   -0.7155   13.6028 H         1 RES1    0.0000
     37 C18        9.8895    0.6532   13.6717 C.3       1 RES1    0.0000
     38 H20        9.7873   -0.0064   12.9818 H         1 RES1    0.0000
     39 H21       10.7789    0.6053   14.0307 H         1 RES1    0.0000
     40 H22        9.7411    1.5275   13.3028 H         1 RES1    0.0000
     41 C19        6.3171    0.5693   10.7515 C.3       1 RES1    0.0000
     42 H23        6.1344    1.3830   10.2753 H         1 RES1    0.0000
     43 H24        6.1439   -0.1821   10.1788 H         1 RES1    0.0000
     44 H25        7.2383    0.5582   11.0243 H         1 RES1    0.0000
     45 C20        3.3172    1.0149   10.4242 C.3       1 RES1    0.0000
     46 H26        3.7795    0.7674    9.5965 H         1 RES1    0.0000
     47 C21        1.8383    0.6460   10.2509 C.3       1 RES1    0.0000
     48 H27        1.7307   -0.2994   10.4402 H         1 RES1    0.0000
     49 H28        1.3184    1.1363   10.9068 H         1 RES1    0.0000
     50 C22        1.2710    0.9303    8.8756 C.3       1 RES1    0.0000
     51 H29        1.7321    0.3753    8.2266 H         1 RES1    0.0000
     52 H30        1.4505    1.8565    8.6493 H         1 RES1    0.0000
     53 C23       -0.2254    0.6795    8.7577 C.3       1 RES1    0.0000
     54 H31       -0.3992   -0.2483    8.9808 H         1 RES1    0.0000
     55 H32       -0.6801    1.2281    9.4158 H         1 RES1    0.0000
     56 C24       -0.8316    0.9638    7.4030 C.3       1 RES1    0.0000
     57 H33       -0.6028    1.8845    7.1601 H         1 RES1    0.0000
     58 C25       -2.3485    0.8608    7.4556 C.3       1 RES1    0.0000
     59 H34       -2.6014   -0.0447    7.6495 H         1 RES1    0.0000
     60 H35       -2.7157    1.1203    6.6076 H         1 RES1    0.0000
     61 H36       -2.6844    1.4413    8.1424 H         1 RES1    0.0000
     62 C26       -0.2881    0.0527    6.3288 C.3       1 RES1    0.0000
     63 H37       -0.5294   -0.8552    6.5251 H         1 RES1    0.0000
     64 H38        0.6687    0.1302    6.2988 H         1 RES1    0.0000
     65 H39       -0.6562    0.3050    5.4797 H         1 RES1    0.0000
     66 C27        3.4559    2.5249   10.5895 C.3       1 RES1    0.0000
     67 H40        3.1022    2.7876   11.4418 H         1 RES1    0.0000
     68 H41        2.9688    2.9688    9.8912 H         1 RES1    0.0000
     69 H42        4.3830    2.7692   10.5384 H         1 RES1    0.0000
     70 C28       13.4343    0.7745   19.2094 C.ar      1 RES1    0.0000
     71 C29       14.1689    1.8485   19.7400 C.ar      1 RES1    0.0000
     72 C30       15.2019    1.6273   20.6413 C.ar      1 RES1    0.0000
     73 H43       15.6814    2.3500   20.9768 H         1 RES1    0.0000
     74 C31       15.5204    0.3641   21.0402 C.ar      1 RES1    0.0000
     75 H44       16.2204    0.2212   21.6364 H         1 RES1    0.0000
     76 C32       14.7938   -0.7011   20.5494 C.ar      1 RES1    0.0000
     77 H45       14.9974   -1.5635   20.8348 H         1 RES1    0.0000
     78 C33       13.7770   -0.5118   19.6474 C.ar      1 RES1    0.0000
     79 H46       13.3080   -1.2465   19.3228 H         1 RES1    0.0000
     80 N1        11.7455   -0.1413   17.8264 N.2       1 RES1    0.0000
     81 N2        12.4175    0.9454   18.3159 N.pl3     1 RES1    0.0000
     82 H47       12.1997    1.7367   18.0598 H         1 RES1    0.0000
     83 N3        13.8811    3.2132   19.3889 N.pl3     1 RES1    0.0000
     84 O1         9.1543   -3.2890   15.1167 O.2       1 RES1    0.0000
     85 O2        12.9848    3.4655   18.5722 O.2       1 RES1    0.0000
     86 O3        14.5145    4.1171   19.9505 O.2       1 RES1    0.0000
@<TRIPOS>BOND
     1    1    2 1
     2    3    1 1
     3    4    1 1
     4    5    4 1
     5    6    4 1
     6    7    4 1
     7    8    7 1
     8    9    8 1
     9   10    8 2
    10   11    1 1
    11   12   11 1
    12   13   12 1
    13   14   12 1
    14   15   14 1
    15   16   14 1
    16   17   16 1
    17   18   16 1
    18   19   10 1
    19   20   12 1
    20   21   20 1
    21   22   20 1
    22   23   20 1
    23   24   23 1
    24   25   23 1
    25   26   23 1
    26   27   26 1
    27   28   27 1
    28   29   27 1
    29   30   29 1
    30   31   29 1
    31   32   29 1
    32   33   32 1
    33   34   32 1
    34   35   14 1
    35   36   35 1
    36   37   11 1
    37   38   37 1
    38   39   37 1
    39   40   37 1
    40   41   26 1
    41   42   41 1
    42   43   41 1
    43   44   41 1
    44   45   27 1
    45   46   45 1
    46   47   45 1
    47   48   47 1
    48   49   47 1
    49   50   47 1
    50   51   50 1
    51   52   50 1
    52   53   50 1
    53   54   53 1
    54   55   53 1
    55   56   53 1
    56   57   56 1
    57   58   56 1
    58   59   58 1
    59   60   58 1
    60   61   58 1
    61   62   56 1
    62   63   62 1
    63   64   62 1
    64   65   62 1
    65   66   45 1
    66   67   66 1
    67   68   66 1
    68   69   66 1
    69   70   71 ar
    70   71   72 ar
    71   72   73 1
    72   74   72 ar
    73   75   74 1
    74   76   74 ar
    75   77   76 1
    76   78   70 ar
    77   79   78 1
    78   80    7 2
    79   81   70 1
    80   82   81 1
    81   83   71 1
    82   84   19 2
    83   85   83 2
    84   86   83 2
    85   10   11 1
    86   16   19 1
    87   26   35 1
    88   32   35 1
    89   76   78 ar
    90   80   81 1
@<TRIPOS>SUBSTRUCTURE
     1 RES1 1

@<TRIPOS>CRYSIN
  10.7210    7.9850   17.6680  90.0000  96.8840  90.0000   4 1

