# MOL2 file generated by ConQuest
# Please check atom types

@<TRIPOS>MOLECULE
FIJVEB
    54    58     1
SMALL
NO_CHARGES
****
Generated from CSD

@<TRIPOS>ATOM
      1 O1         4.4063    5.1036    0.9919 O.3       1 RES1    0.0000
      2 O2         5.9955    5.9365    5.4062 O.3       1 RES1    0.0000
      3 O3         5.0742    1.8302    3.9709 O.3       1 RES1    0.0000
      4 N1         4.3577    3.0922    3.7339 N.3       1 RES1    0.0000
      5 C1         5.4860    3.9658    3.3382 C.3       1 RES1    0.0000
      6 H1         5.9053    3.6308    2.5184 H         1 RES1    0.0000
      7 C2         5.1574    5.4287    3.1974 C.ar      1 RES1    0.0000
      8 C3         4.6736    5.9883    2.0006 C.ar      1 RES1    0.0000
      9 O4         3.7116    9.0664    0.3884 O.2       1 RES1    0.0000
     10 C4         4.4793    7.3531    1.8210 C.ar      1 RES1    0.0000
     11 C5         3.3769    2.7763    2.7069 C.3       1 RES1    0.0000
     12 H2         3.7813    2.1894    2.0494 H         1 RES1    0.0000
     13 H3         3.1139    3.5935    2.2556 H         1 RES1    0.0000
     14 C6         2.1522    2.1106    3.2752 C.ar      1 RES1    0.0000
     15 C7         6.3907    3.7034    4.5416 C.3       1 RES1    0.0000
     16 H4         7.3183    3.9426    4.3340 H         1 RES1    0.0000
     17 C8         3.8204    5.5727   -0.1506 C.2       1 RES1    0.0000
     18 H5         3.6097    4.9507   -0.8097 H         1 RES1    0.0000
     19 C9         6.2550    2.1795    4.7366 C.3       1 RES1    0.0000
     20 C10        3.8888    7.8620    0.5818 C.2       1 RES1    0.0000
     21 C11        5.4825    6.3281    4.2082 C.ar      1 RES1    0.0000
     22 C12        5.3388    7.7081    4.0340 C.ar      1 RES1    0.0000
     23 H6         5.5876    8.2878    4.7175 H         1 RES1    0.0000
     24 C13        1.5739    2.5559    4.4524 C.ar      1 RES1    0.0000
     25 H7         1.9947    3.2185    4.9513 H         1 RES1    0.0000
     26 C14        5.8724    4.5337    5.6940 C.3       1 RES1    0.0000
     27 H8         4.9409    4.3165    5.8566 H         1 RES1    0.0000
     28 H9         6.3742    4.3223    6.4966 H         1 RES1    0.0000
     29 C15        4.8399    8.2065    2.8750 C.ar      1 RES1    0.0000
     30 H10        4.7351    9.1257    2.7774 H         1 RES1    0.0000
     31 C16        3.5280    6.8500   -0.3967 C.2       1 RES1    0.0000
     32 C17        1.5150    1.1037    2.5718 C.ar      1 RES1    0.0000
     33 H11        1.8974    0.7709    1.7917 H         1 RES1    0.0000
     34 C18        6.0476    1.7313    6.1698 C.3       1 RES1    0.0000
     35 H12        5.2415    2.1234    6.5142 H         1 RES1    0.0000
     36 H13        6.7939    2.0124    6.7040 H         1 RES1    0.0000
     37 H14        5.9761    0.7747    6.1986 H         1 RES1    0.0000
     38 C19       -0.2828    1.0378    4.1763 C.ar      1 RES1    0.0000
     39 C20        7.4196    1.4447    4.1001 C.3       1 RES1    0.0000
     40 H15        7.2432    0.5012    4.1039 H         1 RES1    0.0000
     41 H16        8.2213    1.6231    4.5980 H         1 RES1    0.0000
     42 H17        7.5321    1.7456    3.1948 H         1 RES1    0.0000
     43 C21        0.3735    2.0210    4.8922 C.ar      1 RES1    0.0000
     44 H18        0.0007    2.3309    5.6868 H         1 RES1    0.0000
     45 C22        0.3098    0.5882    3.0245 C.ar      1 RES1    0.0000
     46 H19       -0.1078   -0.0813    2.5335 H         1 RES1    0.0000
     47 C23        2.8607    7.2778   -1.6693 C.3       1 RES1    0.0000
     48 H20        2.7629    6.5193   -2.2493 H         1 RES1    0.0000
     49 H21        3.3971    7.9454   -2.1035 H         1 RES1    0.0000
     50 H22        1.9956    7.6422   -1.4698 H         1 RES1    0.0000
     51 C24       -1.6216    0.4868    4.6257 C.3       1 RES1    0.0000
     52 H23       -1.5742   -0.4715    4.6697 H         1 RES1    0.0000
     53 H24       -2.3003    0.7441    3.9983 H         1 RES1    0.0000
     54 H25       -1.8374    0.8369    5.4932 H         1 RES1    0.0000
@<TRIPOS>BOND
     1    1    8 1
     2    2   21 1
     3    3    4 1
     4    4    5 1
     5    5    6 1
     6    7    5 1
     7    8    7 ar
     8    9   20 2
     9   10    8 ar
    10   11    4 1
    11   12   11 1
    12   13   11 1
    13   14   11 1
    14   15    5 1
    15   16   15 1
    16   17    1 1
    17   18   17 1
    18   19    3 1
    19   20   10 1
    20   21    7 ar
    21   22   21 ar
    22   23   22 1
    23   24   14 ar
    24   25   24 1
    25   26    2 1
    26   27   26 1
    27   28   26 1
    28   29   10 ar
    29   30   29 1
    30   31   17 2
    31   32   14 ar
    32   33   32 1
    33   34   19 1
    34   35   34 1
    35   36   34 1
    36   37   34 1
    37   38   43 ar
    38   39   19 1
    39   40   39 1
    40   41   39 1
    41   42   39 1
    42   43   24 ar
    43   44   43 1
    44   45   32 ar
    45   46   45 1
    46   47   31 1
    47   48   47 1
    48   49   47 1
    49   50   47 1
    50   51   38 1
    51   52   51 1
    52   53   51 1
    53   54   51 1
    54   15   19 1
    55   15   26 1
    56   20   31 1
    57   22   29 ar
    58   38   45 ar
@<TRIPOS>SUBSTRUCTURE
     1 RES1 1

@<TRIPOS>CRYSIN
  17.0421    9.5647   12.7377  90.0000  99.2190  90.0000  14 1

