# MOL2 file generated by ConQuest
# Please check atom types

@<TRIPOS>MOLECULE
FIMJEQ
    53    56     1
SMALL
NO_CHARGES
****
Generated from CSD

@<TRIPOS>ATOM
      1 O1         8.2948    6.5700    4.6995 O.3       1 RES1    0.0000
      2 O2        13.0130    3.3111    0.5014 O.2       1 RES1    0.0000
      3 O3         5.8968    3.5166    4.9476 O.3       1 RES1    0.0000
      4 O4         6.8486    1.5375    5.5341 O.2       1 RES1    0.0000
      5 O5         9.4185    1.8293    3.7610 O.3       1 RES1    0.0000
      6 O6        11.2051    1.4773    5.0493 O.2       1 RES1    0.0000
      7 O7         6.9478    5.8092    6.2307 O.3       1 RES1    0.0000
      8 O8         7.1091    4.1151    7.7162 O.2       1 RES1    0.0000
      9 O9        12.4547    5.0995    7.9103 O.2       1 RES1    0.0000
     10 N1         9.6100    6.6836    4.1161 N.3       1 RES1    0.0000
     11 N2        10.6486    5.2551    6.5400 N.am      1 RES1    0.0000
     12 N3         4.6756    2.0064    6.0085 N.am      1 RES1    0.0000
     13 C1        10.0353    5.4345    3.5628 C.ar      1 RES1    0.0000
     14 C2        11.0350    5.4742    2.5901 C.ar      1 RES1    0.0000
     15 C3        11.4497    4.2956    2.0015 C.ar      1 RES1    0.0000
     16 C4        10.9251    3.0602    2.3731 C.ar      1 RES1    0.0000
     17 C5         9.9538    3.0681    3.3655 C.ar      1 RES1    0.0000
     18 C6         9.4735    4.2252    3.9645 C.ar      1 RES1    0.0000
     19 C7         8.3391    4.1650    4.9767 C.3       1 RES1    0.0000
     20 C8         8.2558    5.5287    5.6898 C.3       1 RES1    0.0000
     21 C9         9.3104    5.7956    6.7674 C.3       1 RES1    0.0000
     22 C10       10.4625    6.7085    6.4518 C.3       1 RES1    0.0000
     23 C11       10.5210    7.3228    5.0825 C.3       1 RES1    0.0000
     24 C12       12.5167    4.3149    0.9457 C.2       1 RES1    0.0000
     25 C13        7.0648    3.8505    4.1586 C.3       1 RES1    0.0000
     26 C14        5.8897    2.2767    5.4915 C.2       1 RES1    0.0000
     27 C15       10.1683    1.0889    4.5915 C.2       1 RES1    0.0000
     28 C16        9.5337   -0.2430    4.8448 C.3       1 RES1    0.0000
     29 C17        6.4781    5.0166    7.2314 C.2       1 RES1    0.0000
     30 C18        5.0815    5.4311    7.6311 C.3       1 RES1    0.0000
     31 C19       11.3894    4.6487    7.5729 C.2       1 RES1    0.0000
     32 C20       10.7851    3.3861    8.1128 C.3       1 RES1    0.0000
     33 H1         4.5196    1.2377    6.4258 H         1 RES1    0.0000
     34 H2         4.0411    2.5889    5.8134 H         1 RES1    0.0000
     35 H3        11.4320    6.4042    2.2527 H         1 RES1    0.0000
     36 H4        11.2725    2.1915    1.9620 H         1 RES1    0.0000
     37 H5         8.4898    3.4406    5.6265 H         1 RES1    0.0000
     38 H6         8.8088    5.7570    7.6923 H         1 RES1    0.0000
     39 H7        10.9357    7.2899    7.1733 H         1 RES1    0.0000
     40 H8        11.5206    7.2899    4.6818 H         1 RES1    0.0000
     41 H9        10.2267    8.3119    5.1697 H         1 RES1    0.0000
     42 H10       12.8499    5.3255    0.6332 H         1 RES1    0.0000
     43 H11        6.7351    4.6669    3.5918 H         1 RES1    0.0000
     44 H12        7.2491    3.0091    3.4984 H         1 RES1    0.0000
     45 H13        8.6139   -0.1817    5.2320 H         1 RES1    0.0000
     46 H14       10.1913   -0.7835    5.3877 H         1 RES1    0.0000
     47 H15        9.4292   -0.7494    4.0694 H         1 RES1    0.0000
     48 H16        4.7146    6.0182    6.9345 H         1 RES1    0.0000
     49 H17        5.0159    6.0182    8.4709 H         1 RES1    0.0000
     50 H18        4.5728    4.6328    7.7650 H         1 RES1    0.0000
     51 H19       10.0141    3.4519    8.5332 H         1 RES1    0.0000
     52 H20       11.4143    2.9296    8.6889 H         1 RES1    0.0000
     53 H21       10.6876    2.7252    7.4017 H         1 RES1    0.0000
@<TRIPOS>BOND
     1    1   10 1
     2    2   24 2
     3    3   25 1
     4    4   26 2
     5    5   17 1
     6    6   27 2
     7    7   20 1
     8    8   29 2
     9    9   31 2
    10   10   13 1
    11   11   21 1
    12   12   26 1
    13   13   14 ar
    14   14   15 ar
    15   15   16 ar
    16   16   17 ar
    17   17   18 ar
    18   18   13 ar
    19   19   18 1
    20   20    1 1
    21   21   20 1
    22   22   11 1
    23   23   10 1
    24   24   15 1
    25   25   19 1
    26   26    3 1
    27   27    5 1
    28   28   27 1
    29   29    7 1
    30   30   29 1
    31   31   11 1
    32   32   31 1
    33   33   12 1
    34   34   12 1
    35   35   14 1
    36   36   16 1
    37   37   19 1
    38   38   21 1
    39   39   22 1
    40   40   23 1
    41   41   23 1
    42   42   24 1
    43   43   25 1
    44   44   25 1
    45   45   28 1
    46   46   28 1
    47   47   28 1
    48   48   30 1
    49   49   30 1
    50   50   30 1
    51   51   32 1
    52   52   32 1
    53   53   32 1
    54   19   20 1
    55   21   22 1
    56   22   23 1
@<TRIPOS>SUBSTRUCTURE
     1 RES1 1

@<TRIPOS>CRYSIN
  17.7240   11.3550   10.3810  90.0000  90.0000  90.0000  19 1

