# MOL2 file generated by ConQuest
# Please check atom types

@<TRIPOS>MOLECULE
FINBOV
    28    27     1
SMALL
NO_CHARGES
****
Generated from CSD

@<TRIPOS>ATOM
      1 O1         4.9743    8.4097   10.1331 O.2       1 RES1    0.0000
      2 O2         6.2984    5.9130    9.1451 O.2       1 RES1    0.0000
      3 O3         2.2145   11.0593   15.9258 O.2       1 RES1    0.0000
      4 N1         6.8591    6.1367   10.1943 N.pl3     1 RES1    0.0000
      5 O4         2.6334    8.8453   12.8690 O.2       1 RES1    0.0000
      6 O5         2.9721    6.9080   15.2867 O.2       1 RES1    0.0000
      7 O6         2.4264    9.3454   17.2608 O.2       1 RES1    0.0000
      8 N2         3.6871    7.8448   15.5896 N.pl3     1 RES1    0.0000
      9 O7         4.6896    7.8325   16.2767 O.2       1 RES1    0.0000
     10 N3         4.7932    7.3305   10.6675 N.pl3     1 RES1    0.0000
     11 N4         2.5718    9.9308   16.2053 N.pl3     1 RES1    0.0000
     12 O8         5.9112    4.4573   11.8591 O.2       1 RES1    0.0000
     13 O9         3.7638    6.6881   10.7126 O.2       1 RES1    0.0000
     14 O10        4.9266    5.8727   13.1755 O.2       1 RES1    0.0000
     15 O11        1.0741    8.8993   14.3783 O.2       1 RES1    0.0000
     16 N5         5.5794    5.5707   12.1960 N.pl3     1 RES1    0.0000
     17 O12        8.0185    5.9210   10.4657 O.2       1 RES1    0.0000
     18 N6         2.2238    8.9724   14.0053 N.pl3     1 RES1    0.0000
     19 C1         6.8300    7.7698   12.1019 C.3       1 RES1    0.0000
     20 H1         7.5193    7.3042   12.6380 H         1 RES1    0.0000
     21 H2         7.2957    8.3660   11.4633 H         1 RES1    0.0000
     22 C2         4.4583   10.0350   14.5775 C.3       1 RES1    0.0000
     23 H3         4.1222   10.8325   14.0965 H         1 RES1    0.0000
     24 H4         4.9877   10.3486   15.3532 H         1 RES1    0.0000
     25 C3         6.0007    8.5790   12.9917 C.1       1 RES1    0.0000
     26 C4         5.3257    9.2598   13.6815 C.1       1 RES1    0.0000
     27 C5         3.2857    9.2210   15.0716 C.3       1 RES1    0.0000
     28 C6         6.0333    6.7433   11.3259 C.3       1 RES1    0.0000
@<TRIPOS>BOND
     1    1   10 2
     2    2    4 2
     3    3   11 2
     4    4   17 2
     5    5   18 2
     6    6    8 2
     7    7   11 2
     8    8    9 2
     9   10   13 2
    10   11   27 1
    11   12   16 2
    12   14   16 2
    13   15   18 2
    14   16   28 1
    15   18   27 1
    16   19   20 1
    17   21   19 1
    18   22   23 1
    19   24   22 1
    20   25   19 1
    21   26   22 1
    22   27    8 1
    23   28    4 1
    24   10   28 1
    25   19   28 1
    26   22   27 1
    27   25   26 3
@<TRIPOS>SUBSTRUCTURE
     1 RES1 1

@<TRIPOS>CRYSIN
  12.9956   13.0433   15.1771  90.0000  90.0000  90.0000  61 1

