# MOL2 file generated by ConQuest
# Please check atom types

@<TRIPOS>MOLECULE
FINBIP
    14    13     1
SMALL
NO_CHARGES
****
Generated from CSD

@<TRIPOS>ATOM
      1 N1         0.9436    0.9222    7.3837 N.pl3     1 RES1    0.0000
      2 O1         0.4305    2.0255    7.4797 O.2       1 RES1    0.0000
      3 O2         2.0254    0.5818    7.8171 O.2       1 RES1    0.0000
      4 C1         1.0197   -1.0197    5.7884 C.3       1 RES1    0.0000
      5 C2         0.1653   -0.1653    6.6428 C.3       1 RES1    0.0000
      6 H1         0.4575   -1.5999    5.2940 H         1 RES1    0.0000
      7 N1DA      -0.5756   -0.9436    7.7303 N.pl3     1 RES1    0.0000
      8 O1DA      -0.6716   -0.4305    8.8336 O.2       1 RES1    0.0000
      9 O2DA      -1.0090   -2.0254    7.3899 O.2       1 RES1    0.0000
     10 H1DA       1.5141   -0.4575    5.2082 H         1 RES1    0.0000
     11 N1EA      -0.9222    0.5756    5.8645 N.pl3     1 RES1    0.0000
     12 O1EA      -2.0255    0.6716    6.3776 O.2       1 RES1    0.0000
     13 O2EA      -0.5818    1.0090    4.7827 O.2       1 RES1    0.0000
     14 H1EA       1.5999   -1.5141    6.3506 H         1 RES1    0.0000
@<TRIPOS>BOND
     1    1    2 2
     2    3    1 2
     3    4    5 1
     4    5    1 1
     5    6    4 1
     6    7    5 1
     7    8    7 2
     8    9    7 2
     9   10    4 1
    10   11    5 1
    11   12   11 2
    12   13   11 2
    13   14    4 1
@<TRIPOS>SUBSTRUCTURE
     1 RES1 1

@<TRIPOS>CRYSIN
  13.6162   13.6162   13.6162  90.0000  90.0000  90.0000 220 1

