# MOL2 file generated by ConQuest
# Please check atom types

@<TRIPOS>MOLECULE
FINJIW
    56    60     1
SMALL
NO_CHARGES
****
Generated from CSD

@<TRIPOS>ATOM
      1 O1         3.2300    7.4184    0.9421 O.2       1 RES1    0.0000
      2 O2         9.2390    6.4861    1.1104 O.2       1 RES1    0.0000
      3 O3         9.5480    8.6212    1.0605 O.2       1 RES1    0.0000
      4 N1         5.0959    3.1670    1.8816 N.3       1 RES1    0.0000
      5 N2         5.9131    3.4451    5.3692 N.2       1 RES1    0.0000
      6 N3         5.9160    2.7698    4.1621 N.pl3     1 RES1    0.0000
      7 N4         8.8958    7.6326    1.3739 N.pl3     1 RES1    0.0000
      8 C1         5.3656    3.5429    3.1885 C.2       1 RES1    0.0000
      9 C2         5.0247    4.7445    3.7372 C.2       1 RES1    0.0000
     10 C3         4.5040    5.8819    2.9041 C.3       1 RES1    0.0000
     11 H1         3.6733    6.2373    3.3318 H         1 RES1    0.0000
     12 C4         4.1506    5.3434    1.5178 C.2       1 RES1    0.0000
     13 C5         4.4170    4.0703    1.1028 C.2       1 RES1    0.0000
     14 C6         5.3760    4.6319    5.0970 C.2       1 RES1    0.0000
     15 C7         3.5028    6.2576    0.6091 C.2       1 RES1    0.0000
     16 C8         3.1825    5.7963   -0.7881 C.3       1 RES1    0.0000
     17 H2         3.9575    5.9869   -1.3727 H         1 RES1    0.0000
     18 H3         2.4124    6.3175   -1.1281 H         1 RES1    0.0000
     19 C9         2.8491    4.3044   -0.8798 C.3       1 RES1    0.0000
     20 C10        4.0134    3.5419   -0.2479 C.3       1 RES1    0.0000
     21 H4         3.7599    2.5895   -0.1553 H         1 RES1    0.0000
     22 H5         4.7938    3.5883   -0.8563 H         1 RES1    0.0000
     23 C11        6.4735    1.4655    4.0912 C.ar      1 RES1    0.0000
     24 C12        7.1763    1.0740    2.9678 C.ar      1 RES1    0.0000
     25 H6         7.2878    1.6724    2.2387 H         1 RES1    0.0000
     26 C13        7.7171   -0.2050    2.9177 C.ar      1 RES1    0.0000
     27 H7         8.1829   -0.4911    2.1397 H         1 RES1    0.0000
     28 C14        7.5817   -1.0608    3.9899 C.ar      1 RES1    0.0000
     29 H8         7.9657   -1.9297    3.9570 H         1 RES1    0.0000
     30 C15        6.8873   -0.6537    5.1096 C.ar      1 RES1    0.0000
     31 H9         6.7995   -1.2436    5.8501 H         1 RES1    0.0000
     32 C16        6.3201    0.6037    5.1643 C.ar      1 RES1    0.0000
     33 H10        5.8293    0.8756    5.9317 H         1 RES1    0.0000
     34 C17        5.5408    6.9989    2.8482 C.ar      1 RES1    0.0000
     35 C18        6.7108    6.8264    2.1278 C.ar      1 RES1    0.0000
     36 H11        6.8664    6.0215    1.6484 H         1 RES1    0.0000
     37 C19        7.6465    7.8390    2.1154 C.ar      1 RES1    0.0000
     38 C20        7.4876    9.0261    2.8022 C.ar      1 RES1    0.0000
     39 H12        8.1486    9.7065    2.7707 H         1 RES1    0.0000
     40 C21        6.3292    9.1852    3.5375 C.ar      1 RES1    0.0000
     41 H13        6.1870    9.9846    4.0308 H         1 RES1    0.0000
     42 C22        5.3738    8.1819    3.5575 C.ar      1 RES1    0.0000
     43 H14        4.5831    8.3067    4.0697 H         1 RES1    0.0000
     44 C23        5.2023    5.6409    6.1833 C.3       1 RES1    0.0000
     45 H15        5.5320    5.2703    7.0287 H         1 RES1    0.0000
     46 H16        4.2515    5.8638    6.2734 H         1 RES1    0.0000
     47 H17        5.7084    6.4503    5.9608 H         1 RES1    0.0000
     48 C24        1.5445    4.0122   -0.1410 C.3       1 RES1    0.0000
     49 H18        1.3377    3.0571   -0.2097 H         1 RES1    0.0000
     50 H19        0.8183    4.5330   -0.5417 H         1 RES1    0.0000
     51 H20        1.6415    4.2591    0.8019 H         1 RES1    0.0000
     52 C25        2.7010    3.8991   -2.3467 C.3       1 RES1    0.0000
     53 H21        2.4990    2.9423   -2.4018 H         1 RES1    0.0000
     54 H22        3.5377    4.0849   -2.8231 H         1 RES1    0.0000
     55 H23        1.9714    4.4113   -2.7552 H         1 RES1    0.0000
     56 H24        5.0633    2.3101    1.6368 H         1 RES1    0.0000
@<TRIPOS>BOND
     1    1   15 2
     2    2    7 2
     3    3    7 2
     4    4    8 1
     5    5    6 1
     6    6    8 1
     7    7   37 1
     8    8    9 2
     9    9   10 1
    10   10   11 1
    11   12   10 1
    12   13    4 1
    13   14    5 2
    14   15   12 1
    15   16   15 1
    16   17   16 1
    17   18   16 1
    18   19   16 1
    19   20   13 1
    20   21   20 1
    21   22   20 1
    22   23    6 1
    23   24   23 ar
    24   25   24 1
    25   26   24 ar
    26   27   26 1
    27   28   26 ar
    28   29   28 1
    29   30   28 ar
    30   31   30 1
    31   32   23 ar
    32   33   32 1
    33   34   10 1
    34   35   34 ar
    35   36   35 1
    36   37   35 ar
    37   38   37 ar
    38   39   38 1
    39   40   38 ar
    40   41   40 1
    41   42   34 ar
    42   43   42 1
    43   44   14 1
    44   45   44 1
    45   46   44 1
    46   47   44 1
    47   48   19 1
    48   49   48 1
    49   50   48 1
    50   51   48 1
    51   52   19 1
    52   53   52 1
    53   54   52 1
    54   55   52 1
    55   56    4 1
    56    9   14 1
    57   12   13 2
    58   19   20 1
    59   30   32 ar
    60   40   42 ar
@<TRIPOS>SUBSTRUCTURE
     1 RES1 1

@<TRIPOS>CRYSIN
  16.3331   13.8329   19.4163  90.0000  90.0000  90.0000  61 1

