# MOL2 file generated by ConQuest
# Please check atom types

@<TRIPOS>MOLECULE
FINMEU01
    36    37     1
SMALL
NO_CHARGES
****
Generated from CSD

@<TRIPOS>ATOM
      1 O1        -1.7289    2.2561   12.4709 O.2       1 RES1    0.0000
      2 O2        -0.1941    3.6120   13.3701 O.3       1 RES1    0.0000
      3 H1         0.2819    2.6861   13.5381 H         1 RES1    0.0000
      4 O3        -2.3203    7.6339   15.0651 O.2       1 RES1    0.0000
      5 O4        -3.5829    8.8105   13.7597 O.2       1 RES1    0.0000
      6 O5        -4.3456    7.2122    9.2891 O.2       1 RES1    0.0000
      7 O6        -4.5035    5.0713    9.0070 O.2       1 RES1    0.0000
      8 O7        -4.9005    3.1463   11.5031 O.2       1 RES1    0.0000
      9 O8        -4.9051    1.0549   10.9932 O.2       1 RES1    0.0000
     10 O9        -2.0298   -0.5764    7.5342 O.2       1 RES1    0.0000
     11 O10       -0.3362    0.6057    6.9220 O.2       1 RES1    0.0000
     12 O11        0.6543    4.6336    9.8927 O.3       1 RES1    0.0000
     13 H2         1.2000    5.5068    9.9681 H         1 RES1    0.0000
     14 O12       -0.9835    6.0079    9.2134 O.2       1 RES1    0.0000
     15 N1        -2.9221    7.8142   14.0166 N.pl3     1 RES1    0.0000
     16 N2        -4.1590    6.0530    9.6371 N.pl3     1 RES1    0.0000
     17 N3        -4.4492    2.1848   10.9128 N.pl3     1 RES1    0.0000
     18 N4        -1.3579    0.4373    7.5668 N.pl3     1 RES1    0.0000
     19 C1        -1.3019    3.3769   12.7356 C.2       1 RES1    0.0000
     20 C2        -2.0697    4.5992   12.3700 C.ar      1 RES1    0.0000
     21 C3        -2.0914    5.6404   13.2840 C.ar      1 RES1    0.0000
     22 H3        -1.5973    5.5827   14.0937 H         1 RES1    0.0000
     23 C4        -2.8383    6.7538   13.0002 C.ar      1 RES1    0.0000
     24 C5        -3.5295    6.8929   11.8142 C.ar      1 RES1    0.0000
     25 H4        -4.0285    7.6788   11.6242 H         1 RES1    0.0000
     26 C6        -3.4701    5.8517   10.9186 C.ar      1 RES1    0.0000
     27 C7        -2.7770    4.6642   11.1625 C.ar      1 RES1    0.0000
     28 C8        -2.5536    3.5837   10.1453 C.ar      1 RES1    0.0000
     29 C9        -3.2800    2.3961   10.0492 C.ar      1 RES1    0.0000
     30 C10       -2.9148    1.3605    9.2250 C.ar      1 RES1    0.0000
     31 H5        -3.4266    0.5617    9.1836 H         1 RES1    0.0000
     32 C11       -1.7748    1.5206    8.4565 C.ar      1 RES1    0.0000
     33 C12       -1.0081    2.6560    8.5192 C.ar      1 RES1    0.0000
     34 H6        -0.2220    2.7410    7.9916 H         1 RES1    0.0000
     35 C13       -1.4068    3.6806    9.3706 C.ar      1 RES1    0.0000
     36 C14       -0.5442    4.8837    9.4729 C.2       1 RES1    0.0000
@<TRIPOS>BOND
     1    1   19 2
     2    2    3 1
     3    4   15 2
     4    5   15 2
     5    6   16 2
     6    7   16 2
     7    8   17 2
     8    9   17 2
     9   10   18 2
    10   11   18 2
    11   12   13 1
    12   14   36 2
    13   15   23 1
    14   16   26 1
    15   17   29 1
    16   18   32 1
    17   19    2 1
    18   20   19 1
    19   21   20 ar
    20   22   21 1
    21   23   21 ar
    22   24   23 ar
    23   25   24 1
    24   26   24 ar
    25   27   20 ar
    26   28   27 1
    27   29   28 ar
    28   30   29 ar
    29   31   30 1
    30   32   30 ar
    31   33   32 ar
    32   34   33 1
    33   35   28 ar
    34   36   12 1
    35   26   27 ar
    36   33   35 ar
    37   35   36 1
@<TRIPOS>SUBSTRUCTURE
     1 RES1 1

@<TRIPOS>CRYSIN
  11.7040    9.1490   17.0830  90.0000 116.6900  90.0000  14 1

