# MOL2 file generated by ConQuest
# Please check atom types

@<TRIPOS>MOLECULE
FINMAQ
    24    25     1
SMALL
NO_CHARGES
****
Generated from CSD

@<TRIPOS>ATOM
      1 O1         7.0394    0.8530    6.7619 O.2       1 RES1    0.0000
      2 O2         5.5617    1.1767    5.2307 O.2       1 RES1    0.0000
      3 O3         1.6801    3.8254    6.1973 O.2       1 RES1    0.0000
      4 O4         1.8324    5.4068    7.6428 O.2       1 RES1    0.0000
      5 O5        12.4188    2.9407    9.2802 O.2       1 RES1    0.0000
      6 O6        11.8384    1.3911   10.6059 O.2       1 RES1    0.0000
      7 O7         7.3385    0.1312   11.1412 O.co2     1 RES1    0.0000
      8 O8         5.6585    1.1691   10.1294 O.co2     1 RES1    0.0000
      9 N1         6.0665    1.4326    6.3125 N.pl3     1 RES1    0.0000
     10 N2         2.2761    4.4291    7.0646 N.pl3     1 RES1    0.0000
     11 N3        11.5760    2.2452    9.7861 N.pl3     1 RES1    0.0000
     12 C1         7.5454    2.7559    8.6184 C.ar      1 RES1    0.0000
     13 C2         8.5483    3.5301    8.0493 C.ar      1 RES1    0.0000
     14 C3         9.8737    3.3716    8.4129 C.ar      1 RES1    0.0000
     15 C4        10.1717    2.4365    9.3750 C.ar      1 RES1    0.0000
     16 C5         9.2121    1.6688    9.9916 C.ar      1 RES1    0.0000
     17 C6         7.8767    1.8285    9.6144 C.ar      1 RES1    0.0000
     18 C7         6.1344    3.0697    8.1984 C.ar      1 RES1    0.0000
     19 C8         5.4928    4.0933    8.8827 C.ar      1 RES1    0.0000
     20 C9         4.2319    4.5352    8.5304 C.ar      1 RES1    0.0000
     21 C10        3.6170    3.9424    7.4576 C.ar      1 RES1    0.0000
     22 C11        4.1996    2.9319    6.7348 C.ar      1 RES1    0.0000
     23 C12        5.4617    2.5065    7.1211 C.ar      1 RES1    0.0000
     24 C13        6.8549    1.0116   10.3168 C.2       1 RES1    0.0000
@<TRIPOS>BOND
     1    1    9 2
     2    2    9 2
     3    3   10 2
     4    4   10 2
     5    5   11 2
     6    6   11 2
     7    7   24 1
     8    8   24 2
     9    9   23 1
    10   10   21 1
    11   11   15 1
    12   12   13 ar
    13   13   14 ar
    14   14   15 ar
    15   15   16 ar
    16   16   17 ar
    17   17   12 ar
    18   18   12 1
    19   19   18 ar
    20   20   19 ar
    21   21   20 ar
    22   22   21 ar
    23   23   18 ar
    24   24   17 1
    25   22   23 ar
@<TRIPOS>SUBSTRUCTURE
     1 RES1 1

@<TRIPOS>CRYSIN
  11.1190   10.9360   22.5850  90.0000  90.0000  90.0000  61 1

