# MOL2 file generated by ConQuest
# Please check atom types

@<TRIPOS>MOLECULE
FINMEU
    30    31     1
SMALL
NO_CHARGES
****
Generated from CSD

@<TRIPOS>ATOM
      1 O1         2.8183    3.8668    5.9883 O.2       1 RES1    0.0000
      2 O2         2.7961    4.4271    8.0428 O.2       1 RES1    0.0000
      3 O3         5.7396    7.8187    9.6786 O.2       1 RES1    0.0000
      4 O4         7.4378    8.4162    8.4908 O.2       1 RES1    0.0000
      5 O5         4.0907    1.5851    0.3366 O.2       1 RES1    0.0000
      6 O6         5.3317    0.2632    1.4898 O.2       1 RES1    0.0000
      7 O7         7.5076    1.9566    5.5139 O.co2     1 RES1    0.0000
      8 O8         5.9803    2.8482    6.8596 O.co2     1 RES1    0.0000
      9 N1         3.2664    4.4782    6.9262 N.pl3     1 RES1    0.0000
     10 N2         6.4128    7.7862    8.6659 N.pl3     1 RES1    0.0000
     11 N3         4.7372    1.3127    1.3237 N.pl3     1 RES1    0.0000
     12 C1         4.9479    4.1779    4.4584 C.ar      1 RES1    0.0000
     13 C2         4.2476    4.4256    3.2797 C.ar      1 RES1    0.0000
     14 C3         4.1674    3.5262    2.2351 C.ar      1 RES1    0.0000
     15 C4         4.8379    2.3405    2.3857 C.ar      1 RES1    0.0000
     16 C5         5.5907    2.0417    3.4841 C.ar      1 RES1    0.0000
     17 C6         5.6285    2.9628    4.5250 C.ar      1 RES1    0.0000
     18 C7         5.1815    5.1996    5.5349 C.ar      1 RES1    0.0000
     19 C8         6.3444    5.9704    5.4337 C.ar      1 RES1    0.0000
     20 C9         6.7444    6.8141    6.4582 C.ar      1 RES1    0.0000
     21 C10        5.9782    6.8899    7.5794 C.ar      1 RES1    0.0000
     22 C11        4.8264    6.1485    7.7427 C.ar      1 RES1    0.0000
     23 C12        4.4563    5.3172    6.7100 C.ar      1 RES1    0.0000
     24 C13        6.4087    2.5866    5.7393 C.2       1 RES1    0.0000
     25 O9         3.2463    6.3559    4.0616 O.2       1 RES1    0.0000
     26 O10        3.3423    6.0540    1.9268 O.2       1 RES1    0.0000
     27 O11        6.7652    6.0881    3.1064 O.co2     1 RES1    0.0000
     28 O12        8.4063    5.4426    4.4739 O.co2     1 RES1    0.0000
     29 N4         3.5588    5.7166    3.0708 N.pl3     1 RES1    0.0000
     30 C14        7.2081    5.8342    4.2276 C.2       1 RES1    0.0000
@<TRIPOS>BOND
     1    1    9 2
     2    2    9 2
     3    3   10 2
     4    4   10 2
     5    5   11 2
     6    6   11 2
     7    7   24 1
     8    8   24 2
     9    9   23 1
    10   10   21 1
    11   11   15 1
    12   12   13 ar
    13   13   14 ar
    14   14   15 ar
    15   15   16 ar
    16   16   17 ar
    17   17   12 ar
    18   18   12 1
    19   19   18 ar
    20   20   19 ar
    21   21   20 ar
    22   22   21 ar
    23   23   18 ar
    24   24   17 1
    25   25   29 2
    26   26   29 2
    27   27   30 1
    28   28   30 2
    29   29   13 1
    30   30   19 1
    31   22   23 ar
@<TRIPOS>SUBSTRUCTURE
     1 RES1 1

