# MOL2 file generated by ConQuest
# Please check atom types

@<TRIPOS>MOLECULE
FINVIK
    43    45     1
SMALL
NO_CHARGES
****
Generated from CSD

@<TRIPOS>ATOM
      1 O1         8.6698    8.5206   14.3328 O.3       1 RES1    0.0000
      2 O2         6.4437    7.1746   13.8394 O.3       1 RES1    0.0000
      3 O3        10.1002    9.5921   12.3619 O.3       1 RES1    0.0000
      4 O4         6.0422    6.5320    5.2154 O.3       1 RES1    0.0000
      5 N1         6.9644    7.9927    9.0770 N.3       1 RES1    0.0000
      6 N2         4.1666    7.5503    6.7725 N.ar      1 RES1    0.0000
      7 C1         8.2374    8.3692   13.0151 C.ar      1 RES1    0.0000
      8 C2         7.0718    7.6893   12.7536 C.ar      1 RES1    0.0000
      9 N3         3.3610    8.6135    8.7481 N.ar      1 RES1    0.0000
     10 C3         8.9575    8.9320   11.9910 C.ar      1 RES1    0.0000
     11 O5         5.8675    5.7528    2.7596 O.2       1 RES1    0.0000
     12 C4         6.3781    6.7291    6.5354 C.2       1 RES1    0.0000
     13 C5         5.6543    7.9765    8.5989 C.ar      1 RES1    0.0000
     14 C6         7.3272    8.1560   10.4344 C.ar      1 RES1    0.0000
     15 O6         7.8981    5.0115    2.7906 O.2       1 RES1    0.0000
     16 C7         5.3979    7.4241    7.3250 C.ar      1 RES1    0.0000
     17 C8         6.6086    7.5758   11.4413 C.ar      1 RES1    0.0000
     18 C9         8.5008    8.8359   10.6861 C.ar      1 RES1    0.0000
     19 N4         6.9263    5.5246    3.3182 N.pl3     1 RES1    0.0000
     20 C10        9.5551    7.4797   14.7349 C.3       1 RES1    0.0000
     21 H1        10.1044    7.2214   13.9902 H         1 RES1    0.0000
     22 H2         9.0455    6.7245   15.0356 H         1 RES1    0.0000
     23 H3        10.1138    7.7935   15.4504 H         1 RES1    0.0000
     24 C11        7.0518    5.8350    4.6939 C.2       1 RES1    0.0000
     25 C12        7.5630    6.1188    6.7744 C.2       1 RES1    0.0000
     26 H4         8.0028    6.0875    7.5929 H         1 RES1    0.0000
     27 C13        4.5918    8.5197    9.2624 C.ar      1 RES1    0.0000
     28 C14       10.9676   10.0694   11.3476 C.3       1 RES1    0.0000
     29 H5        11.1668    9.3571   10.7350 H         1 RES1    0.0000
     30 H6        11.7816   10.3856   11.7462 H         1 RES1    0.0000
     31 H7        10.5418   10.7886   10.8752 H         1 RES1    0.0000
     32 C15        3.2449    8.1317    7.4985 C.ar      1 RES1    0.0000
     33 C16        5.2253    6.4732   13.6358 C.3       1 RES1    0.0000
     34 H8         5.3741    5.7424   13.0319 H         1 RES1    0.0000
     35 H9         4.5718    7.0697   13.2622 H         1 RES1    0.0000
     36 H10        4.9066    6.1350   14.4764 H         1 RES1    0.0000
     37 C17        8.0181    5.5350    5.5695 C.2       1 RES1    0.0000
     38 H11        8.8026    5.0567    5.4204 H         1 RES1    0.0000
     39 H12        7.5053    8.1769    8.5826 H         1 RES1    0.0000
     40 H13        5.8491    7.0882   11.2485 H         1 RES1    0.0000
     41 H14        4.6745    8.9645   10.1901 H         1 RES1    0.0000
     42 H15        2.2940    8.1885    7.1152 H         1 RES1    0.0000
     43 H16        8.9773    9.1498   10.0271 H         1 RES1    0.0000
@<TRIPOS>BOND
     1    1    7 1
     2    2    8 1
     3    3   10 1
     4    4   12 1
     5    5   13 1
     6    6   16 ar
     7    7    8 ar
     8    8   17 ar
     9    9   27 ar
    10   10    7 ar
    11   11   19 2
    12   12   16 1
    13   13   16 ar
    14   14    5 1
    15   15   19 2
    16   17   14 ar
    17   18   10 ar
    18   19   24 1
    19   20    1 1
    20   21   20 1
    21   22   20 1
    22   23   20 1
    23   24    4 1
    24   25   12 2
    25   26   25 1
    26   27   13 ar
    27   28    3 1
    28   29   28 1
    29   30   28 1
    30   31   28 1
    31   32    6 ar
    32   33    2 1
    33   34   33 1
    34   35   33 1
    35   36   33 1
    36   37   24 2
    37   38   37 1
    38   39    5 1
    39   40   17 1
    40   41   27 1
    41   42   32 1
    42   43   18 1
    43    9   32 ar
    44   14   18 ar
    45   25   37 1
@<TRIPOS>SUBSTRUCTURE
     1 RES1 1

@<TRIPOS>CRYSIN
  10.1120   11.5820   14.3650  90.0000  95.3700  90.0000  14 1

