# MOL2 file generated by ConQuest
# Please check atom types

@<TRIPOS>MOLECULE
FIPNUP
    39    41     1
SMALL
NO_CHARGES
****
Generated from CSD

@<TRIPOS>ATOM
      1 C1         3.5596    8.3646   23.7286 C.3       1 RES1    0.0000
      2 H1         2.6739    8.4243   23.2692 H         1 RES1    0.0000
      3 O1         3.7614    9.5790   24.4457 O.3       1 RES1    0.0000
      4 C2         3.9035   10.6921   23.5443 C.3       1 RES1    0.0000
      5 H2         3.1775   10.6499   22.8596 H         1 RES1    0.0000
      6 C3         5.2514   10.5781   22.8456 C.3       1 RES1    0.0000
      7 H3         5.3249   11.2789   22.1508 H         1 RES1    0.0000
      8 H4         5.9785   10.7192   23.5036 H         1 RES1    0.0000
      9 C4         6.3349    9.0222   21.1678 C.ar      1 RES1    0.0000
     10 H5         6.8571    9.7518   20.8547 H         1 RES1    0.0000
     11 C5         6.4879    7.7606   20.5979 C.ar      1 RES1    0.0000
     12 C6         5.7165    6.6891   21.0587 C.ar      1 RES1    0.0000
     13 H6         5.8238    5.8262   20.6741 H         1 RES1    0.0000
     14 C7         4.7957    6.8862   22.0735 C.ar      1 RES1    0.0000
     15 H7         4.2697    6.1553   22.3772 H         1 RES1    0.0000
     16 C8         4.6269    8.1466   22.6618 C.ar      1 RES1    0.0000
     17 C9         5.4053    9.2156   22.2072 C.ar      1 RES1    0.0000
     18 C10        3.4910    7.2267   24.7195 C.ar      1 RES1    0.0000
     19 C11        2.5123    6.2536   24.5594 C.ar      1 RES1    0.0000
     20 H8         1.8677    6.3239   23.8647 H         1 RES1    0.0000
     21 C12        2.4947    5.1744   25.4357 C.ar      1 RES1    0.0000
     22 C13        3.4046    5.0254   26.4703 C.ar      1 RES1    0.0000
     23 H9         3.3702    4.2732   27.0499 H         1 RES1    0.0000
     24 C14        4.3718    6.0159   26.6322 C.ar      1 RES1    0.0000
     25 H10        5.0020    5.9494   27.3409 H         1 RES1    0.0000
     26 C15        4.4196    7.1039   25.7610 C.ar      1 RES1    0.0000
     27 H11        5.0889    7.7683   25.8750 H         1 RES1    0.0000
     28 N1         1.4609    4.1475   25.2334 N.pl3     1 RES1    0.0000
     29 O2         0.8085    4.1794   24.1894 O.2       1 RES1    0.0000
     30 O3         1.3005    3.3076   26.1162 O.2       1 RES1    0.0000
     31 C16        3.7405   11.9583   24.3578 C.3       1 RES1    0.0000
     32 H12        4.4431   12.0011   25.0396 H         1 RES1    0.0000
     33 H13        2.8624   11.9566   24.7917 H         1 RES1    0.0000
     34 H14        3.8108   12.7368   23.7677 H         1 RES1    0.0000
     35 O4         7.3528    7.4577   19.5790 O.3       1 RES1    0.0000
     36 C17        8.2211    8.5003   19.1306 C.3       1 RES1    0.0000
     37 H15        8.7758    8.8071   19.8765 H         1 RES1    0.0000
     38 H16        7.6857    9.2479   18.7932 H         1 RES1    0.0000
     39 H17        8.7972    8.1604   18.4132 H         1 RES1    0.0000
@<TRIPOS>BOND
     1    1    2 1
     2    3    1 1
     3    4    3 1
     4    5    4 1
     5    6    4 1
     6    7    6 1
     7    8    6 1
     8    9   10 1
     9   11    9 ar
    10   12   11 ar
    11   13   12 1
    12   14   12 ar
    13   15   14 1
    14   16    1 1
    15   17    6 1
    16   18    1 1
    17   19   18 ar
    18   20   19 1
    19   21   19 ar
    20   22   21 ar
    21   23   22 1
    22   24   22 ar
    23   25   24 1
    24   26   18 ar
    25   27   26 1
    26   28   21 1
    27   29   28 2
    28   30   28 2
    29   31    4 1
    30   32   31 1
    31   33   31 1
    32   34   31 1
    33   35   11 1
    34   36   35 1
    35   37   36 1
    36   38   36 1
    37   39   36 1
    38    9   17 ar
    39   14   16 ar
    40   16   17 ar
    41   24   26 ar
@<TRIPOS>SUBSTRUCTURE
     1 RES1 1

@<TRIPOS>CRYSIN
   5.2082   10.3467   26.9475  90.0000  90.0000  90.0000  19 1

