# MOL2 file generated by ConQuest
# Please check atom types

@<TRIPOS>MOLECULE
FIPZIN
    30    29     1
SMALL
USER_CHARGES
****
Generated from CSD

@<TRIPOS>ATOM
      1 O1         2.8602    5.1376   11.9050 O.2       1 RES1    0.0000
      2 O2         2.2959    5.9848    9.9849 O.2       1 RES1    0.0000
      3 O3         0.6538    2.1605    8.8252 O.2       1 RES1    0.0000
      4 O4        -0.6285    3.4176    7.5952 O.2       1 RES1    0.0000
      5 O5         3.2256    4.4586    5.7978 O.2       1 RES1    0.0000
      6 O6         2.0858    4.3690    3.9489 O.2       1 RES1    0.0000
      7 N1         2.6591    3.8150   10.1322 N.3       1 RES1    0.0000
      8 N2         1.4388    4.0621    8.0352 N.3       1 RES1    0.0000
      9 N3         1.0821    4.9819    5.8165 N.3       1 RES1    0.0000
     10 N4         2.6120    5.0459   10.7047 N.pl3     1 RES1    0.0000
     11 N5         0.4245    3.1590    8.1578 N.pl3     1 RES1    0.0000
     12 N6         2.1982    4.5859    5.1442 N.pl3     1 RES1    0.0000
     13 N7         4.4236    2.2833   10.8490 N.2       1 RES1    0.0000
     14 N8         5.2385    3.0593   11.3167 N.1       1 RES1    1.0000
     15 N9         6.1120    3.6735   11.6756 N.2       1 RES1   -1.0000
     16 N10       -0.1680    6.2652    4.1743 N.2       1 RES1    0.0000
     17 N11       -0.0220    7.3507    4.7013 N.1       1 RES1    1.0000
     18 N12        0.1134    8.4188    5.0345 N.2       1 RES1   -1.0000
     19 C1         3.0082    2.6644   10.9499 C.3       1 RES1    0.0000
     20 C2         2.6980    3.7493    8.6719 C.3       1 RES1    0.0000
     21 C3         1.2083    5.2484    7.2373 C.3       1 RES1    0.0000
     22 C4        -0.1502    5.1198    5.0721 C.3       1 RES1    0.0000
     23 H1         2.5115    1.9108   10.6078 H         1 RES1    0.0000
     24 H2         2.7207    2.8277   11.8674 H         1 RES1    0.0000
     25 H3         2.9968    2.8579    8.4495 H         1 RES1    0.0000
     26 H4         3.3128    4.3642    8.3545 H         1 RES1    0.0000
     27 H5         0.3947    5.7121    7.5092 H         1 RES1    0.0000
     28 H6         1.9730    5.8687    7.3836 H         1 RES1    0.0000
     29 H7        -0.2584    4.3122    4.4927 H         1 RES1    0.0000
     30 H8        -0.8521    5.1862    5.7543 H         1 RES1    0.0000
@<TRIPOS>BOND
     1    1   10 2
     2    2   10 2
     3    3   11 2
     4    4   11 2
     5    5   12 2
     6    6   12 2
     7    7   10 1
     8    8   11 1
     9    9   12 1
    10   13   14 2
    11   14   15 2
    12   16   17 2
    13   17   18 2
    14   19    7 1
    15   20    7 1
    16   21    8 1
    17   22    9 1
    18   23   19 1
    19   24   19 1
    20   25   20 1
    21   26   20 1
    22   27   21 1
    23   28   21 1
    24   29   22 1
    25   30   22 1
    26    8   20 1
    27    9   21 1
    28   13   19 1
    29   16   22 1
@<TRIPOS>SUBSTRUCTURE
     1 RES1 1

@<TRIPOS>CRYSIN
   6.4070    9.7930   10.8010 109.5200 102.1900  92.2700   2 1

