# MOL2 file generated by ConQuest
# Please check atom types

@<TRIPOS>MOLECULE
FIQMUP
    44    46     1
SMALL
NO_CHARGES
****
Generated from CSD

@<TRIPOS>ATOM
      1 O1         4.8091    3.0571    2.6395 O.3       1 RES1    0.0000
      2 O2         7.0269    2.9587    3.3299 O.3       1 RES1    0.0000
      3 N1         9.2706    0.4804   -4.1968 N.pl3     1 RES1    0.0000
      4 O3        12.4165    2.0643   -0.7335 O.2       1 RES1    0.0000
      5 O4        11.2392    3.0436    0.7593 O.2       1 RES1    0.0000
      6 O5         9.0497    4.1793   -0.0298 O.3       1 RES1    0.0000
      7 C1        10.2923    1.6063   -2.2785 C.ar      1 RES1    0.0000
      8 H1        11.0660    1.1106   -2.4196 H         1 RES1    0.0000
      9 C2         9.0648    3.2606   -1.0256 C.ar      1 RES1    0.0000
     10 C3        10.2189    2.4935   -1.2356 C.ar      1 RES1    0.0000
     11 C4         9.2137    1.4573   -3.1127 C.ar      1 RES1    0.0000
     12 C5         7.0611    4.2895    1.2867 C.ar      1 RES1    0.0000
     13 C6         8.0534    2.1820   -2.9196 C.ar      1 RES1    0.0000
     14 H2         7.3258    2.0683   -3.4881 H         1 RES1    0.0000
     15 C7         7.9893    3.0700   -1.8814 C.ar      1 RES1    0.0000
     16 H3         7.2080    3.5560   -1.7452 H         1 RES1    0.0000
     17 C8         7.8234    4.8180    0.2623 C.ar      1 RES1    0.0000
     18 O6        10.2573   -0.2194   -4.2841 O.2       1 RES1    0.0000
     19 C9         5.8798    4.9661    1.5844 C.ar      1 RES1    0.0000
     20 C10        7.5083    3.0428    1.9942 C.3       1 RES1    0.0000
     21 H4         7.1984    2.2693    1.4973 H         1 RES1    0.0000
     22 H5         8.4786    3.0172    2.0053 H         1 RES1    0.0000
     23 C11        4.9035    4.4793    2.6139 C.3       1 RES1    0.0000
     24 H6         5.1787    4.7956    3.4881 H         1 RES1    0.0000
     25 H7         4.0279    4.8532    2.4241 H         1 RES1    0.0000
     26 N2         6.3486    6.6172   -0.1075 N.ar      1 RES1    0.0000
     27 C12        5.5948    6.1016    0.8486 C.ar      1 RES1    0.0000
     28 H8         4.8002    6.5428    1.0440 H         1 RES1    0.0000
     29 C13        5.7315    2.3894    3.4904 C.3       1 RES1    0.0000
     30 C14        7.4782    5.9702   -0.4198 C.ar      1 RES1    0.0000
     31 C15        8.3160    6.5348   -1.5275 C.3       1 RES1    0.0000
     32 H9         7.9823    6.2233   -2.3716 H         1 RES1    0.0000
     33 H10        9.2258    6.2481   -1.4180 H         1 RES1    0.0000
     34 H11        8.2778    7.4932   -1.5018 H         1 RES1    0.0000
     35 C16        5.6591    0.9353    3.0851 C.3       1 RES1    0.0000
     36 H12        4.7790    0.5965    3.2671 H         1 RES1    0.0000
     37 H13        6.3063    0.4316    3.5853 H         1 RES1    0.0000
     38 H14        5.8468    0.8544    2.1471 H         1 RES1    0.0000
     39 C17        5.4112    2.5751    4.9598 C.3       1 RES1    0.0000
     40 H15        5.4702    3.5064    5.1842 H         1 RES1    0.0000
     41 H16        6.0379    2.0779    5.4890 H         1 RES1    0.0000
     42 H17        4.5222    2.2589    5.1362 H         1 RES1    0.0000
     43 N3        11.3757    2.5495   -0.3441 N.pl3     1 RES1    0.0000
     44 O7         8.3185    0.4036   -4.9529 O.2       1 RES1    0.0000
@<TRIPOS>BOND
     1    1   23 1
     2    2   20 1
     3    3   11 1
     4    4   43 2
     5    5   43 2
     6    6    9 1
     7    7    8 1
     8    9   10 ar
     9   10    7 ar
    10   11    7 ar
    11   12   17 ar
    12   13   11 ar
    13   14   13 1
    14   15    9 ar
    15   16   15 1
    16   17    6 1
    17   18    3 2
    18   19   12 ar
    19   20   12 1
    20   21   20 1
    21   22   20 1
    22   23   19 1
    23   24   23 1
    24   25   23 1
    25   26   27 ar
    26   27   19 ar
    27   28   27 1
    28   29    1 1
    29   30   17 ar
    30   31   30 1
    31   32   31 1
    32   33   31 1
    33   34   31 1
    34   35   29 1
    35   36   35 1
    36   37   35 1
    37   38   35 1
    38   39   29 1
    39   40   39 1
    40   41   39 1
    41   42   39 1
    42   43   10 1
    43   44    3 2
    44    2   29 1
    45   13   15 ar
    46   26   30 ar
@<TRIPOS>SUBSTRUCTURE
     1 RES1 1

@<TRIPOS>CRYSIN
  19.3090    8.0073   11.1656  90.0000  90.0000  90.0000  29 1

