# MOL2 file generated by ConQuest
# Please check atom types

@<TRIPOS>MOLECULE
FIQSAB
    28    31     1
SMALL
NO_CHARGES
****
Generated from CSD

@<TRIPOS>ATOM
      1 O1        12.4005    0.4413    7.4129 O.2       1 RES1    0.0000
      2 C1        11.4464   -0.0488    8.0482 C.2       1 RES1    0.0000
      3 C2        11.7649   -0.9132    9.1916 C.2       1 RES1    0.0000
      4 C3        10.8353   -1.4704    9.9549 C.2       1 RES1    0.0000
      5 C4         9.4617   -1.2137    9.6550 C.2       1 RES1    0.0000
      6 N1         8.4480   -1.6873   10.3419 N.2       1 RES1    0.0000
      7 O2         7.3151   -1.1707    9.6957 O.3       1 RES1    0.0000
      8 C5         7.7061   -0.4131    8.6471 C.2       1 RES1    0.0000
      9 C6         9.0525   -0.4007    8.5555 C.2       1 RES1    0.0000
     10 C7        10.0495    0.2061    7.6830 C.2       1 RES1    0.0000
     11 C8         9.7909    0.9885    6.5742 C.2       1 RES1    0.0000
     12 N2        10.7689    1.5300    5.7943 N.3       1 RES1    0.0000
     13 C9        10.2264    2.2792    4.7456 C.ar      1 RES1    0.0000
     14 C10       10.9066    2.9655    3.7617 C.ar      1 RES1    0.0000
     15 C11       10.1310    3.6452    2.8407 C.ar      1 RES1    0.0000
     16 C12        8.7483    3.6428    2.8933 C.ar      1 RES1    0.0000
     17 C13        8.0880    2.9490    3.8841 C.ar      1 RES1    0.0000
     18 C14        8.8469    2.2544    4.8123 C.ar      1 RES1    0.0000
     19 C15        8.4777    1.4323    5.9543 C.2       1 RES1    0.0000
     20 O3         7.3549    1.1342    6.3372 O.2       1 RES1    0.0000
     21 H1        12.6881   -1.0349    9.3539 H         1 RES1    0.0000
     22 H2        11.0244   -2.0532   10.6726 H         1 RES1    0.0000
     23 H3         6.9784    0.0248    8.0845 H         1 RES1    0.0000
     24 H4        11.7429    1.3164    6.0511 H         1 RES1    0.0000
     25 H5        11.8853    2.9722    3.7075 H         1 RES1    0.0000
     26 H6        10.5777    4.1726    2.2039 H         1 RES1    0.0000
     27 H7         8.2861    4.1726    2.2286 H         1 RES1    0.0000
     28 H8         7.1079    2.9308    3.9498 H         1 RES1    0.0000
@<TRIPOS>BOND
     1    1    2 2
     2    2    3 1
     3    3    4 2
     4    4    5 1
     5    5    6 2
     6    6    7 1
     7    7    8 1
     8    8    9 2
     9    9    5 1
    10   10    2 1
    11   11   10 2
    12   12   11 1
    13   13   12 1
    14   14   13 ar
    15   15   14 ar
    16   16   15 ar
    17   17   16 ar
    18   18   13 ar
    19   19   11 1
    20   20   19 2
    21   21    3 1
    22   22    4 1
    23   23    8 1
    24   24   12 1
    25   25   14 1
    26   26   15 1
    27   27   16 1
    28   28   17 1
    29    9   10 1
    30   17   18 ar
    31   18   19 1
@<TRIPOS>SUBSTRUCTURE
     1 RES1 1

@<TRIPOS>CRYSIN
  12.9470    8.2790   20.5400  90.0000  90.0000  90.0000  61 1

