# MOL2 file generated by ConQuest
# Please check atom types

@<TRIPOS>MOLECULE
FISNOM
    34    35     1
SMALL
NO_CHARGES
****
Generated from CSD

@<TRIPOS>ATOM
      1 N1         4.7116    4.5335    3.2754 N.2       1 RES1    0.0000
      2 O1         4.5973    3.2704    3.9739 O.3       1 RES1    0.0000
      3 C1         4.1491    2.3121    3.1359 C.2       1 RES1    0.0000
      4 C2         3.9435    2.8941    1.9187 C.2       1 RES1    0.0000
      5 C3         4.3157    4.2323    2.0750 C.2       1 RES1    0.0000
      6 C4         4.1031    5.0027    0.7999 C.3       1 RES1    0.0000
      7 H1         4.9067    5.3546    0.4501 H         1 RES1    0.0000
      8 N2         3.7093    3.8816   -0.1154 N.am      1 RES1    0.0000
      9 C5         3.5490    2.6316    0.5439 C.2       1 RES1    0.0000
     10 O2         3.1448    1.6003    0.0469 O.2       1 RES1    0.0000
     11 C6         4.0237    0.9444    3.6689 C.3       1 RES1    0.0000
     12 H2         3.4222    0.4185    3.1350 H         1 RES1    0.0000
     13 H3         4.8092    0.4946    3.6735 H         1 RES1    0.0000
     14 H4         3.5267    0.8750    4.4813 H         1 RES1    0.0000
     15 C7         3.0402    6.1088    0.9213 C.3       1 RES1    0.0000
     16 H5         2.8994    6.4578    0.0346 H         1 RES1    0.0000
     17 C8         3.5797    7.2377    1.7929 C.3       1 RES1    0.0000
     18 H6         4.4886    7.6277    1.5348 H         1 RES1    0.0000
     19 H7         2.9203    8.0081    1.8387 H         1 RES1    0.0000
     20 H8         3.7358    6.9524    2.7349 H         1 RES1    0.0000
     21 C9         1.7125    5.5933    1.4557 C.3       1 RES1    0.0000
     22 H9         1.3661    4.8695    0.9116 H         1 RES1    0.0000
     23 H10        1.7912    5.2214    2.4214 H         1 RES1    0.0000
     24 H11        1.0246    6.3437    1.5444 H         1 RES1    0.0000
     25 C10        3.8634    4.0973   -1.4992 C.2       1 RES1    0.0000
     26 O3         4.0390    5.2426   -1.8841 O.2       1 RES1    0.0000
     27 C11        3.8710    2.9379   -2.4103 C.2       1 RES1    0.0000
     28 H12        3.7079    2.0543   -2.0599 H         1 RES1    0.0000
     29 C12        4.1136    3.1110   -3.7037 C.2       1 RES1    0.0000
     30 H13        4.2516    4.0136   -4.0389 H         1 RES1    0.0000
     31 C13        4.2174    2.0096   -4.6965 C.3       1 RES1    0.0000
     32 H14        3.6034    2.1494   -5.3795 H         1 RES1    0.0000
     33 H15        5.1298    1.9782   -5.0833 H         1 RES1    0.0000
     34 H16        4.0564    1.1033   -4.2774 H         1 RES1    0.0000
@<TRIPOS>BOND
     1    1    2 1
     2    2    3 1
     3    3    4 2
     4    4    5 1
     5    5    1 2
     6    6    5 1
     7    7    6 1
     8    8    6 1
     9    9    4 1
    10   10    9 2
    11   11    3 1
    12   12   11 1
    13   13   11 1
    14   14   11 1
    15   15    6 1
    16   16   15 1
    17   17   15 1
    18   18   17 1
    19   19   17 1
    20   20   17 1
    21   21   15 1
    22   22   21 1
    23   23   21 1
    24   24   21 1
    25   25    8 1
    26   26   25 2
    27   27   25 1
    28   28   27 1
    29   29   27 2
    30   30   29 1
    31   31   29 1
    32   32   31 1
    33   33   31 1
    34   34   31 1
    35    8    9 1
@<TRIPOS>SUBSTRUCTURE
     1 RES1 1

@<TRIPOS>CRYSIN
   6.9698    9.5108   19.2330  90.0000  90.0000  90.0000  19 1

