# MOL2 file generated by ConQuest
# Please check atom types

@<TRIPOS>MOLECULE
FITFIY
    44    44     1
SMALL
USER_CHARGES
****
Generated from CSD

@<TRIPOS>ATOM
      1 C1         5.6338    1.2481    2.1157 C.2       1 RES1    0.0000
      2 N1         4.2912    1.3042    2.2912 N.pl3     1 RES1    1.0000
      3 C2         3.7757    2.7099    2.3674 C.3       1 RES1    0.0000
      4 C3         4.9236    3.4516    1.6064 C.3       1 RES1    0.0000
      5 N2         6.0558    2.5128    1.8593 N.3       1 RES1    0.0000
      6 O1         3.5045    0.3093    2.4989 O.2       1 RES1   -1.0000
      7 C4         2.4174    2.8090    1.7216 C.3       1 RES1    0.0000
      8 C5         3.6936    3.0706    3.8386 C.3       1 RES1    0.0000
      9 C6         5.2421    4.8310    2.1288 C.3       1 RES1    0.0000
     10 C7         4.7301    3.4695    0.0962 C.3       1 RES1    0.0000
     11 O2         7.2791    2.8831    1.7435 O.2       1 RES1    0.0000
     12 C8         6.4744    0.0657    2.1948 C.2       1 RES1    0.0000
     13 C9         7.7405    0.0549    1.3664 C.3       1 RES1    0.0000
     14 C10        6.0963   -0.9399    2.9987 C.2       1 RES1    0.0000
     15 C11        6.8278   -2.1522    3.2706 C.2       1 RES1    0.0000
     16 C12        6.3495   -3.1064    4.0862 C.2       1 RES1    0.0000
     17 C13        7.0484   -4.3318    4.3751 C.2       1 RES1    0.0000
     18 C14        6.5521   -5.3744    5.0497 C.2       1 RES1    0.0000
     19 C15        5.1633   -5.4449    5.6159 C.3       1 RES1    0.0000
     20 C16        7.4063   -6.5520    5.1825 C.2       1 RES1    0.0000
     21 O3         7.0833   -7.6102    5.6857 O.2       1 RES1    0.0000
     22 H1         2.1045    3.7048    1.7788 H         1 RES1    0.0000
     23 H2         2.4804    2.5535    0.8096 H         1 RES1    0.0000
     24 H3         1.8096    2.2334    2.1717 H         1 RES1    0.0000
     25 H4         3.3694    3.9580    3.9314 H         1 RES1    0.0000
     26 H5         3.1027    2.4710    4.2791 H         1 RES1    0.0000
     27 H6         4.5579    3.0061    4.2291 H         1 RES1    0.0000
     28 H7         5.9455    5.2084    1.6145 H         1 RES1    0.0000
     29 H8         4.4701    5.3804    2.0598 H         1 RES1    0.0000
     30 H9         5.5100    4.7713    3.0361 H         1 RES1    0.0000
     31 H10        5.4548    3.9305   -0.3096 H         1 RES1    0.0000
     32 H11        4.6997    2.5773   -0.2286 H         1 RES1    0.0000
     33 H12        3.9164    3.9114   -0.1143 H         1 RES1    0.0000
     34 H13        8.2008   -0.7656    1.5026 H         1 RES1    0.0000
     35 H14        7.5188    0.1445    0.4477 H         1 RES1    0.0000
     36 H15        8.2976    0.7775    1.6311 H         1 RES1    0.0000
     37 H16        5.2579   -0.8432    3.4361 H         1 RES1    0.0000
     38 H17        7.6752   -2.2800    2.8599 H         1 RES1    0.0000
     39 H18        5.5032   -2.9643    4.4958 H         1 RES1    0.0000
     40 H19        7.9408   -4.4058    4.0576 H         1 RES1    0.0000
     41 H20        5.0407   -6.2797    6.0507 H         1 RES1    0.0000
     42 H21        5.0407   -4.7403    6.2412 H         1 RES1    0.0000
     43 H22        4.5309   -5.3565    4.9125 H         1 RES1    0.0000
     44 H23        8.2919   -6.4852    4.8458 H         1 RES1    0.0000
@<TRIPOS>BOND
     1    1    2 2
     2    2    3 1
     3    3    4 1
     4    4    5 1
     5    5    1 1
     6    6    2 1
     7    7    3 1
     8    8    3 1
     9    9    4 1
    10   10    4 1
    11   11    5 1
    12   12    1 1
    13   13   12 1
    14   14   12 2
    15   15   14 1
    16   16   15 2
    17   17   16 1
    18   18   17 2
    19   19   18 1
    20   20   18 1
    21   21   20 2
    22   22    7 1
    23   23    7 1
    24   24    7 1
    25   25    8 1
    26   26    8 1
    27   27    8 1
    28   28    9 1
    29   29    9 1
    30   30    9 1
    31   31   10 1
    32   32   10 1
    33   33   10 1
    34   34   13 1
    35   35   13 1
    36   36   13 1
    37   37   14 1
    38   38   15 1
    39   39   16 1
    40   40   17 1
    41   41   19 1
    42   42   19 1
    43   43   19 1
    44   44   20 1
@<TRIPOS>SUBSTRUCTURE
     1 RES1 1

@<TRIPOS>CRYSIN
  11.2540   11.9432   23.8124  90.0000  90.0000  90.0000  61 1

