# MOL2 file generated by ConQuest
# Please check atom types

@<TRIPOS>MOLECULE
FIVBIV
    42    42     1
SMALL
NO_CHARGES
****
Generated from CSD

@<TRIPOS>ATOM
      1 O1         1.2536   -3.4139    5.7437 O.3       1 RES1    0.0000
      2 O2         3.0788   -1.4175    4.9471 O.3       1 RES1    0.0000
      3 O3         1.5138    1.4419    6.4596 O.3       1 RES1    0.0000
      4 N1         2.3099    1.9006    5.3842 N.2       1 RES1    0.0000
      5 C1         0.0155   -2.6957    2.4672 C.ar      1 RES1    0.0000
      6 C2         0.1803   -3.0852    1.1378 C.ar      1 RES1    0.0000
      7 C3         1.3455   -3.6781    0.7412 C.ar      1 RES1    0.0000
      8 C4         2.3377   -3.8852    1.6328 C.ar      1 RES1    0.0000
      9 C5         2.1918   -3.5016    2.9476 C.ar      1 RES1    0.0000
     10 C6         1.0224   -2.8898    3.3761 C.ar      1 RES1    0.0000
     11 C7         0.8711   -2.4216    4.7974 C.3       1 RES1    0.0000
     12 C8         1.6904   -1.1715    5.1274 C.3       1 RES1    0.0000
     13 C9         1.2456    0.0071    4.2691 C.3       1 RES1    0.0000
     14 C10        2.1611    1.1970    4.3343 C.2       1 RES1    0.0000
     15 C11        2.8956    1.6784    3.0940 C.3       1 RES1    0.0000
     16 C12        3.6496    0.5273    2.4286 C.3       1 RES1    0.0000
     17 C13        1.8462    2.2234    2.1172 C.3       1 RES1    0.0000
     18 C14        3.8893    2.7900    3.4254 C.3       1 RES1    0.0000
     19 C15        0.4999   -4.6171    5.6624 C.3       1 RES1    0.0000
     20 H1         3.3943   -1.4599    5.6823 H         1 RES1    0.0000
     21 H2         1.7154    1.9624    7.0530 H         1 RES1    0.0000
     22 H3        -0.8018   -2.2827    2.7427 H         1 RES1    0.0000
     23 H4        -0.5211   -2.9351    0.5083 H         1 RES1    0.0000
     24 H5         1.4561   -3.9332   -0.1690 H         1 RES1    0.0000
     25 H6         3.1448   -4.3062    1.3520 H         1 RES1    0.0000
     26 H7         2.8988   -3.6520    3.5638 H         1 RES1    0.0000
     27 H8        -0.0579   -2.2230    4.8639 H         1 RES1    0.0000
     28 H9         1.5446   -0.9555    6.0416 H         1 RES1    0.0000
     29 H10        0.3813    0.2800    4.5592 H         1 RES1    0.0000
     30 H11        1.1969   -0.2816    3.3641 H         1 RES1    0.0000
     31 H12        4.1019    0.8377    1.6528 H         1 RES1    0.0000
     32 H13        4.2845    0.1646    3.0381 H         1 RES1    0.0000
     33 H14        3.0346   -0.1594    2.1784 H         1 RES1    0.0000
     34 H15        2.2749    2.5359    1.3268 H         1 RES1    0.0000
     35 H16        1.2283    1.5405    1.8937 H         1 RES1    0.0000
     36 H17        1.3809    2.9497    2.5244 H         1 RES1    0.0000
     37 H18        4.3314    3.0654    2.6242 H         1 RES1    0.0000
     38 H19        3.4282    3.5271    3.7980 H         1 RES1    0.0000
     39 H20        4.5319    2.4652    4.0402 H         1 RES1    0.0000
     40 H21        0.8094   -5.2340    6.3184 H         1 RES1    0.0000
     41 H22       -0.4192   -4.4307    5.8167 H         1 RES1    0.0000
     42 H23        0.6024   -5.0023    4.7987 H         1 RES1    0.0000
@<TRIPOS>BOND
     1    1   11 1
     2    2   12 1
     3    3    4 1
     4    4   14 2
     5    5    6 ar
     6    6    7 ar
     7    7    8 ar
     8    8    9 ar
     9    9   10 ar
    10   10    5 ar
    11   11   10 1
    12   12   11 1
    13   13   12 1
    14   14   13 1
    15   15   14 1
    16   16   15 1
    17   17   15 1
    18   18   15 1
    19   19    1 1
    20   20    2 1
    21   21    3 1
    22   22    5 1
    23   23    6 1
    24   24    7 1
    25   25    8 1
    26   26    9 1
    27   27   11 1
    28   28   12 1
    29   29   13 1
    30   30   13 1
    31   31   16 1
    32   32   16 1
    33   33   16 1
    34   34   17 1
    35   35   17 1
    36   36   17 1
    37   37   18 1
    38   38   18 1
    39   39   18 1
    40   40   19 1
    41   41   19 1
    42   42   19 1
@<TRIPOS>SUBSTRUCTURE
     1 RES1 1

@<TRIPOS>CRYSIN
   5.9638    9.9308   14.0838 108.8070  92.8370  91.3590   2 1

