# MOL2 file generated by ConQuest
# Please check atom types

@<TRIPOS>MOLECULE
FIVZER
    49    51     1
SMALL
NO_CHARGES
****
Generated from CSD

@<TRIPOS>ATOM
      1 N1         7.1785    1.3980   11.8551 N.3       1 RES1    0.0000
      2 O1         7.6018    2.7677   11.6527 O.3       1 RES1    0.0000
      3 C1         8.8090    2.7275   10.8791 C.3       1 RES1    0.0000
      4 C2         9.9177    2.1061   11.7354 C.3       1 RES1    0.0000
      5 H1        10.7486    1.9776   11.2485 H         1 RES1    0.0000
      6 H2        10.0944    2.7610   12.4789 H         1 RES1    0.0000
      7 C3         9.5189    0.7461   12.3103 C.3       1 RES1    0.0000
      8 H3         9.6652    0.0228   11.6288 H         1 RES1    0.0000
      9 C4        10.2289    0.4617   13.6299 C.3       1 RES1    0.0000
     10 H4        11.1700    0.8747   13.6361 H         1 RES1    0.0000
     11 H5        10.2242   -0.5933   13.7933 H         1 RES1    0.0000
     12 C5         9.3403    1.1531   14.6626 C.3       1 RES1    0.0000
     13 H6         9.2118    0.6313   15.5794 H         1 RES1    0.0000
     14 H7         9.6361    2.1525   14.8244 H         1 RES1    0.0000
     15 O2         8.0128    1.2124   14.0860 O.3       1 RES1    0.0000
     16 C6         8.0549    0.6959   12.7562 C.3       1 RES1    0.0000
     17 H8         7.7356   -0.2662   12.7787 H         1 RES1    0.0000
     18 C7         8.5639    1.9684    9.5635 C.2       1 RES1    0.0000
     19 O3         9.3062    1.1392    9.1140 O.2       1 RES1    0.0000
     20 O4         7.4328    2.3928    8.9946 O.3       1 RES1    0.0000
     21 C8         7.0235    1.7304    7.7593 C.3       1 RES1    0.0000
     22 H9         7.3854    0.7910    7.8464 H         1 RES1    0.0000
     23 H10        7.4722    2.2286    7.0456 H         1 RES1    0.0000
     24 C9         5.5278    1.8003    7.6811 C.3       1 RES1    0.0000
     25 H11        5.1091    1.2474    8.3491 H         1 RES1    0.0000
     26 H12        5.2403    1.6125    6.7531 H         1 RES1    0.0000
     27 H13        5.2342    2.6545    7.8646 H         1 RES1    0.0000
     28 C10        9.1519    4.1917   10.6160 C.2       1 RES1    0.0000
     29 O5         8.7607    5.1083   11.2820 O.2       1 RES1    0.0000
     30 O6         9.9906    4.2778    9.5807 O.3       1 RES1    0.0000
     31 C11       10.5768    5.6064    9.3326 C.3       1 RES1    0.0000
     32 H14        9.8465    6.3358    9.4515 H         1 RES1    0.0000
     33 H15       10.8371    5.5600    8.3930 H         1 RES1    0.0000
     34 C12       11.7285    5.8277   10.2615 C.3       1 RES1    0.0000
     35 H16       11.4552    5.8034   11.2083 H         1 RES1    0.0000
     36 H17       12.1558    6.6553   10.0730 H         1 RES1    0.0000
     37 H18       12.4030    5.1188   10.1462 H         1 RES1    0.0000
     38 C13        5.7817    1.4200   12.1010 C.ar      1 RES1    0.0000
     39 C14        4.9699    2.1700   11.2449 C.ar      1 RES1    0.0000
     40 H19        5.4077    2.6925   10.5319 H         1 RES1    0.0000
     41 C15        3.5925    2.1175   11.3590 C.ar      1 RES1    0.0000
     42 H20        3.0045    2.6165   10.7293 H         1 RES1    0.0000
     43 C16        3.0159    1.3113   12.3408 C.ar      1 RES1    0.0000
     44 C17        3.8176    0.5887   13.2178 C.ar      1 RES1    0.0000
     45 H21        3.4250    0.0685   13.9341 H         1 RES1    0.0000
     46 C18        5.1990    0.6549   13.1088 C.ar      1 RES1    0.0000
     47 H22        5.7849    0.1597   13.7385 H         1 RES1    0.0000
     48 C19        1.5792    1.1759   12.4088 C.1       1 RES1    0.0000
     49 N2         0.4356    1.0481   12.4381 N.1       1 RES1    0.0000
@<TRIPOS>BOND
     1    1    2 1
     2    2    3 1
     3    3    4 1
     4    4    5 1
     5    6    4 1
     6    7    4 1
     7    8    7 1
     8    9    7 1
     9   10    9 1
    10   11    9 1
    11   12    9 1
    12   13   12 1
    13   14   12 1
    14   15   12 1
    15   16    1 1
    16   17   16 1
    17   18    3 1
    18   19   18 2
    19   20   18 1
    20   21   20 1
    21   22   21 1
    22   23   21 1
    23   24   21 1
    24   25   24 1
    25   26   24 1
    26   27   24 1
    27   28    3 1
    28   29   28 2
    29   30   28 1
    30   31   30 1
    31   32   31 1
    32   33   31 1
    33   34   31 1
    34   35   34 1
    35   36   34 1
    36   37   34 1
    37   38    1 1
    38   39   38 ar
    39   40   39 1
    40   41   39 ar
    41   42   41 1
    42   43   41 ar
    43   44   43 ar
    44   45   44 1
    45   46   38 ar
    46   47   46 1
    47   48   43 1
    48   49   48 3
    49    7   16 1
    50   15   16 1
    51   44   46 ar
@<TRIPOS>SUBSTRUCTURE
     1 RES1 1

@<TRIPOS>CRYSIN
  13.0580    7.6060   18.3760  90.0000  95.8170  90.0000  14 1

