# MOL2 file generated by ConQuest
# Please check atom types

@<TRIPOS>MOLECULE
FIWZIV
    68    72     1
SMALL
NO_CHARGES
****
Generated from CSD

@<TRIPOS>ATOM
      1 O1         1.5873    3.4331   10.7345 O.3       1 RES1    0.0000
      2 C1         1.7957    3.4788   12.1237 C.3       1 RES1    0.0000
      3 H1         2.6112    2.9952   12.3724 H         1 RES1    0.0000
      4 C2         1.8880    4.9547   12.5283 C.3       1 RES1    0.0000
      5 H2         2.6788    5.1516   13.0730 H         1 RES1    0.0000
      6 C3         1.8802    5.7054   11.2071 C.3       1 RES1    0.0000
      7 H3         1.3992    6.5557   11.2840 H         1 RES1    0.0000
      8 C4         1.1433    4.7340   10.3014 C.3       1 RES1    0.0000
      9 H4         0.1787    4.8148   10.4601 H         1 RES1    0.0000
     10 O2         0.6782    2.9730   12.8166 O.3       1 RES1    0.0000
     11 C5         0.2809    3.9386   13.8021 C.3       1 RES1    0.0000
     12 C6        -1.2090    3.9218   13.9391 C.3       1 RES1    0.0000
     13 H5        -1.4848    4.6277   14.5270 H         1 RES1    0.0000
     14 H6        -1.4880    3.0765   14.3004 H         1 RES1    0.0000
     15 H7        -1.6115    4.0483   13.0762 H         1 RES1    0.0000
     16 C7         1.0050    3.6882   15.1033 C.3       1 RES1    0.0000
     17 H8         1.9522    3.7424   14.9589 H         1 RES1    0.0000
     18 H9         0.7810    2.8146   15.4309 H         1 RES1    0.0000
     19 H10        0.7416    4.3490   15.7481 H         1 RES1    0.0000
     20 C8         1.4134    4.8205    8.7958 C.3       1 RES1    0.0000
     21 H11        2.3248    4.4935    8.6447 H         1 RES1    0.0000
     22 O3         0.6741    5.1831   13.2188 O.3       1 RES1    0.0000
     23 C9         0.4722    3.9164    8.0106 C.ar      1 RES1    0.0000
     24 C10        0.9449    2.9946    7.1300 C.ar      1 RES1    0.0000
     25 C11        0.0553    2.1291    6.4246 C.ar      1 RES1    0.0000
     26 C12       -1.3387    2.2560    6.6218 C.ar      1 RES1    0.0000
     27 C13       -1.8129    3.2615    7.5132 C.ar      1 RES1    0.0000
     28 C14       -0.9375    4.0525    8.1906 C.ar      1 RES1    0.0000
     29 H12       -1.2630    4.6922    8.7817 H         1 RES1    0.0000
     30 C15        0.5327    1.1279    5.5503 C.ar      1 RES1    0.0000
     31 H13        1.4466    1.0453    5.3976 H         1 RES1    0.0000
     32 C16       -0.3356    0.2826    4.9308 C.ar      1 RES1    0.0000
     33 H14       -0.0093   -0.3781    4.3640 H         1 RES1    0.0000
     34 C17       -1.7086    0.4001    5.1384 C.ar      1 RES1    0.0000
     35 H15       -2.2886   -0.1923    4.7159 H         1 RES1    0.0000
     36 C18       -2.2107    1.3666    5.9486 C.ar      1 RES1    0.0000
     37 H16       -3.1302    1.4453    6.0624 H         1 RES1    0.0000
     38 O4        -3.1733    3.3385    7.6245 O.3       1 RES1    0.0000
     39 C19       -3.7083    4.1657    8.6426 C.3       1 RES1    0.0000
     40 H17       -3.3949    3.8637    9.4982 H         1 RES1    0.0000
     41 H18       -4.6670    4.1231    8.6184 H         1 RES1    0.0000
     42 H19       -3.4254    5.0716    8.4993 H         1 RES1    0.0000
     43 O5         2.2994    2.9283    6.8548 O.3       1 RES1    0.0000
     44 C20        3.0195    1.9783    7.6459 C.3       1 RES1    0.0000
     45 H20        2.8994    2.1809    8.5763 H         1 RES1    0.0000
     46 H21        3.9525    2.0209    7.4268 H         1 RES1    0.0000
     47 H22        2.6890    1.0956    7.4647 H         1 RES1    0.0000
     48 C21        1.3615    6.2644    8.2981 C.3       1 RES1    0.0000
     49 H23        0.4392    6.5350    8.1696 H         1 RES1    0.0000
     50 H24        1.7627    6.8538    8.9555 H         1 RES1    0.0000
     51 N1         2.1039    6.3659    7.0075 N.pl3     1 RES1    0.0000
     52 O6         3.3088    6.2950    7.0528 O.2       1 RES1    0.0000
     53 O7         1.4829    6.4925    5.9837 O.2       1 RES1    0.0000
     54 O8         3.2014    5.9010   10.7317 O.3       1 RES1    0.0000
     55 C22        3.7793    7.0964   11.2724 C.3       1 RES1    0.0000
     56 H25        3.7401    7.0719   12.2407 H         1 RES1    0.0000
     57 H26        3.2792    7.8694   10.9679 H         1 RES1    0.0000
     58 C23        5.1969    7.2048   10.8267 C.ar      1 RES1    0.0000
     59 C24        6.2007    6.6615   11.5874 C.ar      1 RES1    0.0000
     60 H27        5.9819    6.2060   12.3681 H         1 RES1    0.0000
     61 C25        7.5059    6.7712   11.2282 C.ar      1 RES1    0.0000
     62 H28        8.1651    6.3828   11.7560 H         1 RES1    0.0000
     63 C26        7.8415    7.4229   10.1377 C.ar      1 RES1    0.0000
     64 H29        8.7413    7.5132    9.9185 H         1 RES1    0.0000
     65 C27        6.8968    7.9714    9.3190 C.ar      1 RES1    0.0000
     66 H30        7.1470    8.4140    8.5404 H         1 RES1    0.0000
     67 C28        5.5176    7.8578    9.6752 C.ar      1 RES1    0.0000
     68 H31        4.8546    8.2204    9.1326 H         1 RES1    0.0000
@<TRIPOS>BOND
     1    1    2 1
     2    2    3 1
     3    4    2 1
     4    5    4 1
     5    6    4 1
     6    7    6 1
     7    8    1 1
     8    9    8 1
     9   10    2 1
    10   11   10 1
    11   12   11 1
    12   13   12 1
    13   14   12 1
    14   15   12 1
    15   16   11 1
    16   17   16 1
    17   18   16 1
    18   19   16 1
    19   20    8 1
    20   21   20 1
    21   22    4 1
    22   23   20 1
    23   24   23 ar
    24   25   24 ar
    25   26   25 ar
    26   27   26 ar
    27   28   23 ar
    28   29   28 1
    29   30   25 ar
    30   31   30 1
    31   32   30 ar
    32   33   32 1
    33   34   32 ar
    34   35   34 1
    35   36   26 ar
    36   37   36 1
    37   38   27 1
    38   39   38 1
    39   40   39 1
    40   41   39 1
    41   42   39 1
    42   43   24 1
    43   44   43 1
    44   45   44 1
    45   46   44 1
    46   47   44 1
    47   48   20 1
    48   49   48 1
    49   50   48 1
    50   51   48 1
    51   52   51 2
    52   53   51 2
    53   54    6 1
    54   55   54 1
    55   56   55 1
    56   57   55 1
    57   58   55 1
    58   59   58 ar
    59   60   59 1
    60   61   59 ar
    61   62   61 1
    62   63   61 ar
    63   64   63 1
    64   65   63 ar
    65   66   65 1
    66   67   58 ar
    67   68   67 1
    68    6    8 1
    69   11   22 1
    70   27   28 ar
    71   34   36 ar
    72   65   67 ar
@<TRIPOS>SUBSTRUCTURE
     1 RES1 1

@<TRIPOS>CRYSIN
   9.7351   12.9049   11.0950  90.0000 108.2660  90.0000   4 1

