# MOL2 file generated by ConQuest
# Please check atom types

@<TRIPOS>MOLECULE
FIXMEE
    71    72     1
SMALL
NO_CHARGES
****
Generated from CSD

@<TRIPOS>ATOM
      1 O1        12.6486   10.2135    9.7368 O.3       1 RES1    0.0000
      2 N1        11.4915    9.2555   11.4029 N.2       1 RES1    0.0000
      3 C1        11.5114    9.5404   10.1789 C.2       1 RES1    0.0000
      4 O2        10.3121    8.6097   11.7260 O.3       1 RES1    0.0000
      5 C2        10.5520    9.3222    9.0459 C.3       1 RES1    0.0000
      6 C3        11.0950   10.0437    6.4746 C.2       1 RES1    0.0000
      7 O3        10.2555    9.3404    5.9432 O.2       1 RES1    0.0000
      8 C4        12.0345   10.9471    5.7491 C.3       1 RES1    0.0000
      9 C5        13.5026   10.8077    6.1802 C.3       1 RES1    0.0000
     10 C6        13.5903   11.0775    7.6683 C.3       1 RES1    0.0000
     11 C7        12.4709   10.4317    8.4082 C.2       1 RES1    0.0000
     12 C8        11.3193    9.9952    7.9214 C.2       1 RES1    0.0000
     13 C9         9.1039    9.8466    9.3336 C.3       1 RES1    0.0000
     14 C10        9.0117   11.1199   10.1367 C.3       1 RES1    0.0000
     15 C11        7.5603   11.6262   10.2506 C.3       1 RES1    0.0000
     16 C12        7.4404   12.8782   11.0900 C.3       1 RES1    0.0000
     17 C13        5.9756   13.3390   11.1887 C.3       1 RES1    0.0000
     18 C14       14.3510   11.7960    5.3864 C.3       1 RES1    0.0000
     19 C15       13.9768    9.3798    5.8909 C.3       1 RES1    0.0000
     20 O4         8.4465   10.0558    8.0808 O.3       1 RES1    0.0000
     21 O5         7.6947    7.6245    8.0893 O.2       1 RES1    0.0000
     22 C16        7.7557    9.0129    7.5468 C.2       1 RES1    0.0000
     23 C17        7.1105    9.3616    6.2933 C.3       1 RES1    0.0000
     24 O6         9.7913   12.1507    9.4711 O.3       1 RES1    0.0000
     25 O7        10.7818   12.7206   11.3793 O.2       1 RES1    0.0000
     26 C18       10.6564   12.8661   10.2320 C.2       1 RES1    0.0000
     27 C19       11.3682   13.8302    9.3623 C.3       1 RES1    0.0000
     28 O8         6.7929   10.5712   10.8217 O.3       1 RES1    0.0000
     29 O9         5.4448   10.5378    9.0392 O.2       1 RES1    0.0000
     30 C20        5.7191   10.1013   10.0928 C.2       1 RES1    0.0000
     31 C21        5.0050    9.0615   10.8563 C.3       1 RES1    0.0000
     32 O10        7.8412   12.5326   12.4482 O.3       1 RES1    0.0000
     33 O11        8.2866   14.7033   12.8253 O.2       1 RES1    0.0000
     34 C22        8.2910   13.5573   13.2192 C.2       1 RES1    0.0000
     35 C23        8.7063   13.1268   14.5917 C.3       1 RES1    0.0000
     36 O12        5.6058   13.7483    9.8836 O.3       1 RES1    0.0000
     37 O13        3.9234   14.7851   10.6015 O.2       1 RES1    0.0000
     38 C24        4.5608   14.4577    9.6727 C.2       1 RES1    0.0000
     39 C25        4.3054   14.8003    8.2943 C.3       1 RES1    0.0000
     40 H1         7.2294   11.8839    9.3387 H         1 RES1    0.0000
     41 H2         8.6397    9.1251    9.8786 H         1 RES1    0.0000
     42 H3         5.3859   12.5811   11.5658 H         1 RES1    0.0000
     43 H4         5.8190   14.0060   11.9116 H         1 RES1    0.0000
     44 H5        11.1827   14.7336    9.7520 H         1 RES1    0.0000
     45 H6        12.3488   13.6422    9.4905 H         1 RES1    0.0000
     46 H7        11.2938   13.9757    8.3769 H         1 RES1    0.0000
     47 H8         7.9845   13.6119   10.6631 H         1 RES1    0.0000
     48 H9        11.9268   10.8834    4.7748 H         1 RES1    0.0000
     49 H10       11.7380   11.9142    5.8630 H         1 RES1    0.0000
     50 H11        9.3615   10.9138   11.0849 H         1 RES1    0.0000
     51 H12       14.4920   10.7925    8.0733 H         1 RES1    0.0000
     52 H13       13.6592   12.0658    7.8792 H         1 RES1    0.0000
     53 H14       10.3610    8.3369    8.8325 H         1 RES1    0.0000
     54 H15        7.8957   12.7024   15.0498 H         1 RES1    0.0000
     55 H16        9.4170   12.4296   14.5099 H         1 RES1    0.0000
     56 H17        5.6524    8.2763   11.0849 H         1 RES1    0.0000
     57 H18        4.6863    9.4283   11.7598 H         1 RES1    0.0000
     58 H19        4.2421    8.6704   10.3763 H         1 RES1    0.0000
     59 H20        6.4853   10.1255    6.4535 H         1 RES1    0.0000
     60 H21        7.8179    9.6708    5.6437 H         1 RES1    0.0000
     61 H22        6.6075    8.6097    5.8883 H         1 RES1    0.0000
     62 H23       13.4148    8.7310    6.4282 H         1 RES1    0.0000
     63 H24       13.9035    9.1554    4.9266 H         1 RES1    0.0000
     64 H25       14.9473    9.2464    6.1836 H         1 RES1    0.0000
     65 H26       10.2832    8.3672   12.7046 H         1 RES1    0.0000
     66 H27       14.2588   11.6110    4.4205 H         1 RES1    0.0000
     67 H28       14.0478   12.7327    5.6015 H         1 RES1    0.0000
     68 H29       15.3027   11.7020    5.6690 H         1 RES1    0.0000
     69 H30        3.3537   14.4001    8.0733 H         1 RES1    0.0000
     70 H31        4.2421   15.7946    8.2757 H         1 RES1    0.0000
     71 H32        4.8862   14.5820    7.4912 H         1 RES1    0.0000
@<TRIPOS>BOND
     1    1    3 1
     2    2    3 2
     3    3    5 1
     4    4    2 1
     5    5   12 1
     6    6    7 2
     7    8    6 1
     8    9    8 1
     9   10    9 1
    10   11    1 1
    11   12    6 1
    12   13    5 1
    13   14   13 1
    14   15   14 1
    15   16   15 1
    16   17   16 1
    17   18    9 1
    18   19    9 1
    19   20   13 1
    20   21   22 2
    21   22   20 1
    22   23   22 1
    23   24   14 1
    24   25   26 2
    25   26   24 1
    26   27   26 1
    27   28   15 1
    28   29   30 2
    29   30   28 1
    30   31   30 1
    31   32   16 1
    32   33   34 2
    33   34   32 1
    34   35   34 1
    35   36   17 1
    36   37   38 2
    37   38   36 1
    38   39   38 1
    39   40   15 1
    40   41   13 1
    41   42   17 1
    42   43   17 1
    43   44   27 1
    44   45   27 1
    45   46   27 1
    46   47   16 1
    47   48    8 1
    48   49    8 1
    49   50   14 1
    50   51   10 1
    51   52   10 1
    52   53    5 1
    53   54   35 1
    54   55   35 1
    55   56   31 1
    56   57   31 1
    57   58   31 1
    58   59   23 1
    59   60   23 1
    60   61   23 1
    61   62   19 1
    62   63   19 1
    63   64   19 1
    64   65    4 1
    65   66   18 1
    66   67   18 1
    67   68   18 1
    68   69   39 1
    69   70   39 1
    70   71   39 1
    71   10   11 1
    72   11   12 2
@<TRIPOS>SUBSTRUCTURE
     1 RES1 1

@<TRIPOS>CRYSIN
  11.1050   30.3160    8.4360  90.0000  90.0000  90.0000  19 1

