# MOL2 file generated by ConQuest
# Please check atom types

@<TRIPOS>MOLECULE
FIXPIL
    26    27     1
SMALL
USER_CHARGES
****
Generated from CSD

@<TRIPOS>ATOM
      1 C1         5.0401    1.2081    0.6230 C.ar      1 RES1    0.0000
      2 C2         4.3133    0.9807    1.7605 C.ar      1 RES1    0.0000
      3 C3         2.9577    1.3597    1.7598 C.ar      1 RES1    0.0000
      4 C4         2.4123    1.9478    0.6367 C.ar      1 RES1    0.0000
      5 C5         3.1918    2.1600   -0.4819 C.ar      1 RES1    0.0000
      6 C6         4.5343    1.7886   -0.4904 C.ar      1 RES1    0.0000
      7 C7         7.0566   -0.3456    0.6804 C.2       1 RES1   -1.0000
      8 C8         8.4464   -0.0894    0.6713 C.2       1 RES1    0.0000
      9 C9         6.3573   -1.6204    0.6458 C.2       1 RES1    0.0000
     10 C10        0.9555    2.3798    0.6641 C.3       1 RES1    0.0000
     11 C11        7.2259   -2.8482    0.6412 C.3       1 RES1    0.0000
     12 N1         6.4662    0.8670    0.6523 N.pl3     1 RES1    1.0000
     13 N2         7.2644    1.8872    0.6223 N.2       1 RES1    0.0000
     14 O1         8.5244    1.3263    0.6452 O.3       1 RES1    0.0000
     15 O2         9.4590   -0.7291    0.6791 O.2       1 RES1    0.0000
     16 O3         5.1457   -1.6886    0.6112 O.2       1 RES1    0.0000
     17 H1         4.6729    0.6215    2.6642 H         1 RES1    0.0000
     18 H2         2.4849    1.2581    2.6120 H         1 RES1    0.0000
     19 H3         2.8477    2.4708   -1.3517 H         1 RES1    0.0000
     20 H4         5.0467    1.9251   -1.2929 H         1 RES1    0.0000
     21 H5         0.3079    1.6067    0.7379 H         1 RES1    0.0000
     22 H6         0.8246    3.0164    1.5411 H         1 RES1    0.0000
     23 H7         0.7037    2.7739   -0.1698 H         1 RES1    0.0000
     24 H8         7.3996   -3.0316    1.5150 H         1 RES1    0.0000
     25 H9         8.2133   -2.5769    0.3069 H         1 RES1    0.0000
     26 H10        6.7399   -3.5470    0.4310 H         1 RES1    0.0000
@<TRIPOS>BOND
     1    1    2 ar
     2    2    3 ar
     3    3    4 ar
     4    4    5 ar
     5    5    6 ar
     6    6    1 ar
     7    7    8 1
     8    8   14 1
     9    9    7 1
    10   10    4 1
    11   11    9 1
    12   12    1 1
    13   13   12 2
    14   14   13 1
    15   15    8 2
    16   16    9 2
    17   17    2 1
    18   18    3 1
    19   19    5 1
    20   20    6 1
    21   21   10 1
    22   22   10 1
    23   23   10 1
    24   24   11 1
    25   25   11 1
    26   26   11 1
    27    7   12 1
@<TRIPOS>SUBSTRUCTURE
     1 RES1 1

@<TRIPOS>CRYSIN
  10.9950   15.1580    6.5300  90.0000  90.0000  90.0000  19 1

