# MOL2 file generated by ConQuest
# Please check atom types

@<TRIPOS>MOLECULE
FIYTUD
    31    33     1
SMALL
NO_CHARGES
****
Generated from CSD

@<TRIPOS>ATOM
      1 O1         1.5120   -1.8766    8.6208 O.3       1 RES1    0.0000
      2 O2         2.1044   -1.3948    6.5522 O.2       1 RES1    0.0000
      3 O3        -1.5316    1.4273    7.0617 O.3       1 RES1    0.0000
      4 N1         0.3048   -0.3005    7.4011 N.am      1 RES1    0.0000
      5 H1         0.2078    0.1526    6.6528 H         1 RES1    0.0000
      6 N2        -1.5574    0.8218    8.3435 N.2       1 RES1    0.0000
      7 N3        -1.3042   -0.6975   10.6405 N.ar      1 RES1    0.0000
      8 C1         1.3409   -1.1832    7.4617 C.2       1 RES1    0.0000
      9 C2        -0.6136   -0.0492    8.4143 C.2       1 RES1    0.0000
     10 C3        -0.4400   -0.8501    9.6275 C.ar      1 RES1    0.0000
     11 C4        -1.0808   -1.4048   11.7454 C.ar      1 RES1    0.0000
     12 H2        -1.6842   -1.3103   12.4735 H         1 RES1    0.0000
     13 C5        -0.0017   -2.2799   11.8851 C.ar      1 RES1    0.0000
     14 H3         0.1273   -2.7570   12.6964 H         1 RES1    0.0000
     15 C6         0.8708   -2.4435   10.8383 C.ar      1 RES1    0.0000
     16 H4         1.6074   -3.0398   10.9014 H         1 RES1    0.0000
     17 C7         0.6403   -1.7098    9.6886 C.ar      1 RES1    0.0000
     18 C8        -2.3254    2.6272    7.1282 C.3       1 RES1    0.0000
     19 H5        -3.1749    2.4294    7.5974 H         1 RES1    0.0000
     20 H6        -2.5475    2.9198    6.2092 H         1 RES1    0.0000
     21 C9        -1.6174    3.7443    7.8438 C.ar      1 RES1    0.0000
     22 C10       -0.4976    4.3396    7.2838 C.ar      1 RES1    0.0000
     23 H7        -0.1772    4.0409    6.4413 H         1 RES1    0.0000
     24 C11        0.1575    5.3657    7.9424 C.ar      1 RES1    0.0000
     25 H8         0.9247    5.7643    7.5480 H         1 RES1    0.0000
     26 C12       -0.2942    5.8162    9.1687 C.ar      1 RES1    0.0000
     27 H9         0.1575    6.5212    9.6177 H         1 RES1    0.0000
     28 C13       -1.4049    5.2320    9.7318 C.ar      1 RES1    0.0000
     29 H10       -1.7244    5.5364   10.5727 H         1 RES1    0.0000
     30 C14       -2.0587    4.2000    9.0743 C.ar      1 RES1    0.0000
     31 H11       -2.8220    3.8008    9.4752 H         1 RES1    0.0000
@<TRIPOS>BOND
     1    1    8 1
     2    2    8 2
     3    3    6 1
     4    4    5 1
     5    6    9 2
     6    7   10 ar
     7    8    4 1
     8    9    4 1
     9   10    9 1
    10   11    7 ar
    11   12   11 1
    12   13   11 ar
    13   14   13 1
    14   15   13 ar
    15   16   15 1
    16   17    1 1
    17   18    3 1
    18   19   18 1
    19   20   18 1
    20   21   18 1
    21   22   21 ar
    22   23   22 1
    23   24   22 ar
    24   25   24 1
    25   26   24 ar
    26   27   26 1
    27   28   26 ar
    28   29   28 1
    29   30   21 ar
    30   31   30 1
    31   10   17 ar
    32   15   17 ar
    33   28   30 ar
@<TRIPOS>SUBSTRUCTURE
     1 RES1 1

@<TRIPOS>CRYSIN
   5.1545   20.3470   11.7476  90.0000 101.9720  90.0000 231 1

