# MOL2 file generated by ConQuest
# Please check atom types

@<TRIPOS>MOLECULE
FIZCOG
    54    60     1
SMALL
NO_CHARGES
****
Generated from CSD

@<TRIPOS>ATOM
      1 O1         2.4574    5.7017    4.0829 O.2       1 RES1    0.0000
      2 O2         2.9616    4.2108    5.5579 O.2       1 RES1    0.0000
      3 O3         0.1048    1.7109    0.9540 O.2       1 RES1    0.0000
      4 O4         0.9814    4.8684    0.9566 O.2       1 RES1    0.0000
      5 N1         2.2111    4.7047    4.7428 N.pl3     1 RES1    0.0000
      6 C1        -2.5284    5.5579    4.3933 C.ar      1 RES1    0.0000
      7 H1        -3.2657    5.4823    3.8159 H         1 RES1    0.0000
      8 C2        -2.6041    6.3257    5.5465 C.ar      1 RES1    0.0000
      9 H2        -3.3956    6.7925    5.7413 H         1 RES1    0.0000
     10 C3        -1.5322    6.4142    6.4139 C.ar      1 RES1    0.0000
     11 H3        -1.6042    6.9480    7.1832 H         1 RES1    0.0000
     12 C4        -0.3505    5.7268    6.1670 C.ar      1 RES1    0.0000
     13 H4         0.3644    5.7548    6.7767 H         1 RES1    0.0000
     14 C5        -0.2598    5.0005    4.9941 C.ar      1 RES1    0.0000
     15 C6         0.8522    4.0726    4.5221 C.3       1 RES1    0.0000
     16 C7         0.5997    2.7476    5.2185 C.ar      1 RES1    0.0000
     17 C8         0.8932    2.3566    6.5145 C.ar      1 RES1    0.0000
     18 H5         1.3933    2.9113    7.0833 H         1 RES1    0.0000
     19 C9         0.4276    1.1225    6.9497 C.ar      1 RES1    0.0000
     20 H6         0.6410    0.8252    7.8157 H         1 RES1    0.0000
     21 C10       -0.3477    0.3222    6.1253 C.ar      1 RES1    0.0000
     22 H7        -0.6343   -0.5204    6.4298 H         1 RES1    0.0000
     23 C11       -0.7070    0.7513    4.8543 C.ar      1 RES1    0.0000
     24 H8        -1.2618    0.2217    4.3099 H         1 RES1    0.0000
     25 C12       -0.2335    1.9782    4.3986 C.ar      1 RES1    0.0000
     26 C13       -0.4236    2.6303    3.0714 C.3       1 RES1    0.0000
     27 C14        0.5147    3.8232    3.0115 C.3       1 RES1    0.0000
     28 C15       -0.9585    4.1055    2.9353 C.3       1 RES1    0.0000
     29 H9        -1.3275    4.3800    2.0586 H         1 RES1    0.0000
     30 C16       -1.3382    4.9038    4.1156 C.ar      1 RES1    0.0000
     31 C17       -0.7066    1.7900    1.8576 C.2       1 RES1    0.0000
     32 C18       -2.0215    1.1009    1.8012 C.ar      1 RES1    0.0000
     33 C19       -2.1678   -0.0069    0.9640 C.ar      1 RES1    0.0000
     34 H10       -1.4355   -0.3110    0.4590 H         1 RES1    0.0000
     35 C20       -3.3806   -0.6588    0.8723 C.ar      1 RES1    0.0000
     36 H11       -3.4715   -1.4071    0.3119 H         1 RES1    0.0000
     37 C21       -4.4615   -0.2100    1.6052 C.ar      1 RES1    0.0000
     38 H12       -5.2899   -0.6482    1.5330 H         1 RES1    0.0000
     39 C22       -4.3301    0.8799    2.4447 C.ar      1 RES1    0.0000
     40 H13       -5.0690    1.1793    2.9434 H         1 RES1    0.0000
     41 C23       -3.1185    1.5289    2.5509 C.ar      1 RES1    0.0000
     42 H14       -3.0313    2.2631    3.1308 H         1 RES1    0.0000
     43 C24        1.4158    4.1579    1.8410 C.2       1 RES1    0.0000
     44 C25        2.8039    3.6287    1.8018 C.ar      1 RES1    0.0000
     45 C26        3.2126    2.5541    2.5847 C.ar      1 RES1    0.0000
     46 H15        2.5994    2.1323    3.1606 H         1 RES1    0.0000
     47 C27        4.5221    2.1038    2.5181 C.ar      1 RES1    0.0000
     48 H16        4.7957    1.3748    3.0450 H         1 RES1    0.0000
     49 C28        5.4252    2.7227    1.6793 C.ar      1 RES1    0.0000
     50 H17        6.3155    2.4233    1.6451 H         1 RES1    0.0000
     51 C29        5.0239    3.7807    0.8900 C.ar      1 RES1    0.0000
     52 H18        5.6408    4.1953    0.3136 H         1 RES1    0.0000
     53 C30        3.7210    4.2342    0.9422 C.ar      1 RES1    0.0000
     54 H19        3.4513    4.9512    0.3977 H         1 RES1    0.0000
@<TRIPOS>BOND
     1    1    5 2
     2    2    5 2
     3    3   31 2
     4    4   43 2
     5    5   15 1
     6    6    7 1
     7    8    6 ar
     8    9    8 1
     9   10    8 ar
    10   11   10 1
    11   12   10 ar
    12   13   12 1
    13   14   12 ar
    14   15   14 1
    15   16   15 1
    16   17   16 ar
    17   18   17 1
    18   19   17 ar
    19   20   19 1
    20   21   19 ar
    21   22   21 1
    22   23   21 ar
    23   24   23 1
    24   25   16 ar
    25   26   25 1
    26   27   15 1
    27   28   26 1
    28   29   28 1
    29   30    6 ar
    30   31   26 1
    31   32   31 1
    32   33   32 ar
    33   34   33 1
    34   35   33 ar
    35   36   35 1
    36   37   35 ar
    37   38   37 1
    38   39   37 ar
    39   40   39 1
    40   41   32 ar
    41   42   41 1
    42   43   27 1
    43   44   43 1
    44   45   44 ar
    45   46   45 1
    46   47   45 ar
    47   48   47 1
    48   49   47 ar
    49   50   49 1
    50   51   49 ar
    51   52   51 1
    52   53   44 ar
    53   54   53 1
    54   14   30 ar
    55   23   25 ar
    56   26   27 1
    57   27   28 1
    58   28   30 1
    59   39   41 ar
    60   51   53 ar
@<TRIPOS>SUBSTRUCTURE
     1 RES1 1

@<TRIPOS>CRYSIN
  16.8684   15.3955   17.5200  90.0000  90.0000  90.0000  61 1

