# MOL2 file generated by ConQuest
# Please check atom types

@<TRIPOS>MOLECULE
FIZLAD
    48    51     1
SMALL
NO_CHARGES
****
Generated from CSD

@<TRIPOS>ATOM
      1 N1         0.7155    1.2499    8.9341 N.pl3     1 RES1    0.0000
      2 C1         0.0050    2.4645    9.3116 C.3       1 RES1    0.0000
      3 H1         0.5110    2.9204   10.0033 H         1 RES1    0.0000
      4 H2        -0.8539    2.2190    9.6889 H         1 RES1    0.0000
      5 C2        -0.0731    0.0062    8.8639 C.3       1 RES1    0.0000
      6 H3        -0.9818    0.2599    8.5989 H         1 RES1    0.0000
      7 C3         0.4794   -0.8940    7.7518 C.3       1 RES1    0.0000
      8 H4         0.4195   -0.3718    6.9249 H         1 RES1    0.0000
      9 C4         1.9438   -1.1504    7.9782 C.2       1 RES1    0.0000
     10 O1         2.4594   -2.2454    7.8508 O.2       1 RES1    0.0000
     11 C5         2.7172    0.0543    8.3263 C.ar      1 RES1    0.0000
     12 C6         4.0986    0.0251    8.2428 C.ar      1 RES1    0.0000
     13 H5         4.5321   -0.7580    7.9881 H         1 RES1    0.0000
     14 C7         4.8304    1.1478    8.5337 C.ar      1 RES1    0.0000
     15 N2         6.2753    1.0775    8.5148 N.pl3     1 RES1    0.0000
     16 O2         6.9095    2.0553    8.9055 O.2       1 RES1    0.0000
     17 O3         6.8076    0.0370    8.1110 O.2       1 RES1    0.0000
     18 C8         4.1987    2.3465    8.8432 C.ar      1 RES1    0.0000
     19 H6         4.7053    3.1121    8.9951 H         1 RES1    0.0000
     20 C9         2.8371    2.4048    8.9246 C.ar      1 RES1    0.0000
     21 H7         2.4217    3.2152    9.1126 H         1 RES1    0.0000
     22 C10        2.0523    1.2463    8.7255 C.ar      1 RES1    0.0000
     23 C11       -0.2229    3.4227    8.1637 C.ar      1 RES1    0.0000
     24 C12       -0.4159    4.7561    8.4259 C.ar      1 RES1    0.0000
     25 H8        -0.3901    5.0580    9.3056 H         1 RES1    0.0000
     26 C13       -0.6466    5.6582    7.4028 C.ar      1 RES1    0.0000
     27 H9        -0.7679    6.5581    7.6009 H         1 RES1    0.0000
     28 C14       -0.6965    5.2363    6.1083 C.ar      1 RES1    0.0000
     29 H10       -0.8569    5.8437    5.4234 H         1 RES1    0.0000
     30 C15       -0.5114    3.9205    5.8272 C.ar      1 RES1    0.0000
     31 H11       -0.5469    3.6247    4.9454 H         1 RES1    0.0000
     32 C16       -0.2689    3.0180    6.8487 C.ar      1 RES1    0.0000
     33 H12       -0.1347    2.1217    6.6425 H         1 RES1    0.0000
     34 C17       -0.1862   -0.6886   10.2161 C.ar      1 RES1    0.0000
     35 C18        0.9197   -0.9627   11.0112 C.ar      1 RES1    0.0000
     36 H13        1.7621   -0.6811   10.7355 H         1 RES1    0.0000
     37 C19        0.7875   -1.6448   12.2023 C.ar      1 RES1    0.0000
     38 H14        1.5403   -1.8327   12.7150 H         1 RES1    0.0000
     39 C20       -0.4434   -2.0450   12.6326 C.ar      1 RES1    0.0000
     40 H15       -0.5308   -2.4934   13.4421 H         1 RES1    0.0000
     41 C21       -1.5516   -1.7837   11.8688 C.ar      1 RES1    0.0000
     42 H16       -2.3902   -2.0578   12.1604 H         1 RES1    0.0000
     43 C22       -1.4247   -1.1115   10.6622 C.ar      1 RES1    0.0000
     44 H17       -2.1814   -0.9439   10.1477 H         1 RES1    0.0000
     45 C23       -0.3476   -2.1446    7.5193 C.3       1 RES1    0.0000
     46 H18       -0.0034   -2.6183    6.7587 H         1 RES1    0.0000
     47 H19       -1.2614   -1.8980    7.3568 H         1 RES1    0.0000
     48 H20       -0.3011   -2.7084    8.2960 H         1 RES1    0.0000
@<TRIPOS>BOND
     1    1    2 1
     2    2    3 1
     3    4    2 1
     4    5    1 1
     5    6    5 1
     6    7    5 1
     7    8    7 1
     8    9    7 1
     9   10    9 2
    10   11    9 1
    11   12   11 ar
    12   13   12 1
    13   14   12 ar
    14   15   14 1
    15   16   15 2
    16   17   15 2
    17   18   14 ar
    18   19   18 1
    19   20   18 ar
    20   21   20 1
    21   22    1 1
    22   23    2 1
    23   24   23 ar
    24   25   24 1
    25   26   24 ar
    26   27   26 1
    27   28   26 ar
    28   29   28 1
    29   30   28 ar
    30   31   30 1
    31   32   23 ar
    32   33   32 1
    33   34    5 1
    34   35   34 ar
    35   36   35 1
    36   37   35 ar
    37   38   37 1
    38   39   37 ar
    39   40   39 1
    40   41   39 ar
    41   42   41 1
    42   43   34 ar
    43   44   43 1
    44   45    7 1
    45   46   45 1
    46   47   45 1
    47   48   45 1
    48   11   22 ar
    49   20   22 ar
    50   30   32 ar
    51   41   43 ar
@<TRIPOS>SUBSTRUCTURE
     1 RES1 1

@<TRIPOS>CRYSIN
  10.2874   14.5220   13.4231  90.0000 107.8230  90.0000  14 1

