# MOL2 file generated by ConQuest
# Please check atom types

@<TRIPOS>MOLECULE
FOBCUV
    66    70     1
SMALL
NO_CHARGES
****
Generated from CSD

@<TRIPOS>ATOM
      1 C1         6.5722    9.5924   -3.4483 C.3       1 RES1    0.0000
      2 C2         6.5213    9.1146   -2.0327 C.2       1 RES1    0.0000
      3 O1         6.7023    9.7686   -1.0957 O.2       1 RES1    0.0000
      4 O2         6.3065    7.8802   -1.9042 O.3       1 RES1    0.0000
      5 C3         6.2430    7.2444   -0.5919 C.3       1 RES1    0.0000
      6 C4         4.9562    6.4709   -0.5415 C.3       1 RES1    0.0000
      7 C5         4.8841    5.6867    0.7758 C.3       1 RES1    0.0000
      8 C6         6.0549    4.7190    0.9823 C.3       1 RES1    0.0000
      9 C7         7.3551    5.4900    0.8060 C.2       1 RES1    0.0000
     10 C8         7.4625    6.3599   -0.4156 C.3       1 RES1    0.0000
     11 C9         6.0056    3.6101   -0.0680 C.3       1 RES1    0.0000
     12 C10        8.3575    5.4260    1.6725 C.2       1 RES1    0.0000
     13 C11        8.3912    4.5464    2.8866 C.3       1 RES1    0.0000
     14 C12        7.3104    3.4870    2.8488 C.3       1 RES1    0.0000
     15 C13        5.9813    4.1314    2.4332 C.3       1 RES1    0.0000
     16 C14        4.7689    3.2071    2.6095 C.3       1 RES1    0.0000
     17 C15        4.7187    2.4844    3.9596 C.3       1 RES1    0.0000
     18 C16        6.0103    1.7556    4.2115 C.3       1 RES1    0.0000
     19 C17        7.1474    2.7860    4.1989 C.3       1 RES1    0.0000
     20 C18        6.2305    0.6238    3.2064 C.3       1 RES1    0.0000
     21 C19        8.3504    2.0717    4.8059 C.3       1 RES1    0.0000
     22 C20        7.6992    1.2392    5.9091 C.3       1 RES1    0.0000
     23 C21        6.1897    1.2343    5.6724 C.3       1 RES1    0.0000
     24 C22        5.8786   -0.2099    5.9192 C.2       1 RES1    0.0000
     25 C23        4.5032   -0.7939    6.0099 C.3       1 RES1    0.0000
     26 N1         6.9162   -0.9460    6.0451 N.2       1 RES1    0.0000
     27 O3         8.0910   -0.1279    5.9091 O.3       1 RES1    0.0000
     28 O4         7.8849    1.7725    7.2441 O.3       1 RES1    0.0000
     29 C24        9.1381    1.9318    7.7579 C.2       1 RES1    0.0000
     30 O5        10.1342    1.6180    7.1761 O.2       1 RES1    0.0000
     31 C25        9.0597    2.5411    9.1055 C.3       1 RES1    0.0000
     32 H1         7.1788    8.9915   -4.0729 H         1 RES1    0.0000
     33 H2         7.1631   10.4249   -3.2115 H         1 RES1    0.0000
     34 H3         5.7948   10.2584   -3.6674 H         1 RES1    0.0000
     35 H4         6.1404    7.9008    0.0302 H         1 RES1    0.0000
     36 H5         4.1192    7.1503   -0.6121 H         1 RES1    0.0000
     37 H6         4.9272    5.7759   -1.3677 H         1 RES1    0.0000
     38 H7         4.8676    6.4154    1.5289 H         1 RES1    0.0000
     39 H8         4.0635    5.1823    1.0126 H         1 RES1    0.0000
     40 H9         7.4452    5.7301   -1.2241 H         1 RES1    0.0000
     41 H10        8.3700    6.8305   -0.3149 H         1 RES1    0.0000
     42 H11        6.7321    2.7993    0.1058 H         1 RES1    0.0000
     43 H12        5.0346    3.3024   -0.1562 H         1 RES1    0.0000
     44 H13        6.1701    4.0011   -1.0906 H         1 RES1    0.0000
     45 H14        9.1381    5.9799    1.5415 H         1 RES1    0.0000
     46 H15        8.2235    5.1775    3.6976 H         1 RES1    0.0000
     47 H16        9.3034    4.1555    3.1208 H         1 RES1    0.0000
     48 H17        7.5448    2.7969    2.1183 H         1 RES1    0.0000
     49 H18        5.8841    4.8891    3.0931 H         1 RES1    0.0000
     50 H19        4.8159    2.4904    1.9143 H         1 RES1    0.0000
     51 H20        3.9546    3.7428    2.5087 H         1 RES1    0.0000
     52 H21        4.6646    3.1540    4.7631 H         1 RES1    0.0000
     53 H22        3.9154    1.7821    4.0351 H         1 RES1    0.0000
     54 H23        6.8449    3.4870    4.9218 H         1 RES1    0.0000
     55 H24        6.2305    0.9870    2.2090 H         1 RES1    0.0000
     56 H25        5.5228    0.0374    3.3047 H         1 RES1    0.0000
     57 H26        7.0189    0.1098    3.3450 H         1 RES1    0.0000
     58 H27        8.7478    1.4274    4.0805 H         1 RES1    0.0000
     59 H28        9.0558    2.6545    5.1711 H         1 RES1    0.0000
     60 H29        5.6976    1.8376    6.2416 H         1 RES1    0.0000
     61 H30        4.4805   -1.7580    6.1283 H         1 RES1    0.0000
     62 H31        4.0776   -0.4790    6.9015 H         1 RES1    0.0000
     63 H32        4.1372   -0.6938    5.1258 H         1 RES1    0.0000
     64 H33        8.6036    2.0319    9.5790 H         1 RES1    0.0000
     65 H34       10.0393    2.7546    9.4128 H         1 RES1    0.0000
     66 H35        8.4092    3.2747    8.9896 H         1 RES1    0.0000
@<TRIPOS>BOND
     1    1    2 1
     2    2    3 2
     3    4    2 1
     4    5    4 1
     5    6    5 1
     6    7    6 1
     7    8    7 1
     8    9    8 1
     9   10    5 1
    10   11    8 1
    11   12    9 2
    12   13   12 1
    13   14   13 1
    14   15    8 1
    15   16   15 1
    16   17   16 1
    17   18   17 1
    18   19   14 1
    19   20   18 1
    20   21   19 1
    21   22   21 1
    22   23   18 1
    23   24   23 1
    24   25   24 1
    25   26   24 2
    26   27   22 1
    27   28   22 1
    28   29   28 1
    29   30   29 2
    30   31   29 1
    31   32    1 1
    32   33    1 1
    33   34    1 1
    34   35    5 1
    35   36    6 1
    36   37    6 1
    37   38    7 1
    38   39    7 1
    39   40   10 1
    40   41   10 1
    41   42   11 1
    42   43   11 1
    43   44   11 1
    44   45   12 1
    45   46   13 1
    46   47   13 1
    47   48   14 1
    48   49   15 1
    49   50   16 1
    50   51   16 1
    51   52   17 1
    52   53   17 1
    53   54   19 1
    54   55   20 1
    55   56   20 1
    56   57   20 1
    57   58   21 1
    58   59   21 1
    59   60   23 1
    60   61   25 1
    61   62   25 1
    62   63   25 1
    63   64   31 1
    64   65   31 1
    65   66   31 1
    66    9   10 1
    67   14   15 1
    68   18   19 1
    69   22   23 1
    70   26   27 1
@<TRIPOS>SUBSTRUCTURE
     1 RES1 1

@<TRIPOS>CRYSIN
   7.8371   12.0659   25.1881  90.0000  90.0000  90.0000  19 1

