# MOL2 file generated by ConQuest
# Please check atom types

@<TRIPOS>MOLECULE
FOBNIU
    24    25     1
SMALL
NO_CHARGES
****
Generated from CSD

@<TRIPOS>ATOM
      1 N1         2.8905    2.3142    9.6333 N.am      1 RES1    0.0000
      2 C1         1.5550    2.6354    9.8795 C.2       1 RES1    0.0000
      3 O1         1.1771    3.2602   10.8391 O.2       1 RES1    0.0000
      4 C2         0.7394    2.0972    8.7299 C.3       1 RES1    0.0000
      5 C3         1.7322    1.3694    7.8255 C.3       1 RES1    0.0000
      6 C4         3.0827    1.6471    8.4138 C.2       1 RES1    0.0000
      7 O2         4.1706    1.3894    7.9632 O.2       1 RES1    0.0000
      8 C5         3.9765    2.7027   10.4650 C.ar      1 RES1    0.0000
      9 C6         5.0400    3.4506    9.9614 C.ar      1 RES1    0.0000
     10 N2         4.9807    4.0090    8.6077 N.pl3     1 RES1    0.0000
     11 O3         3.9026    4.4618    8.2265 O.2       1 RES1    0.0000
     12 O4         6.0110    4.0281    7.9437 O.2       1 RES1    0.0000
     13 C7         6.1585    3.7398   10.7228 C.ar      1 RES1    0.0000
     14 C8         6.1896    3.3242   12.0454 C.ar      1 RES1    0.0000
     15 C9         5.1264    2.6077   12.5725 C.ar      1 RES1    0.0000
     16 C10        4.0341    2.2785   11.7851 C.ar      1 RES1    0.0000
     17 H1         0.2981    2.8355    8.2401 H         1 RES1    0.0000
     18 H2         0.0444    1.4735    9.0574 H         1 RES1    0.0000
     19 H3         1.5482    0.3968    7.8168 H         1 RES1    0.0000
     20 H4         1.6777    1.7127    6.8982 H         1 RES1    0.0000
     21 H5         6.8914    4.2141   10.3466 H         1 RES1    0.0000
     22 H6         6.9399    3.5310   12.5905 H         1 RES1    0.0000
     23 H7         5.1465    2.3389   13.4828 H         1 RES1    0.0000
     24 H8         3.3245    1.7622   12.1492 H         1 RES1    0.0000
@<TRIPOS>BOND
     1    1    2 1
     2    2    3 2
     3    4    2 1
     4    5    4 1
     5    6    1 1
     6    7    6 2
     7    8    1 1
     8    9    8 ar
     9   10    9 1
    10   11   10 2
    11   12   10 2
    12   13    9 ar
    13   14   13 ar
    14   15   14 ar
    15   16    8 ar
    16   17    4 1
    17   18    4 1
    18   19    5 1
    19   20    5 1
    20   21   13 1
    21   22   14 1
    22   23   15 1
    23   24   16 1
    24    5    6 1
    25   15   16 ar
@<TRIPOS>SUBSTRUCTURE
     1 RES1 1

@<TRIPOS>CRYSIN
   8.3703    8.2500   14.1375  90.0000 101.0185  90.0000  14 1

