# MOL2 file generated by ConQuest
# Please check atom types

@<TRIPOS>MOLECULE
FOCMUF
    81    83     1
SMALL
NO_CHARGES
****
Generated from CSD

@<TRIPOS>ATOM
      1 O1         1.2657    8.9360    1.4513 O.3       1 RES1    0.0000
      2 O2        -0.8751    9.3426    1.3001 O.2       1 RES1    0.0000
      3 N1         1.0678    6.3323    1.0001 N.am      1 RES1    0.0000
      4 C1         0.0461    8.5912    1.1977 C.2       1 RES1    0.0000
      5 C2        -0.0955    7.1636    0.7310 C.3       1 RES1    0.0000
      6 C3        -1.3988    6.5461    1.2847 C.3       1 RES1    0.0000
      7 C4        -1.3459    6.3263    2.7872 C.3       1 RES1    0.0000
      8 C5        -1.7092    5.2496    0.5512 C.3       1 RES1    0.0000
      9 O3         1.4909    5.9814   -1.1989 O.2       1 RES1    0.0000
     10 N2         3.2427    4.7737    1.7454 N.am      1 RES1    0.0000
     11 C6         1.7570    5.7962   -0.0274 C.2       1 RES1    0.0000
     12 C7         2.8760    4.8294    0.3143 C.3       1 RES1    0.0000
     13 C8         2.4342    3.3883    0.0214 C.3       1 RES1    0.0000
     14 C9         1.9105    2.8838    1.3513 C.3       1 RES1    0.0000
     15 C10        2.7685    3.5343    2.4014 C.3       1 RES1    0.0000
     16 O4         4.3003    6.7269    1.6085 O.2       1 RES1    0.0000
     17 O5         1.7774    6.4317    3.9052 O.2       1 RES1    0.0000
     18 O6         0.9109    7.7991    6.1137 O.3       1 RES1    0.0000
     19 N3         2.2619    7.5596    5.7923 N.am      1 RES1    0.0000
     20 C11        3.9933    5.7390    2.2645 C.2       1 RES1    0.0000
     21 C12        4.4845    5.5809    3.7004 C.3       1 RES1    0.0000
     22 C13        4.0990    6.7916    4.5314 C.3       1 RES1    0.0000
     23 C14        2.5911    6.8955    4.7041 C.2       1 RES1    0.0000
     24 C15        6.0368    5.4770    3.6468 C.3       1 RES1    0.0000
     25 C16        6.5417    4.2346    2.8920 C.3       1 RES1    0.0000
     26 C17        8.0446    4.1111    2.9598 C.3       1 RES1    0.0000
     27 C18        1.4602   10.3214    1.9478 C.3       1 RES1    0.0000
     28 C19        2.8623   10.7024    1.6883 C.ar      1 RES1    0.0000
     29 C20        3.2120   11.5472    0.6703 C.ar      1 RES1    0.0000
     30 C21        4.5084   11.8981    0.4822 C.ar      1 RES1    0.0000
     31 C22        5.4671   11.4012    1.2513 C.ar      1 RES1    0.0000
     32 C23        5.1788   10.5624    2.2431 C.ar      1 RES1    0.0000
     33 C24        3.8773   10.1919    2.4907 C.ar      1 RES1    0.0000
     34 C25        0.3975    6.6395    6.8376 C.3       1 RES1    0.0000
     35 C26       -0.9450    7.0597    7.3972 C.ar      1 RES1    0.0000
     36 C27       -2.0606    7.1711    6.5971 C.ar      1 RES1    0.0000
     37 C28       -3.2666    7.5476    7.1388 C.ar      1 RES1    0.0000
     38 C29       -3.3724    7.8021    8.4414 C.ar      1 RES1    0.0000
     39 C30       -2.2824    7.7162    9.2629 C.ar      1 RES1    0.0000
     40 C31       -1.0457    7.3458    8.7283 C.ar      1 RES1    0.0000
     41 H1         1.3646    6.1742    1.9169 H         1 RES1    0.0000
     42 H2        -0.1535    7.2283   -0.2977 H         1 RES1    0.0000
     43 H3        -2.1152    7.2434    1.0954 H         1 RES1    0.0000
     44 H4        -2.2005    5.8881    3.1551 H         1 RES1    0.0000
     45 H5        -1.1770    7.1681    3.2384 H         1 RES1    0.0000
     46 H6        -0.5800    5.6321    3.0479 H         1 RES1    0.0000
     47 H7        -2.5075    4.8641    0.9168 H         1 RES1    0.0000
     48 H8        -0.9552    4.5478    0.7144 H         1 RES1    0.0000
     49 H9        -1.7911    5.3459   -0.4405 H         1 RES1    0.0000
     50 H10        3.6675    5.1652   -0.2262 H         1 RES1    0.0000
     51 H11        3.2069    2.7859   -0.2619 H         1 RES1    0.0000
     52 H12        1.7399    3.3732   -0.7501 H         1 RES1    0.0000
     53 H13        1.9276    1.8974    1.4287 H         1 RES1    0.0000
     54 H14        0.9211    3.2226    1.4644 H         1 RES1    0.0000
     55 H15        2.2517    3.7196    3.2622 H         1 RES1    0.0000
     56 H16        3.5310    2.8913    2.6431 H         1 RES1    0.0000
     57 H17        2.9681    7.8608    6.4411 H         1 RES1    0.0000
     58 H18        4.0769    4.7888    4.1433 H         1 RES1    0.0000
     59 H19        4.4521    7.6500    4.0719 H         1 RES1    0.0000
     60 H20        4.5374    6.7464    5.4291 H         1 RES1    0.0000
     61 H21        6.3967    6.2645    3.2146 H         1 RES1    0.0000
     62 H22        6.3797    5.4965    4.5957 H         1 RES1    0.0000
     63 H23        6.1238    3.3883    3.3099 H         1 RES1    0.0000
     64 H24        6.2603    4.2768    1.9407 H         1 RES1    0.0000
     65 H25        8.3755    3.2678    2.4884 H         1 RES1    0.0000
     66 H26        8.3584    4.0358    3.9766 H         1 RES1    0.0000
     67 H27        8.4778    4.9243    2.5717 H         1 RES1    0.0000
     68 H28        1.2452   10.3757    2.9765 H         1 RES1    0.0000
     69 H29        0.7847   11.0081    1.5597 H         1 RES1    0.0000
     70 H30        2.4393   11.9418    0.0476 H         1 RES1    0.0000
     71 H31        4.7421   12.5140   -0.2977 H         1 RES1    0.0000
     72 H32        6.4820   11.6557    1.0239 H         1 RES1    0.0000
     73 H33        5.9191   10.2100    2.8217 H         1 RES1    0.0000
     74 H34        3.6504    9.5173    3.2980 H         1 RES1    0.0000
     75 H35        1.0235    6.3097    7.5246 H         1 RES1    0.0000
     76 H36        0.2729    5.7676    6.1911 H         1 RES1    0.0000
     77 H37       -1.9787    7.0024    5.6196 H         1 RES1    0.0000
     78 H38       -4.0427    7.6048    6.5364 H         1 RES1    0.0000
     79 H39       -4.1963    8.0867    8.8700 H         1 RES1    0.0000
     80 H40       -2.3540    7.9813   10.3225 H         1 RES1    0.0000
     81 H41       -0.2047    7.2434    9.3581 H         1 RES1    0.0000
@<TRIPOS>BOND
     1    1    4 1
     2    2    4 2
     3    3    5 1
     4    4    5 1
     5    5    6 1
     6    6    7 1
     7    7   44 1
     8    8    6 1
     9    9   11 2
    10   10   12 1
    11   11    3 1
    12   12   11 1
    13   13   12 1
    14   14   13 1
    15   15   10 1
    16   16   20 2
    17   17   23 2
    18   18   19 1
    19   19   23 1
    20   20   10 1
    21   21   20 1
    22   22   21 1
    23   23   22 1
    24   24   21 1
    25   25   24 1
    26   26   25 1
    27   27    1 1
    28   28   27 1
    29   29   28 ar
    30   30   29 ar
    31   31   30 ar
    32   32   31 ar
    33   33   28 ar
    34   34   18 1
    35   35   34 1
    36   36   35 ar
    37   37   36 ar
    38   38   37 ar
    39   39   38 ar
    40   40   35 ar
    41   41    3 1
    42   42    5 1
    43   43    6 1
    44   45    7 1
    45   46    7 1
    46   47    8 1
    47   48    8 1
    48   49    8 1
    49   50   12 1
    50   51   13 1
    51   52   13 1
    52   53   14 1
    53   54   14 1
    54   55   15 1
    55   56   15 1
    56   57   19 1
    57   58   21 1
    58   59   22 1
    59   60   22 1
    60   61   24 1
    61   62   24 1
    62   63   25 1
    63   64   25 1
    64   65   26 1
    65   66   26 1
    66   67   26 1
    67   68   27 1
    68   69   27 1
    69   70   29 1
    70   71   30 1
    71   72   31 1
    72   73   32 1
    73   74   33 1
    74   75   34 1
    75   76   34 1
    76   77   36 1
    77   78   37 1
    78   79   38 1
    79   80   39 1
    80   81   40 1
    81   14   15 1
    82   32   33 ar
    83   39   40 ar
@<TRIPOS>SUBSTRUCTURE
     1 RES1 1

@<TRIPOS>CRYSIN
  17.0580   15.0590   11.9060  90.0000  90.0000  90.0000  19 1

