# MOL2 file generated by ConQuest
# Please check atom types

@<TRIPOS>MOLECULE
FODPIY
    67    68     1
SMALL
NO_CHARGES
****
Generated from CSD

@<TRIPOS>ATOM
      1 O1         9.6454    9.2311   10.6468 O.3       1 RES1    0.0000
      2 O2        10.1366    7.3293   11.6193 O.2       1 RES1    0.0000
      3 O3         6.2067    7.3972    7.3198 O.3       1 RES1    0.0000
      4 O4         5.7486    3.4379    8.7666 O.3       1 RES1    0.0000
      5 N1         6.4315    5.9960    7.6488 N.3       1 RES1    0.0000
      6 C1        10.5651    6.0135    4.9244 C.3       1 RES1    0.0000
      7 C2        10.6009    4.7050    7.0503 C.3       1 RES1    0.0000
      8 C3        10.0424    5.9225    6.3421 C.3       1 RES1    0.0000
      9 C4         8.5401    5.9632    6.3487 C.3       1 RES1    0.0000
     10 C5         7.8801    5.8171    7.7202 C.3       1 RES1    0.0000
     11 C6         8.5228    6.6626    8.7468 C.1       1 RES1    0.0000
     12 C7         9.0364    7.2926    9.6109 C.1       1 RES1    0.0000
     13 C8         9.6579    7.9513   10.7261 C.2       1 RES1    0.0000
     14 C9        10.2572   10.0958   11.6774 C.3       1 RES1    0.0000
     15 C10        9.5780    9.9321   12.9603 C.3       1 RES1    0.0000
     16 C11       11.6752    9.8363   11.8095 C.3       1 RES1    0.0000
     17 C12       10.0706   11.4594   11.0762 C.3       1 RES1    0.0000
     18 C13        5.7755    5.8355    8.9556 C.3       1 RES1    0.0000
     19 C14        6.1268    4.5118    9.6149 C.3       1 RES1    0.0000
     20 C15        6.0223    2.1501    9.3493 C.3       1 RES1    0.0000
     21 C16        5.2466    1.8866   10.6019 C.ar      1 RES1    0.0000
     22 C17        3.9743    2.3593   10.7670 C.ar      1 RES1    0.0000
     23 C18        3.2846    2.0894   11.9377 C.ar      1 RES1    0.0000
     24 C19        3.8659    1.3461   12.9220 C.ar      1 RES1    0.0000
     25 C20        5.1064    0.8703   12.7754 C.ar      1 RES1    0.0000
     26 C21        5.8103    1.1361   11.6140 C.ar      1 RES1    0.0000
     27 C22        4.2921    5.9880    8.8485 C.ar      1 RES1    0.0000
     28 C23        3.5946    5.6199    7.7109 C.ar      1 RES1    0.0000
     29 C24        2.2260    5.6463    7.7189 C.ar      1 RES1    0.0000
     30 C25        1.5336    6.0710    8.8102 C.ar      1 RES1    0.0000
     31 C26        2.2104    6.4934    9.9254 C.ar      1 RES1    0.0000
     32 C27        3.5860    6.4295    9.9439 C.ar      1 RES1    0.0000
     33 H1        10.1859    5.3165    4.4025 H         1 RES1    0.0000
     34 H2        10.3268    6.8543    4.5518 H         1 RES1    0.0000
     35 H3        11.5116    5.9265    4.9297 H         1 RES1    0.0000
     36 H4        10.1669    3.9241    6.7279 H         1 RES1    0.0000
     37 H5        10.4532    4.7864    7.9858 H         1 RES1    0.0000
     38 H6        11.5344    4.6419    6.8825 H         1 RES1    0.0000
     39 H7        10.3499    6.6906    6.8098 H         1 RES1    0.0000
     40 H8         8.2684    6.7968    5.9814 H         1 RES1    0.0000
     41 H9         8.2253    5.2567    5.7964 H         1 RES1    0.0000
     42 H10        8.0225    4.9173    7.9897 H         1 RES1    0.0000
     43 H11        9.8917    9.1393   13.3845 H         1 RES1    0.0000
     44 H12        9.7600   10.6794   13.5140 H         1 RES1    0.0000
     45 H13        8.6421    9.8618   12.8163 H         1 RES1    0.0000
     46 H14       11.8059    8.9764   12.1927 H         1 RES1    0.0000
     47 H15       12.0667   10.4958   12.3711 H         1 RES1    0.0000
     48 H16       12.0846    9.8658   10.9533 H         1 RES1    0.0000
     49 H17       10.4098   12.1173   11.6721 H         1 RES1    0.0000
     50 H18        9.1450   11.6151   10.9256 H         1 RES1    0.0000
     51 H19       10.5385   11.5081   10.2504 H         1 RES1    0.0000
     52 H20        6.0931    6.5285    9.5211 H         1 RES1    0.0000
     53 H21        7.0619    4.4750    9.7721 H         1 RES1    0.0000
     54 H22        5.6639    4.4383   10.4407 H         1 RES1    0.0000
     55 H23        6.9484    2.1022    9.5541 H         1 RES1    0.0000
     56 H24        5.8033    1.4786    8.7138 H         1 RES1    0.0000
     57 H25        3.5644    2.8718   10.0800 H         1 RES1    0.0000
     58 H26        2.4032    2.4231   12.0553 H         1 RES1    0.0000
     59 H27        3.3850    1.1657   13.7201 H         1 RES1    0.0000
     60 H28        5.5039    0.3513   13.4651 H         1 RES1    0.0000
     61 H29        6.6932    0.7976   11.5122 H         1 RES1    0.0000
     62 H30        4.0636    5.3509    6.9287 H         1 RES1    0.0000
     63 H31        1.7512    5.3629    6.9472 H         1 RES1    0.0000
     64 H32        0.5837    6.0750    8.7997 H         1 RES1    0.0000
     65 H33        1.7359    6.8271   10.6772 H         1 RES1    0.0000
     66 H34        4.0553    6.6938   10.7261 H         1 RES1    0.0000
     67 H35        6.0892    7.3541    6.2800 H         1 RES1    0.0000
@<TRIPOS>BOND
     1    1   13 1
     2    2   13 2
     3    3    5 1
     4    4   19 1
     5    5   10 1
     6    6    8 1
     7    7    8 1
     8    8    9 1
     9    9   10 1
    10   10   11 1
    11   11   12 3
    12   12   13 1
    13   14    1 1
    14   15   14 1
    15   16   14 1
    16   17   14 1
    17   18    5 1
    18   19   18 1
    19   20    4 1
    20   21   20 1
    21   22   21 ar
    22   23   22 ar
    23   24   23 ar
    24   25   24 ar
    25   26   21 ar
    26   27   18 1
    27   28   27 ar
    28   29   28 ar
    29   30   29 ar
    30   31   30 ar
    31   32   27 ar
    32   33    6 1
    33   34    6 1
    34   35    6 1
    35   36    7 1
    36   37    7 1
    37   38    7 1
    38   39    8 1
    39   40    9 1
    40   41    9 1
    41   42   10 1
    42   43   15 1
    43   44   15 1
    44   45   15 1
    45   46   16 1
    46   47   16 1
    47   48   16 1
    48   49   17 1
    49   50   17 1
    50   51   17 1
    51   52   18 1
    52   53   19 1
    53   54   19 1
    54   55   20 1
    55   56   20 1
    56   57   22 1
    57   58   23 1
    58   59   24 1
    59   60   25 1
    60   61   26 1
    61   62   28 1
    62   63   29 1
    63   64   30 1
    64   65   31 1
    65   66   32 1
    66   67    3 1
    67   25   26 ar
    68   31   32 ar
@<TRIPOS>SUBSTRUCTURE
     1 RES1 1

@<TRIPOS>CRYSIN
  12.2810    7.9840   13.2360  90.0000  93.4000  90.0000   4 1

