# MOL2 file generated by ConQuest
# Please check atom types

@<TRIPOS>MOLECULE
FOFDUA
    69    72     1
SMALL
NO_CHARGES
****
Generated from CSD

@<TRIPOS>ATOM
      1 C1         9.1213    4.5606   -1.0646 C.3       1 RES1    0.0000
      2 C2         8.1887    3.7020   -0.2189 C.3       1 RES1    0.0000
      3 O1         7.5141    4.5503    0.7218 O.3       1 RES1    0.0000
      4 C3         6.7133    3.9528    1.6471 C.ar      1 RES1    0.0000
      5 C4         6.2076    2.6629    1.5449 C.ar      1 RES1    0.0000
      6 C5         5.3892    2.1794    2.5490 C.ar      1 RES1    0.0000
      7 C6         5.0952    2.9841    3.6341 C.ar      1 RES1    0.0000
      8 C7         5.5948    4.2649    3.7346 C.ar      1 RES1    0.0000
      9 C8         6.3937    4.7480    2.7373 C.ar      1 RES1    0.0000
     10 N1         4.2168    2.4868    4.6808 N.pl3     1 RES1    0.0000
     11 O2         3.6635    1.4140    4.5258 O.2       1 RES1    0.0000
     12 O3         4.0615    3.1757    5.6786 O.2       1 RES1    0.0000
     13 H1         4.9966    1.3043    2.5039 H         1 RES1    0.0000
     14 H2         6.3977    2.1107    0.8261 H         1 RES1    0.0000
     15 H3         5.4108    4.7741    4.4883 H         1 RES1    0.0000
     16 H4         6.7406    5.6242    2.7603 H         1 RES1    0.0000
     17 H5         8.6671    2.9973    0.2751 H         1 RES1    0.0000
     18 H6         7.5488    3.2490   -0.7375 H         1 RES1    0.0000
     19 C2I        8.2626    5.4932   -1.9103 C.3       1 RES1    0.0000
     20 C2L        9.9800    3.6281   -1.9103 C.3       1 RES1    0.0000
     21 C2G       10.0539    5.4193   -0.2189 C.3       1 RES1    0.0000
     22 O1I        9.1109    6.1678   -2.8510 O.3       1 RES1    0.0000
     23 O1L        9.1317    2.9535   -2.8510 O.3       1 RES1    0.0000
     24 O1G       10.7285    4.5710    0.7218 O.3       1 RES1    0.0000
     25 C3I        8.5135    6.9687   -3.7763 C.ar      1 RES1    0.0000
     26 C3L        9.7291    2.1526   -3.7763 C.ar      1 RES1    0.0000
     27 C3G       11.5293    5.1685    1.6471 C.ar      1 RES1    0.0000
     28 C4I        7.2235    7.4744   -3.6741 C.ar      1 RES1    0.0000
     29 C4L       11.0191    1.6469   -3.6741 C.ar      1 RES1    0.0000
     30 C4G       12.0350    6.4584    1.5449 C.ar      1 RES1    0.0000
     31 C5I        6.7401    8.2927   -4.6782 C.ar      1 RES1    0.0000
     32 C5L       11.5025    0.8286   -4.6782 C.ar      1 RES1    0.0000
     33 C5G       12.8534    6.9419    2.5490 C.ar      1 RES1    0.0000
     34 C6I        7.5448    8.5868   -5.7633 C.ar      1 RES1    0.0000
     35 C6L       10.6978    0.5345   -5.7633 C.ar      1 RES1    0.0000
     36 C6G       13.1474    6.1372    3.6341 C.ar      1 RES1    0.0000
     37 C7I        8.8256    8.0871   -5.8637 C.ar      1 RES1    0.0000
     38 C7L        9.4170    1.0342   -5.8637 C.ar      1 RES1    0.0000
     39 C7G       12.6478    4.8564    3.7346 C.ar      1 RES1    0.0000
     40 C8I        9.3087    7.2883   -4.8664 C.ar      1 RES1    0.0000
     41 C8L        8.9339    1.8330   -4.8664 C.ar      1 RES1    0.0000
     42 C8G       11.8489    4.3733    2.7373 C.ar      1 RES1    0.0000
     43 N1I        7.0475    9.4652   -6.8100 N.pl3     1 RES1    0.0000
     44 N1L       11.1951   -0.3439   -6.8100 N.pl3     1 RES1    0.0000
     45 N1G       14.0258    6.6345    4.6808 N.pl3     1 RES1    0.0000
     46 O2I        5.9746   10.0185   -6.6549 O.2       1 RES1    0.0000
     47 O2L       12.2680   -0.8972   -6.6549 O.2       1 RES1    0.0000
     48 O2G       14.5791    7.7073    4.5258 O.2       1 RES1    0.0000
     49 O3I        7.7363    9.6204   -7.8078 O.2       1 RES1    0.0000
     50 O3L       10.5063   -0.4991   -7.8078 O.2       1 RES1    0.0000
     51 O3G       14.1811    5.9456    5.6786 O.2       1 RES1    0.0000
     52 H1I        5.8650    8.6853   -4.6331 H         1 RES1    0.0000
     53 H1L       12.3776    0.4360   -4.6331 H         1 RES1    0.0000
     54 H1G       13.2460    7.8170    2.5039 H         1 RES1    0.0000
     55 H2I        6.6713    7.2843   -2.9553 H         1 RES1    0.0000
     56 H2L       11.5713    1.8370   -2.9553 H         1 RES1    0.0000
     57 H2G       11.8449    7.0106    0.8261 H         1 RES1    0.0000
     58 H3I        9.3347    8.2712   -6.6175 H         1 RES1    0.0000
     59 H3L        8.9079    0.8501   -6.6175 H         1 RES1    0.0000
     60 H3G       12.8318    4.3472    4.4883 H         1 RES1    0.0000
     61 H4I       10.1848    6.9413   -4.8894 H         1 RES1    0.0000
     62 H4L        8.0578    2.1800   -4.8894 H         1 RES1    0.0000
     63 H4G       11.5020    3.4971    2.7603 H         1 RES1    0.0000
     64 H5I        7.5579    5.0149   -2.4043 H         1 RES1    0.0000
     65 H5L       10.6847    4.1064   -2.4043 H         1 RES1    0.0000
     66 H5G        9.5755    6.1240    0.2751 H         1 RES1    0.0000
     67 H6I        7.8097    6.1332   -1.3916 H         1 RES1    0.0000
     68 H6L       10.4329    2.9881   -1.3916 H         1 RES1    0.0000
     69 H6G       10.6938    5.8723   -0.7375 H         1 RES1    0.0000
@<TRIPOS>BOND
     1    1    2 1
     2    2    3 1
     3    3    4 1
     4    4    5 ar
     5    5    6 ar
     6    6    7 ar
     7    7    8 ar
     8    8    9 ar
     9    9    4 ar
    10   10    7 1
    11   11   10 2
    12   12   10 2
    13   13    6 1
    14   14    5 1
    15   15    8 1
    16   16    9 1
    17   17    2 1
    18   18    2 1
    19   19    1 1
    20   20    1 1
    21   21    1 1
    22   22   19 1
    23   23   20 1
    24   24   21 1
    25   25   22 1
    26   26   23 1
    27   27   24 1
    28   28   25 ar
    29   29   26 ar
    30   30   27 ar
    31   31   28 ar
    32   32   29 ar
    33   33   30 ar
    34   34   31 ar
    35   35   32 ar
    36   36   33 ar
    37   37   34 ar
    38   38   35 ar
    39   39   36 ar
    40   40   25 ar
    41   41   26 ar
    42   42   27 ar
    43   43   34 1
    44   44   35 1
    45   45   36 1
    46   46   43 2
    47   47   44 2
    48   48   45 2
    49   49   43 2
    50   50   44 2
    51   51   45 2
    52   52   31 1
    53   53   32 1
    54   54   33 1
    55   55   28 1
    56   56   29 1
    57   57   30 1
    58   58   37 1
    59   59   38 1
    60   60   39 1
    61   61   40 1
    62   62   41 1
    63   63   42 1
    64   64   19 1
    65   65   20 1
    66   66   21 1
    67   67   19 1
    68   68   20 1
    69   69   21 1
    70   37   40 ar
    71   38   41 ar
    72   39   42 ar
@<TRIPOS>SUBSTRUCTURE
     1 RES1 1

@<TRIPOS>CRYSIN
  18.2426   18.2426    8.5167  90.0000  90.0000  90.0000  88 1

