# MOL2 file generated by ConQuest
# Please check atom types

@<TRIPOS>MOLECULE
FOGLUJ
    67    71     1
SMALL
NO_CHARGES
****
Generated from CSD

@<TRIPOS>ATOM
      1 O1        11.5495   -0.8331   10.0560 O.2       1 RES1    0.0000
      2 O2        10.5112   -1.5797    8.2301 O.3       1 RES1    0.0000
      3 O3         8.6502    3.9476    6.9882 O.2       1 RES1    0.0000
      4 O4         6.9338    2.6518    6.3940 O.3       1 RES1    0.0000
      5 O5        22.0016    2.2551   -5.7276 O.2       1 RES1    0.0000
      6 O6        20.9200    0.8605   -6.8892 O.2       1 RES1    0.0000
      7 N1         7.6769    1.1820   10.3924 N.ar      1 RES1    0.0000
      8 N2        14.1810    1.2806    3.8501 N.ar      1 RES1    0.0000
      9 N3        12.3417    0.9216    2.3877 N.ar      1 RES1    0.0000
     10 N4        16.6985    1.5298    0.6093 N.ar      1 RES1    0.0000
     11 N5        15.0870    0.6113   -0.8000 N.ar      1 RES1    0.0000
     12 N6        21.0784    1.5054   -5.8838 N.pl3     1 RES1    0.0000
     13 C1         8.7511    0.3896   10.3903 C.ar      1 RES1    0.0000
     14 C2         9.5719    0.2655    9.2715 C.ar      1 RES1    0.0000
     15 C3         9.3301    1.0782    8.1511 C.ar      1 RES1    0.0000
     16 C4         8.2395    1.9377    8.1955 C.ar      1 RES1    0.0000
     17 C5         7.4077    1.9255    9.3254 C.ar      1 RES1    0.0000
     18 C6         8.9902   -0.3530   11.6829 C.3       1 RES1    0.0000
     19 H1         9.5413    0.1790   12.2597 H         1 RES1    0.0000
     20 H2         9.4320   -1.1850   11.4962 H         1 RES1    0.0000
     21 H3         8.1495   -0.5259   12.1125 H         1 RES1    0.0000
     22 C7        10.6582   -0.7425    9.2586 C.2       1 RES1    0.0000
     23 C8        11.5617   -2.5490    8.0214 C.3       1 RES1    0.0000
     24 H4        11.3224   -3.1298    7.2957 H         1 RES1    0.0000
     25 H5        11.6806   -3.0678    8.8198 H         1 RES1    0.0000
     26 H6        12.3804   -2.0933    7.8103 H         1 RES1    0.0000
     27 C9         7.9915    2.9620    7.1365 C.2       1 RES1    0.0000
     28 C10        6.5461    3.6618    5.4316 C.3       1 RES1    0.0000
     29 H7         5.8379    3.3221    4.8790 H         1 RES1    0.0000
     30 H8         7.3006    3.8876    4.8820 H         1 RES1    0.0000
     31 H9         6.2410    4.4461    5.8961 H         1 RES1    0.0000
     32 C11        6.1792    2.7870    9.4180 C.3       1 RES1    0.0000
     33 H10        5.4473    2.3476    8.9808 H         1 RES1    0.0000
     34 H11        6.3477    3.6303    8.9914 H         1 RES1    0.0000
     35 H12        5.9604    2.9335   10.3409 H         1 RES1    0.0000
     36 C12       10.2405    1.0609    6.9675 C.ar      1 RES1    0.0000
     37 C13       11.6165    1.1718    7.1416 C.ar      1 RES1    0.0000
     38 H13       11.9669    1.2430    8.0001 H         1 RES1    0.0000
     39 C14       12.4624    1.1779    6.0594 C.ar      1 RES1    0.0000
     40 H14       13.3797    1.2450    6.1951 H         1 RES1    0.0000
     41 C15       11.9675    1.0833    4.7603 C.ar      1 RES1    0.0000
     42 C16       10.5962    0.9704    4.5944 C.ar      1 RES1    0.0000
     43 H15       10.2448    0.9063    3.7359 H         1 RES1    0.0000
     44 C17        9.7418    0.9511    5.6789 C.ar      1 RES1    0.0000
     45 H16        8.8259    0.8646    5.5439 H         1 RES1    0.0000
     46 C18       12.8820    1.0996    3.5982 C.ar      1 RES1    0.0000
     47 C19       14.9884    1.2715    2.7921 C.ar      1 RES1    0.0000
     48 H17       15.8983    1.4017    2.9313 H         1 RES1    0.0000
     49 C20       14.5473    1.0782    1.4985 C.ar      1 RES1    0.0000
     50 C21       13.1846    0.9155    1.3591 C.ar      1 RES1    0.0000
     51 H18       12.8385    0.7954    0.5040 H         1 RES1    0.0000
     52 C22       15.4907    1.0711    0.3655 C.ar      1 RES1    0.0000
     53 C23       17.5394    1.5491   -0.4159 C.ar      1 RES1    0.0000
     54 H19       18.4024    1.8553   -0.2581 H         1 RES1    0.0000
     55 C24       17.2344    1.1575   -1.6776 C.ar      1 RES1    0.0000
     56 C25       15.9691    0.6713   -1.7928 C.ar      1 RES1    0.0000
     57 H20       15.7015    0.3580   -2.6262 H         1 RES1    0.0000
     58 C26       18.2163    1.2409   -2.7856 C.ar      1 RES1    0.0000
     59 C27       19.3871    1.9611   -2.6223 C.ar      1 RES1    0.0000
     60 H21       19.5428    2.3965   -1.8156 H         1 RES1    0.0000
     61 C28       20.3283    2.0496   -3.6281 C.ar      1 RES1    0.0000
     62 H22       21.1123    2.5338   -3.5082 H         1 RES1    0.0000
     63 C29       20.0768    1.4047   -4.8086 C.ar      1 RES1    0.0000
     64 C30       18.9388    0.6795   -5.0162 C.ar      1 RES1    0.0000
     65 H23       18.7958    0.2451   -5.8263 H         1 RES1    0.0000
     66 C31       18.0047    0.6032   -4.0002 C.ar      1 RES1    0.0000
     67 H24       17.2223    0.1180   -4.1321 H         1 RES1    0.0000
@<TRIPOS>BOND
     1    1   22 2
     2    2   22 1
     3    3   27 2
     4    4   27 1
     5    5   12 2
     6    6   12 2
     7    7   13 ar
     8    8   46 ar
     9    9   46 ar
    10   10   52 ar
    11   11   52 ar
    12   12   63 1
    13   13   14 ar
    14   14   15 ar
    15   15   16 ar
    16   16   17 ar
    17   17    7 ar
    18   18   13 1
    19   19   18 1
    20   20   18 1
    21   21   18 1
    22   22   14 1
    23   23    2 1
    24   24   23 1
    25   25   23 1
    26   26   23 1
    27   27   16 1
    28   28    4 1
    29   29   28 1
    30   30   28 1
    31   31   28 1
    32   32   17 1
    33   33   32 1
    34   34   32 1
    35   35   32 1
    36   36   15 1
    37   37   36 ar
    38   38   37 1
    39   39   37 ar
    40   40   39 1
    41   41   39 ar
    42   42   41 ar
    43   43   42 1
    44   44   36 ar
    45   45   44 1
    46   46   41 1
    47   47    8 ar
    48   48   47 1
    49   49   47 ar
    50   50    9 ar
    51   51   50 1
    52   52   49 1
    53   53   10 ar
    54   54   53 1
    55   55   53 ar
    56   56   11 ar
    57   57   56 1
    58   58   55 1
    59   59   58 ar
    60   60   59 1
    61   61   59 ar
    62   62   61 1
    63   63   61 ar
    64   64   63 ar
    65   65   64 1
    66   66   58 ar
    67   67   66 1
    68   42   44 ar
    69   49   50 ar
    70   55   56 ar
    71   64   66 ar
@<TRIPOS>SUBSTRUCTURE
     1 RES1 1

@<TRIPOS>CRYSIN
  18.0229   10.1717   15.6170  90.0000 103.5790  90.0000  14 1

