# MOL2 file generated by ConQuest
# Please check atom types

@<TRIPOS>MOLECULE
FOHHUG
    20    19     2
SMALL
NO_CHARGES
****
Generated from CSD

@<TRIPOS>ATOM
      1 O1        -1.8780   -1.3152   -0.0740 O.3       1 RES1    0.0000
      2 O2        -1.2794   -3.1358    1.0221 O.2       1 RES1    0.0000
      3 O3         2.1517    3.6113    7.0543 O.2       1 RES1    0.0000
      4 O4         1.8654    4.9903    5.4280 O.2       1 RES1    0.0000
      5 N1         1.7632    3.8817    5.9479 N.pl3     1 RES1    0.0000
      6 C1        -1.3405   -1.8732    0.9218 C.2       1 RES1    0.0000
      7 C2        -0.7651   -1.0688    1.9661 C.1       1 RES1    0.0000
      8 C3        -0.3378   -0.2524    2.7269 C.1       1 RES1    0.0000
      9 C4         0.1688    0.7834    3.5809 C.ar      1 RES1    0.0000
     10 C5         0.5921    0.5235    4.8805 C.ar      1 RES1    0.0000
     11 H1         0.5323   -0.3485    5.2260 H         1 RES1    0.0000
     12 C6         1.0974    1.5368    5.6597 C.ar      1 RES1    0.0000
     13 H2         1.3881    1.3708    6.5386 H         1 RES1    0.0000
     14 C7         1.1679    2.8084    5.1188 C.ar      1 RES1    0.0000
     15 C8         0.7346    3.0968    3.8512 C.ar      1 RES1    0.0000
     16 H3         0.7807    3.9748    3.5210 H         1 RES1    0.0000
     17 C9         0.2315    2.0851    3.0718 C.ar      1 RES1    0.0000
     18 H4        -0.0695    2.2653    2.1995 H         1 RES1    0.0000
     19 H5        -1.7675   -0.5783   -0.0689 H         1 RES1    0.0000
     20 H6        -1.6465   -3.3649    0.2098 Du        2 SUP2    0.0000
@<TRIPOS>BOND
     1    1    6 1
     2    2    6 2
     3    3    5 2
     4    4    5 2
     5    5   14 1
     6    6    7 1
     7    7    8 3
     8    8    9 1
     9    9   10 ar
    10   10   11 1
    11   12   10 ar
    12   13   12 1
    13   14   12 ar
    14   15   14 ar
    15   16   15 1
    16   17    9 ar
    17   18   17 1
    18   19    1 1
    19   15   17 ar
@<TRIPOS>SUBSTRUCTURE
     1 RES1 1
     2 SUP2 20

@<TRIPOS>CRYSIN
   3.7260    7.5110   29.9830  90.0000  91.9370  90.0000 231 1

