# MOL2 file generated by ConQuest
# Please check atom types

@<TRIPOS>MOLECULE
FOKTUU
    37    39     1
SMALL
NO_CHARGES
****
Generated from CSD

@<TRIPOS>ATOM
      1 N1         4.1552   -3.3073    2.6068 N.3       1 RES1    0.0000
      2 C1         4.8161   -2.1139    2.1244 C.3       1 RES1    0.0000
      3 N2         3.9418   -1.2889    1.2676 N.am      1 RES1    0.0000
      4 C2         2.6066   -1.3918    1.1870 C.2       1 RES1    0.0000
      5 C3         1.9057   -2.4179    2.0490 C.3       1 RES1    0.0000
      6 C4         1.3524   -3.5001    1.1129 C.3       1 RES1    0.0000
      7 C5         0.6879   -4.6457    1.8735 C.3       1 RES1    0.0000
      8 C6         1.6830   -5.2523    2.8551 C.3       1 RES1    0.0000
      9 C7         2.2003   -4.2021    3.8315 C.3       1 RES1    0.0000
     10 C8         2.8201   -2.9837    3.1463 C.3       1 RES1    0.0000
     11 C9         5.3850   -1.2829    3.2841 C.ar      1 RES1    0.0000
     12 C10        5.5692    0.0854    3.1593 C.ar      1 RES1    0.0000
     13 C11        6.1066    0.8326    4.1955 C.ar      1 RES1    0.0000
     14 C12        6.4782    0.1778    5.3500 C.ar      1 RES1    0.0000
     15 C13        6.3425   -1.1882    5.5035 C.ar      1 RES1    0.0000
     16 C14        5.7834   -1.9139    4.4607 C.ar      1 RES1    0.0000
     17 O1         1.9613   -0.7023    0.3913 O.2       1 RES1    0.0000
     18 N3         7.0433    0.9648    6.4590 N.pl3     1 RES1    0.0000
     19 O2         7.1758    2.1697    6.3004 O.2       1 RES1    0.0000
     20 O3         7.3433    0.3828    7.4835 O.2       1 RES1    0.0000
     21 H1         5.5286   -2.3868    1.5732 H         1 RES1    0.0000
     22 H2         1.1567   -1.9877    2.3662 H         1 RES1    0.0000
     23 H3         0.7471   -3.1533    0.4290 H         1 RES1    0.0000
     24 H4         2.1368   -3.9113    0.5331 H         1 RES1    0.0000
     25 H5        -0.1100   -4.3204    2.4442 H         1 RES1    0.0000
     26 H6         0.3532   -5.3666    1.2221 H         1 RES1    0.0000
     27 H7         1.2971   -6.0317    3.3803 H         1 RES1    0.0000
     28 H8         2.4601   -5.6733    2.4182 H         1 RES1    0.0000
     29 H9         1.4534   -3.9636    4.3684 H         1 RES1    0.0000
     30 H10        2.8734   -4.5283    4.4724 H         1 RES1    0.0000
     31 H11        2.9637   -2.3069    3.8354 H         1 RES1    0.0000
     32 H12        5.2905    0.5098    2.3272 H         1 RES1    0.0000
     33 H13        6.1819    1.7819    4.1344 H         1 RES1    0.0000
     34 H14        6.5214   -1.6527    6.3316 H         1 RES1    0.0000
     35 H15        5.7362   -2.8958    4.5765 H         1 RES1    0.0000
     36 H16        4.0903   -3.8943    1.9632 H         1 RES1    0.0000
     37 H17        4.3173   -0.7109    0.7021 H         1 RES1    0.0000
@<TRIPOS>BOND
     1    1    2 1
     2    2    3 1
     3    3    4 1
     4    4    5 1
     5    5    6 1
     6    6    7 1
     7    7    8 1
     8    8    9 1
     9    9   10 1
    10   10    1 1
    11   11    2 1
    12   12   11 ar
    13   13   12 ar
    14   14   13 ar
    15   15   14 ar
    16   16   11 ar
    17   17    4 2
    18   18   14 1
    19   19   18 2
    20   20   18 2
    21   21    2 1
    22   22    5 1
    23   23    6 1
    24   24    6 1
    25   25    7 1
    26   26    7 1
    27   27    8 1
    28   28    8 1
    29   29    9 1
    30   30    9 1
    31   31   10 1
    32   32   12 1
    33   33   13 1
    34   34   15 1
    35   35   16 1
    36   36    1 1
    37   37    3 1
    38    5   10 1
    39   15   16 ar
@<TRIPOS>SUBSTRUCTURE
     1 RES1 1

@<TRIPOS>CRYSIN
   7.0760    7.1820   13.3340  88.5600  77.1800  85.2300   2 1

