# MOL2 file generated by ConQuest
# Please check atom types

@<TRIPOS>MOLECULE
FOKVEH
    52    54     1
SMALL
NO_CHARGES
****
Generated from CSD

@<TRIPOS>ATOM
      1 O1         3.9184    4.8257   19.2713 O.2       1 RES1    0.0000
      2 O2         5.1243    6.5582   19.4962 O.2       1 RES1    0.0000
      3 O3        16.2682   -0.8191   13.6300 O.3       1 RES1    0.0000
      4 N1         4.9624    5.4084   19.1255 N.pl3     1 RES1    0.0000
      5 N2        10.4869    1.1534   15.3814 N.ar      1 RES1    0.0000
      6 N3        11.8379    2.1875   17.0398 N.ar      1 RES1    0.0000
      7 N4         8.2306    1.5395   15.1660 N.3       1 RES1    0.0000
      8 N5        10.9188    3.3319   18.8277 N.3       1 RES1    0.0000
      9 C1         6.0999    4.6917   18.5416 C.ar      1 RES1    0.0000
     10 C2         5.9938    3.3424   18.3191 C.ar      1 RES1    0.0000
     11 H1         5.1997    2.8927   18.5014 H         1 RES1    0.0000
     12 C3         7.0867    2.6642   17.8199 C.ar      1 RES1    0.0000
     13 H2         7.0290    1.7481   17.6723 H         1 RES1    0.0000
     14 C4         8.2784    3.3331   17.5342 C.ar      1 RES1    0.0000
     15 C5         8.3339    4.7052   17.7640 C.ar      1 RES1    0.0000
     16 H3         9.1197    5.1663   17.5771 H         1 RES1    0.0000
     17 C6         7.2507    5.3928   18.2611 C.ar      1 RES1    0.0000
     18 H4         7.2951    6.3110   18.4045 H         1 RES1    0.0000
     19 C7         9.4584    2.6054   17.0041 C.ar      1 RES1    0.0000
     20 C8         9.3998    1.7855   15.8631 C.ar      1 RES1    0.0000
     21 C9        11.6532    1.4408   15.9572 C.ar      1 RES1    0.0000
     22 C10       10.7292    2.6964   17.6154 C.ar      1 RES1    0.0000
     23 C11        7.3709    2.6278   14.7375 C.3       1 RES1    0.0000
     24 H5         6.4549    2.4004   14.9149 H         1 RES1    0.0000
     25 H6         7.4868    2.7753   13.7970 H         1 RES1    0.0000
     26 H7         7.6019    3.4255   15.2173 H         1 RES1    0.0000
     27 C12        8.2215    0.3947   14.2625 C.3       1 RES1    0.0000
     28 H8         8.7177    0.6087   13.4691 H         1 RES1    0.0000
     29 H9         7.3163    0.1807   14.0264 H         1 RES1    0.0000
     30 H10        8.6257   -0.3594   14.6974 H         1 RES1    0.0000
     31 C13       10.0398    3.0246   19.9458 C.3       1 RES1    0.0000
     32 H11        9.8418    3.8317   20.4279 H         1 RES1    0.0000
     33 H12       10.4738    2.4004   20.5316 H         1 RES1    0.0000
     34 H13        9.2244    2.6413   19.6159 H         1 RES1    0.0000
     35 C14       12.2839    3.6218   19.2389 C.3       1 RES1    0.0000
     36 H14       12.6900    2.8241   19.5853 H         1 RES1    0.0000
     37 H15       12.2766    4.2991   19.9200 H         1 RES1    0.0000
     38 H16       12.7870    3.9345   18.4827 H         1 RES1    0.0000
     39 C15       12.8668    0.8694   15.3118 C.ar      1 RES1    0.0000
     40 C16       12.7692    0.1724   14.1263 C.ar      1 RES1    0.0000
     41 H17       11.9356    0.0831   13.7223 H         1 RES1    0.0000
     42 C17       13.8775   -0.3988   13.5169 C.ar      1 RES1    0.0000
     43 H18       13.7889   -0.8683   12.7182 H         1 RES1    0.0000
     44 C18       15.1129   -0.2607   14.1151 C.ar      1 RES1    0.0000
     45 C19       15.2400    0.4518   15.2885 C.ar      1 RES1    0.0000
     46 H19       16.0777    0.5557   15.6794 H         1 RES1    0.0000
     47 C20       14.1280    1.0137   15.8848 C.ar      1 RES1    0.0000
     48 H20       14.2225    1.4936   16.6767 H         1 RES1    0.0000
     49 C21       16.1767   -1.6858   12.5055 C.3       1 RES1    0.0000
     50 H21       17.0395   -2.0659   12.3223 H         1 RES1    0.0000
     51 H22       15.8783   -1.1882   11.7413 H         1 RES1    0.0000
     52 H23       15.5512   -2.3889   12.6944 H         1 RES1    0.0000
@<TRIPOS>BOND
     1    1    4 2
     2    2    4 2
     3    3   44 1
     4    4    9 1
     5    5   20 ar
     6    6   21 ar
     7    7   20 1
     8    8   22 1
     9    9   10 ar
    10   10   11 1
    11   12   10 ar
    12   13   12 1
    13   14   12 ar
    14   15   14 ar
    15   16   15 1
    16   17    9 ar
    17   18   17 1
    18   19   14 1
    19   20   19 ar
    20   21    5 ar
    21   22    6 ar
    22   23    7 1
    23   24   23 1
    24   25   23 1
    25   26   23 1
    26   27    7 1
    27   28   27 1
    28   29   27 1
    29   30   27 1
    30   31    8 1
    31   32   31 1
    32   33   31 1
    33   34   31 1
    34   35    8 1
    35   36   35 1
    36   37   35 1
    37   38   35 1
    38   39   21 1
    39   40   39 ar
    40   41   40 1
    41   42   40 ar
    42   43   42 1
    43   44   42 ar
    44   45   44 ar
    45   46   45 1
    46   47   39 ar
    47   48   47 1
    48   49    3 1
    49   50   49 1
    50   51   49 1
    51   52   49 1
    52   15   17 ar
    53   19   22 ar
    54   45   47 ar
@<TRIPOS>SUBSTRUCTURE
     1 RES1 1

@<TRIPOS>CRYSIN
  11.3754   10.3867   17.0190  90.0000  93.3850  90.0000 231 1

