# MOL2 file generated by ConQuest
# Please check atom types

@<TRIPOS>MOLECULE
FOKWUY
    48    50     1
SMALL
NO_CHARGES
****
Generated from CSD

@<TRIPOS>ATOM
      1 O1         4.0110    1.0225    7.8753 O.2       1 RES1    0.0000
      2 O2         2.1817    2.7569   10.7712 O.2       1 RES1    0.0000
      3 O3         3.7352    2.3672   12.1886 O.2       1 RES1    0.0000
      4 C1         4.2585    2.1974    9.8937 C.3       1 RES1    0.0000
      5 C2         4.3746    3.5553    9.0908 C.3       1 RES1    0.0000
      6 C3         5.7177    3.3567    8.4430 C.ar      1 RES1    0.0000
      7 C4         6.2404    4.0752    7.3730 C.ar      1 RES1    0.0000
      8 H1         5.7343    4.7360    6.9585 H         1 RES1    0.0000
      9 C5         7.4905    3.8025    6.9433 C.ar      1 RES1    0.0000
     10 H2         7.8446    4.2886    6.2335 H         1 RES1    0.0000
     11 C6         8.2452    2.8269    7.5289 C.ar      1 RES1    0.0000
     12 H3         9.1009    2.6481    7.2120 H         1 RES1    0.0000
     13 C7         7.7379    2.1043    8.5936 C.ar      1 RES1    0.0000
     14 H4         8.2523    1.4468    9.0030 H         1 RES1    0.0000
     15 C8         6.4586    2.3713    9.0442 C.ar      1 RES1    0.0000
     16 C9         5.7392    1.7443   10.2240 C.3       1 RES1    0.0000
     17 C10        3.2397    3.8008    8.0841 C.3       1 RES1    0.0000
     18 H5         2.4004    3.8313    8.5492 H         1 RES1    0.0000
     19 H6         3.2223    3.0881    7.4415 H         1 RES1    0.0000
     20 H7         3.3865    4.6355    7.6328 H         1 RES1    0.0000
     21 C11        4.4284    4.7871   10.0107 C.3       1 RES1    0.0000
     22 H8         3.5625    4.9370   10.3960 H         1 RES1    0.0000
     23 H9         4.6899    5.5567    9.4986 H         1 RES1    0.0000
     24 H10        5.0684    4.6355   10.7103 H         1 RES1    0.0000
     25 C12        5.9205    0.2183   10.2680 C.3       1 RES1    0.0000
     26 H11        5.3785   -0.1483   10.9702 H         1 RES1    0.0000
     27 H12        6.8427    0.0099   10.4340 H         1 RES1    0.0000
     28 H13        5.6531   -0.1598    9.4276 H         1 RES1    0.0000
     29 C13        6.3813    2.3120   11.5177 C.3       1 RES1    0.0000
     30 H14        6.0402    1.8382   12.2782 H         1 RES1    0.0000
     31 H15        6.1668    3.2447   11.5976 H         1 RES1    0.0000
     32 H16        7.3343    2.2057   11.4746 H         1 RES1    0.0000
     33 C14        3.6148    1.0942    9.0120 C.2       1 RES1    0.0000
     34 C15        2.5834    0.1203    9.4852 C.ar      1 RES1    0.0000
     35 C16        1.8340   -0.5043    8.5023 C.ar      1 RES1    0.0000
     36 H17        1.9674   -0.2735    7.6113 H         1 RES1    0.0000
     37 C17        0.8995   -1.4575    8.8188 C.ar      1 RES1    0.0000
     38 H18        0.4053   -1.8522    8.1373 H         1 RES1    0.0000
     39 C18        0.6754   -1.8440   10.1213 C.ar      1 RES1    0.0000
     40 C19        1.4259   -1.2285   11.1032 C.ar      1 RES1    0.0000
     41 H19        1.3013   -1.4765   11.9905 H         1 RES1    0.0000
     42 C20        2.3555   -0.2571   10.8016 C.ar      1 RES1    0.0000
     43 H20        2.8345    0.1508   11.4873 H         1 RES1    0.0000
     44 C21       -0.3128   -2.9135   10.4657 C.3       1 RES1    0.0000
     45 H21       -0.8034   -2.6547   11.2490 H         1 RES1    0.0000
     46 H22        0.1518   -3.7357   10.6368 H         1 RES1    0.0000
     47 H23       -0.9203   -3.0354    9.7331 H         1 RES1    0.0000
     48 N1         3.3370    2.4595   11.0642 N.pl3     1 RES1    0.0000
@<TRIPOS>BOND
     1    1   33 2
     2    2   48 2
     3    3   48 2
     4    4    5 1
     5    5    6 1
     6    6    7 ar
     7    7    8 1
     8    9    7 ar
     9   10    9 1
    10   11    9 ar
    11   12   11 1
    12   13   11 ar
    13   14   13 1
    14   15    6 ar
    15   16    4 1
    16   17    5 1
    17   18   17 1
    18   19   17 1
    19   20   17 1
    20   21    5 1
    21   22   21 1
    22   23   21 1
    23   24   21 1
    24   25   16 1
    25   26   25 1
    26   27   25 1
    27   28   25 1
    28   29   16 1
    29   30   29 1
    30   31   29 1
    31   32   29 1
    32   33    4 1
    33   34   33 1
    34   35   34 ar
    35   36   35 1
    36   37   35 ar
    37   38   37 1
    38   39   37 ar
    39   40   39 ar
    40   41   40 1
    41   42   34 ar
    42   43   42 1
    43   44   39 1
    44   45   44 1
    45   46   44 1
    46   47   44 1
    47   48    4 1
    48   13   15 ar
    49   15   16 1
    50   40   42 ar
@<TRIPOS>SUBSTRUCTURE
     1 RES1 1

@<TRIPOS>CRYSIN
   8.6733    8.2394   13.1464  90.0000 105.3910  90.0000   4 1

