# MOL2 file generated by ConQuest
# Please check atom types

@<TRIPOS>MOLECULE
FOLCAK
    48    51     1
SMALL
NO_CHARGES
****
Generated from CSD

@<TRIPOS>ATOM
      1 O1         1.3530   -0.8331    6.7740 O.2       1 RES1    0.0000
      2 O2         0.8604   -1.7545    8.6476 O.2       1 RES1    0.0000
      3 O3        -1.6326    0.4529   11.9937 O.2       1 RES1    0.0000
      4 O4        -2.3118    2.4666   11.6822 O.2       1 RES1    0.0000
      5 N1         0.7909    2.9003    5.6822 N.2       1 RES1    0.0000
      6 N2         0.7942    1.6760    6.3360 N.3       1 RES1    0.0000
      7 N3         0.8308   -0.7996    7.8878 N.pl3     1 RES1    0.0000
      8 N4        -1.7135    1.4725   11.3298 N.pl3     1 RES1    0.0000
      9 C1         1.2783    2.9603    4.5008 C.2       1 RES1    0.0000
     10 C2         1.2541    4.3110    3.8637 C.3       1 RES1    0.0000
     11 C3         1.4316    4.3867    2.3707 C.3       1 RES1    0.0000
     12 C4         1.6114    3.1170    1.5527 C.3       1 RES1    0.0000
     13 C5         1.1638    1.8567    2.2590 C.3       1 RES1    0.0000
     14 C6         1.7691    1.8005    3.6591 C.3       1 RES1    0.0000
     15 C7         0.3673    5.3267    4.5259 C.3       1 RES1    0.0000
     16 C8         2.5473    4.8172    3.2769 C.3       1 RES1    0.0000
     17 C9         0.2039    1.5982    7.5417 C.ar      1 RES1    0.0000
     18 C10        0.1956    0.4250    8.3220 C.ar      1 RES1    0.0000
     19 C11       -0.4365    0.3775    9.5506 C.ar      1 RES1    0.0000
     20 C12       -1.0532    1.5066   10.0304 C.ar      1 RES1    0.0000
     21 C13       -1.0571    2.6674    9.2942 C.ar      1 RES1    0.0000
     22 C14       -0.4383    2.7267    8.0828 C.ar      1 RES1    0.0000
     23 C15        1.4206    0.5721    1.4803 C.ar      1 RES1    0.0000
     24 C16        2.1020    0.5395    0.2973 C.ar      1 RES1    0.0000
     25 C17        2.2613   -0.6450   -0.4185 C.ar      1 RES1    0.0000
     26 C18        1.7722   -1.7960    0.0535 C.ar      1 RES1    0.0000
     27 C19        1.0860   -1.7923    1.2428 C.ar      1 RES1    0.0000
     28 C20        0.9208   -0.6148    1.9397 C.ar      1 RES1    0.0000
     29 H1         1.1637    0.9860    5.9795 H         1 RES1    0.0000
     30 H2         0.9471    5.1117    1.9240 H         1 RES1    0.0000
     31 H3         1.1097    3.2056    0.7268 H         1 RES1    0.0000
     32 H4         2.5482    3.0275    1.3199 H         1 RES1    0.0000
     33 H5         0.1936    1.9265    2.3755 H         1 RES1    0.0000
     34 H6         1.5238    0.9641    4.0855 H         1 RES1    0.0000
     35 H7         2.7370    1.8331    3.5962 H         1 RES1    0.0000
     36 H8         0.4298    6.1616    4.0556 H         1 RES1    0.0000
     37 H9         0.6469    5.4511    5.4352 H         1 RES1    0.0000
     38 H10       -0.5413    5.0176    4.5086 H         1 RES1    0.0000
     39 H11        2.7341    5.7665    3.3445 H         1 RES1    0.0000
     40 H12        3.3268    4.2429    3.3382 H         1 RES1    0.0000
     41 H13       -0.4447   -0.4090   10.0461 H         1 RES1    0.0000
     42 H14       -1.4883    3.4210    9.6261 H         1 RES1    0.0000
     43 H15       -0.4396    3.5248    7.6062 H         1 RES1    0.0000
     44 H16        2.4678    1.3267   -0.0378 H         1 RES1    0.0000
     45 H17        2.7121   -0.6344   -1.2333 H         1 RES1    0.0000
     46 H18        1.8944   -2.5885   -0.4185 H         1 RES1    0.0000
     47 H19        0.7331   -2.5842    1.5794 H         1 RES1    0.0000
     48 H20        0.4566   -0.6275    2.7451 H         1 RES1    0.0000
@<TRIPOS>BOND
     1    1    7 2
     2    2    7 2
     3    3    8 2
     4    4    8 2
     5    5    6 1
     6    6   17 1
     7    7   18 1
     8    8   20 1
     9    9    5 2
    10   10    9 1
    11   11   10 1
    12   12   11 1
    13   13   12 1
    14   14    9 1
    15   15   10 1
    16   16   10 1
    17   17   18 ar
    18   18   19 ar
    19   19   20 ar
    20   20   21 ar
    21   21   22 ar
    22   22   17 ar
    23   23   13 1
    24   24   23 ar
    25   25   24 ar
    26   26   25 ar
    27   27   26 ar
    28   28   23 ar
    29   29    6 1
    30   30   11 1
    31   31   12 1
    32   32   12 1
    33   33   13 1
    34   34   14 1
    35   35   14 1
    36   36   15 1
    37   37   15 1
    38   38   15 1
    39   39   16 1
    40   40   16 1
    41   41   19 1
    42   42   21 1
    43   43   22 1
    44   44   24 1
    45   45   25 1
    46   46   26 1
    47   47   27 1
    48   48   28 1
    49   11   16 1
    50   13   14 1
    51   27   28 ar
@<TRIPOS>SUBSTRUCTURE
     1 RES1 1

@<TRIPOS>CRYSIN
   7.9430    8.0000   16.2370 101.6300  93.1200 112.7900   2 1

