# MOL2 file generated by ConQuest
# Please check atom types

@<TRIPOS>MOLECULE
FOLFAP
    38    40     1
SMALL
NO_CHARGES
****
Generated from CSD

@<TRIPOS>ATOM
      1 O1         6.9271    9.0322    9.7043 O.2       1 RES1    0.0000
      2 O2         6.4880   10.3018    1.8955 O.3       1 RES1    0.0000
      3 H1         5.8418   10.7785    1.6488 H         1 RES1    0.0000
      4 O3         5.7264    6.1576    3.9522 O.2       1 RES1    0.0000
      5 O4         4.4058    6.8260    2.4075 O.2       1 RES1    0.0000
      6 N1         5.3077    7.0304    3.2141 N.pl3     1 RES1    0.0000
      7 C1         6.9315    8.8776    8.4857 C.2       1 RES1    0.0000
      8 C2         5.6609    8.6375    7.7054 C.3       1 RES1    0.0000
      9 H2         4.9275    9.1650    8.1102 H         1 RES1    0.0000
     10 H3         5.4171    7.6800    7.7690 H         1 RES1    0.0000
     11 C3         5.7986    9.0191    6.2414 C.3       1 RES1    0.0000
     12 H4         6.0301    9.9910    6.2077 H         1 RES1    0.0000
     13 C4         4.5104    8.8299    5.4438 C.3       1 RES1    0.0000
     14 H5         3.7879    9.3745    5.8468 H         1 RES1    0.0000
     15 H6         4.2355    7.8794    5.4788 H         1 RES1    0.0000
     16 C5         4.7183    9.2504    3.9890 C.3       1 RES1    0.0000
     17 H7         4.9297   10.2167    3.9568 H         1 RES1    0.0000
     18 H8         3.8780    9.1053    3.4852 H         1 RES1    0.0000
     19 C6         5.8478    8.4669    3.3175 C.3       1 RES1    0.0000
     20 C7         6.1084    8.9291    1.8548 C.3       1 RES1    0.0000
     21 H9         5.2702    8.8299    1.3183 H         1 RES1    0.0000
     22 C8         7.2177    8.1234    1.2135 C.3       1 RES1    0.0000
     23 H10        7.3779    8.4595    0.2965 H         1 RES1    0.0000
     24 H11        6.9370    7.1759    1.1469 H         1 RES1    0.0000
     25 C9         8.5130    8.2084    2.0138 C.3       1 RES1    0.0000
     26 H12        8.8491    9.1397    1.9990 H         1 RES1    0.0000
     27 H13        9.1984    7.6294    1.5952 H         1 RES1    0.0000
     28 C10        8.2930    7.7715    3.4624 C.3       1 RES1    0.0000
     29 H14        9.1282    7.9078    3.9747 H         1 RES1    0.0000
     30 H15        8.0773    6.8054    3.4817 H         1 RES1    0.0000
     31 C11        7.1570    8.5568    4.1274 C.3       1 RES1    0.0000
     32 H16        7.4333    9.5173    4.0837 H         1 RES1    0.0000
     33 C12        6.9757    8.2477    5.6292 C.3       1 RES1    0.0000
     34 H17        6.7849    7.2701    5.7218 H         1 RES1    0.0000
     35 C13        8.2063    8.5567    6.4295 C.2       1 RES1    0.0000
     36 H18        9.0485    8.5222    5.9915 H         1 RES1    0.0000
     37 C14        8.1790    8.8781    7.7281 C.2       1 RES1    0.0000
     38 H19        8.9886    9.1114    8.1655 H         1 RES1    0.0000
@<TRIPOS>BOND
     1    1    7 2
     2    2    3 1
     3    4    6 2
     4    5    6 2
     5    6   19 1
     6    7    8 1
     7    8    9 1
     8   10    8 1
     9   11    8 1
    10   12   11 1
    11   13   11 1
    12   14   13 1
    13   15   13 1
    14   16   13 1
    15   17   16 1
    16   18   16 1
    17   19   16 1
    18   20    2 1
    19   21   20 1
    20   22   20 1
    21   23   22 1
    22   24   22 1
    23   25   22 1
    24   26   25 1
    25   27   25 1
    26   28   25 1
    27   29   28 1
    28   30   28 1
    29   31   19 1
    30   32   31 1
    31   33   11 1
    32   34   33 1
    33   35   33 1
    34   36   35 1
    35   37    7 1
    36   38   37 1
    37   19   20 1
    38   28   31 1
    39   31   33 1
    40   35   37 2
@<TRIPOS>SUBSTRUCTURE
     1 RES1 1

@<TRIPOS>CRYSIN
   7.3853   10.1226   17.8638  90.0000  90.0000  90.0000  19 1

