# MOL2 file generated by ConQuest
# Please check atom types

@<TRIPOS>MOLECULE
FOLNUQ
    61    63     1
SMALL
NO_CHARGES
****
Generated from CSD

@<TRIPOS>ATOM
      1 C1        -0.4463    3.6425   17.6499 C.ar      1 RES1    0.0000
      2 C2        -1.4079    3.0341   16.8885 C.ar      1 RES1    0.0000
      3 H1        -2.3080    3.2259   17.0229 H         1 RES1    0.0000
      4 C3        -1.0170    2.1202   15.9070 C.ar      1 RES1    0.0000
      5 H2        -1.6565    1.7102   15.3709 H         1 RES1    0.0000
      6 C4         0.3145    1.8269   15.7359 C.ar      1 RES1    0.0000
      7 C5         1.2626    2.4211   16.5602 C.ar      1 RES1    0.0000
      8 H3         2.1598    2.1990   16.4694 H         1 RES1    0.0000
      9 C6         0.8762    3.3407   17.5171 C.ar      1 RES1    0.0000
     10 H4         1.5097    3.7478   18.0637 H         1 RES1    0.0000
     11 C7        -0.0270    0.3967   13.7102 C.2       1 RES1    0.0000
     12 H5        -0.9271    0.5647   13.5460 H         1 RES1    0.0000
     13 C8         0.7889   -0.4299   12.9802 C.2       1 RES1    0.0000
     14 C9         2.0385   -0.3417   13.6543 C.2       1 RES1    0.0000
     15 C10        0.3714   -1.2214   11.7570 C.3       1 RES1    0.0000
     16 C11        0.0974   -0.2904   10.5737 C.2       1 RES1    0.0000
     17 C12       -1.1668    0.0494   10.2234 C.2       1 RES1    0.0000
     18 C13       -2.0834   -1.6969   11.6478 C.2       1 RES1    0.0000
     19 C14       -0.8522   -2.0784   12.0582 C.2       1 RES1    0.0000
     20 C15       -0.6590   -3.2989   12.8440 C.2       1 RES1    0.0000
     21 C16        0.9705   -4.5897   13.9914 C.3       1 RES1    0.0000
     22 H6         0.3565   -4.6950   14.7353 H         1 RES1    0.0000
     23 H7         0.9076   -5.3802   13.4325 H         1 RES1    0.0000
     24 C17        2.2586   -4.4596   14.4681 C.3       1 RES1    0.0000
     25 H8         2.5073   -5.2578   14.9396 H         1 RES1    0.0000
     26 H9         2.3051   -3.7080   15.0636 H         1 RES1    0.0000
     27 H10        2.8592   -4.3230   13.7312 H         1 RES1    0.0000
     28 C18       -3.3819   -2.3840   11.9639 C.3       1 RES1    0.0000
     29 H11       -4.1024   -1.9275   11.5238 H         1 RES1    0.0000
     30 H12       -3.5287   -2.3708   12.9139 H         1 RES1    0.0000
     31 H13       -3.3460   -3.2942   11.6583 H         1 RES1    0.0000
     32 C19       -1.6086    1.0392    9.1890 C.3       1 RES1    0.0000
     33 H14       -2.5672    1.0667    9.1611 H         1 RES1    0.0000
     34 H15       -1.2701    0.7773    8.3299 H         1 RES1    0.0000
     35 H16       -1.2701    1.9095    9.4143 H         1 RES1    0.0000
     36 C20        1.3075    0.1860    9.9190 C.2       1 RES1    0.0000
     37 C21        2.3305    1.4321    8.1901 C.3       1 RES1    0.0000
     38 H17        2.8308    0.6833    7.8304 H         1 RES1    0.0000
     39 H18        2.8952    1.9019    8.8241 H         1 RES1    0.0000
     40 C22        1.9186    2.3404    7.1039 C.3       1 RES1    0.0000
     41 H19        2.6975    2.6716    6.6499 H         1 RES1    0.0000
     42 H20        1.4244    3.0769    7.4724 H         1 RES1    0.0000
     43 H21        1.3645    1.8640    6.4805 H         1 RES1    0.0000
     44 C23        3.3310   -1.0060   13.3924 C.2       1 RES1    0.0000
     45 C24        4.4618   -2.6915   12.2189 C.3       1 RES1    0.0000
     46 H22        4.2791   -3.3644   11.5605 H         1 RES1    0.0000
     47 H23        4.7913   -3.1072   13.0187 H         1 RES1    0.0000
     48 H24        5.1223   -2.0822   11.8801 H         1 RES1    0.0000
     49 N1        -0.8567    4.6485   18.6592 N.pl3     1 RES1    0.0000
     50 N2         0.7203    0.9291   14.7250 N.pl3     1 RES1    0.0000
     51 N3         1.9986    0.4840   14.6930 N.2       1 RES1    0.0000
     52 N4        -2.2195   -0.5903   10.8409 N.pl3     1 RES1    0.0000
     53 O1        -2.0669    4.7861   18.8338 O.2       1 RES1    0.0000
     54 O2         0.0075    5.3071   19.1761 O.2       1 RES1    0.0000
     55 O3         0.6096   -3.4242   13.2247 O.3       1 RES1    0.0000
     56 O4        -1.4978   -4.1208   13.1461 O.2       1 RES1    0.0000
     57 O5         1.1241    0.9586    8.8501 O.3       1 RES1    0.0000
     58 O6         2.4220   -0.1063   10.2985 O.2       1 RES1    0.0000
     59 O7         4.3372   -0.6985   13.9460 O.2       1 RES1    0.0000
     60 O8         3.2585   -1.9750   12.5150 O.3       1 RES1    0.0000
     61 H25       -3.1498   -0.3417   10.5651 H         1 RES1    0.0000
@<TRIPOS>BOND
     1    1    2 ar
     2    2    3 1
     3    4    2 ar
     4    5    4 1
     5    6    4 ar
     6    7    6 ar
     7    8    7 1
     8    9    1 ar
     9   10    9 1
    10   11   12 1
    11   13   11 2
    12   14   13 1
    13   15   13 1
    14   16   15 1
    15   17   16 2
    16   18   19 2
    17   19   15 1
    18   20   19 1
    19   21   22 1
    20   23   21 1
    21   24   21 1
    22   25   24 1
    23   26   24 1
    24   27   24 1
    25   28   18 1
    26   29   28 1
    27   30   28 1
    28   31   28 1
    29   32   17 1
    30   33   32 1
    31   34   32 1
    32   35   32 1
    33   36   16 1
    34   37   38 1
    35   39   37 1
    36   40   37 1
    37   41   40 1
    38   42   40 1
    39   43   40 1
    40   44   14 1
    41   45   46 1
    42   47   45 1
    43   48   45 1
    44   49    1 1
    45   50    6 1
    46   51   14 2
    47   52   17 1
    48   53   49 2
    49   54   49 2
    50   55   20 1
    51   56   20 2
    52   57   36 1
    53   58   36 2
    54   59   44 2
    55   60   44 1
    56   61   52 1
    57    7    9 ar
    58   11   50 1
    59   18   52 1
    60   21   55 1
    61   37   57 1
    62   45   60 1
    63   50   51 1
@<TRIPOS>SUBSTRUCTURE
     1 RES1 1

@<TRIPOS>CRYSIN
  14.9776    9.4906   17.4630  90.0000  90.0000  90.0000  29 1

