# MOL2 file generated by ConQuest
# Please check atom types

@<TRIPOS>MOLECULE
FOLQON
    32    35     1
SMALL
NO_CHARGES
****
Generated from CSD

@<TRIPOS>ATOM
      1 O1         2.6671    0.7372    3.0884 O.3       1 RES1    0.0000
      2 O2         2.2526   -2.0507    6.3248 O.2       1 RES1    0.0000
      3 O3         1.8446   -2.2108    4.1459 O.3       1 RES1    0.0000
      4 O4        -0.1443   -4.7013    2.0546 O.2       1 RES1    0.0000
      5 O5         1.4515   -3.6329    1.0611 O.2       1 RES1    0.0000
      6 N1         0.3228   -3.6936    1.5482 N.pl3     1 RES1    0.0000
      7 C1        -0.5405   -2.5278    1.4476 C.ar      1 RES1    0.0000
      8 C2        -1.8134   -2.7808    1.0182 C.ar      1 RES1    0.0000
      9 H1        -2.0978   -3.6685    0.8979 H         1 RES1    0.0000
     10 C3        -2.6892   -1.7335    0.7585 C.ar      1 RES1    0.0000
     11 H2        -3.5639   -1.9089    0.4648 H         1 RES1    0.0000
     12 C4        -2.2662   -0.4499    0.9325 C.ar      1 RES1    0.0000
     13 H3        -2.8531    0.2567    0.7315 H         1 RES1    0.0000
     14 C5        -0.9751   -0.1540    1.4055 C.ar      1 RES1    0.0000
     15 C6        -0.5973    1.1986    1.6285 C.ar      1 RES1    0.0000
     16 H4        -1.2041    1.8819    1.4063 H         1 RES1    0.0000
     17 C7         0.6041    1.5384    2.1501 C.ar      1 RES1    0.0000
     18 H5         0.8463    2.4364    2.2831 H         1 RES1    0.0000
     19 C8         1.4702    0.4897    2.4830 C.ar      1 RES1    0.0000
     20 C9         3.3503   -0.5466    3.2663 C.3       1 RES1    0.0000
     21 C10        3.5987   -0.7757    4.7459 C.3       1 RES1    0.0000
     22 H6         4.4823   -1.1734    4.8897 H         1 RES1    0.0000
     23 H7         3.5518    0.0709    5.2383 H         1 RES1    0.0000
     24 C11        2.5176   -1.7129    5.2009 C.2       1 RES1    0.0000
     25 C12        2.3079   -1.6151    2.8883 C.3       1 RES1    0.0000
     26 H8         2.6776   -2.2935    2.2686 H         1 RES1    0.0000
     27 C13        1.1920   -0.8366    2.2696 C.ar      1 RES1    0.0000
     28 C14       -0.0528   -1.2127    1.7039 C.ar      1 RES1    0.0000
     29 C15        4.5752   -0.5591    2.3997 C.3       1 RES1    0.0000
     30 H9         4.3204   -0.4070    1.4763 H         1 RES1    0.0000
     31 H10        5.0167   -1.4189    2.4759 H         1 RES1    0.0000
     32 H11        5.1815    0.1419    2.6872 H         1 RES1    0.0000
@<TRIPOS>BOND
     1    1   19 1
     2    2   24 2
     3    3   24 1
     4    4    6 2
     5    5    6 2
     6    6    7 1
     7    7    8 ar
     8    8    9 1
     9   10    8 ar
    10   11   10 1
    11   12   10 ar
    12   13   12 1
    13   14   12 ar
    14   15   14 ar
    15   16   15 1
    16   17   15 ar
    17   18   17 1
    18   19   17 ar
    19   20    1 1
    20   21   20 1
    21   22   21 1
    22   23   21 1
    23   24   21 1
    24   25    3 1
    25   26   25 1
    26   27   19 ar
    27   28    7 ar
    28   29   20 1
    29   30   29 1
    30   31   29 1
    31   32   29 1
    32   14   28 ar
    33   20   25 1
    34   25   27 1
    35   27   28 ar
@<TRIPOS>SUBSTRUCTURE
     1 RES1 1

@<TRIPOS>CRYSIN
  10.1217    9.3347   13.7966  90.0000 106.8440  90.0000  14 1

