# MOL2 file generated by ConQuest
# Please check atom types

@<TRIPOS>MOLECULE
FOLSAB
    84    89     1
SMALL
NO_CHARGES
****
Generated from CSD

@<TRIPOS>ATOM
      1 N1        10.5787    3.0186    5.1128 N.2       1 RES1    0.0000
      2 O1        22.9656   -0.9053    9.5169 O.3       1 RES1    0.0000
      3 H1        23.7237   -0.9588    8.5820 H         1 RES1    0.0000
      4 O2        20.7994    1.0027    9.0306 O.3       1 RES1    0.0000
      5 H2        21.0054    0.1438    9.2191 H         1 RES1    0.0000
      6 O3        20.2742   -1.6579    9.5039 O.3       1 RES1    0.0000
      7 O4         9.4917    2.0942    5.1492 O.3       1 RES1    0.0000
      8 H3         8.6767    2.4689    4.7981 H         1 RES1    0.0000
      9 C1        12.7144    0.9596    7.2141 C.3       1 RES1    0.0000
     10 H4        12.8256    0.0352    7.4468 H         1 RES1    0.0000
     11 H5        12.3039    1.4142    7.9539 H         1 RES1    0.0000
     12 C2        11.8146    1.0898    5.9892 C.3       1 RES1    0.0000
     13 H6        10.9448    0.7287    6.1673 H         1 RES1    0.0000
     14 H7        12.2078    0.5721    5.2831 H         1 RES1    0.0000
     15 C3        11.6743    2.5097    5.5250 C.2       1 RES1    0.0000
     16 C4        12.9393    3.3486    5.4118 C.3       1 RES1    0.0000
     17 C5        13.8932    3.0841    6.6224 C.3       1 RES1    0.0000
     18 H8        13.4352    3.4341    7.3896 H         1 RES1    0.0000
     19 C6        15.2117    3.8232    6.5834 C.3       1 RES1    0.0000
     20 H9        15.0525    4.7676    6.5158 H         1 RES1    0.0000
     21 H10       15.7087    3.5500    5.8084 H         1 RES1    0.0000
     22 C7        16.0272    3.5364    7.8304 C.3       1 RES1    0.0000
     23 H11       15.4973    3.7361    8.6067 H         1 RES1    0.0000
     24 H12       16.8016    4.1069    7.8460 H         1 RES1    0.0000
     25 C8        16.4764    2.0798    7.9006 C.3       1 RES1    0.0000
     26 H13       17.0487    1.9560    7.1386 H         1 RES1    0.0000
     27 C9        15.2930    1.1018    7.7004 C.3       1 RES1    0.0000
     28 C10       14.0533    1.5964    6.9423 C.3       1 RES1    0.0000
     29 C11       15.0613    0.0575    8.7848 C.3       1 RES1    0.0000
     30 H14       14.5802   -0.6760    8.3934 H         1 RES1    0.0000
     31 H15       14.4841    0.4602    9.4363 H         1 RES1    0.0000
     32 C12       16.2908   -0.5090    9.5338 C.3       1 RES1    0.0000
     33 H16       16.3677   -1.4454    9.3375 H         1 RES1    0.0000
     34 H17       16.1563   -0.4171   10.4804 H         1 RES1    0.0000
     35 C13       17.6041    0.1886    9.1775 C.3       1 RES1    0.0000
     36 C14       17.3389    1.7338    9.1151 C.3       1 RES1    0.0000
     37 C15       18.7736    2.3011    9.0540 C.3       1 RES1    0.0000
     38 H18       18.7923    3.1776    9.4441 H         1 RES1    0.0000
     39 H19       19.0806    2.3618    8.1464 H         1 RES1    0.0000
     40 C16       19.6627    1.3423    9.8459 C.3       1 RES1    0.0000
     41 H20       19.9620    1.7778   10.6482 H         1 RES1    0.0000
     42 C17       18.7541    0.1262   10.2256 C.3       1 RES1    0.0000
     43 H21       18.3200    0.3971   11.0382 H         1 RES1    0.0000
     44 C18       18.0904   -0.3699    7.8239 C.3       1 RES1    0.0000
     45 H22       18.9048    0.0679    7.5703 H         1 RES1    0.0000
     46 H23       18.2486   -1.3128    7.9162 H         1 RES1    0.0000
     47 H24       17.4248   -0.2221    7.1477 H         1 RES1    0.0000
     48 C19       15.0632    0.7111    6.2466 C.3       1 RES1    0.0000
     49 H25       14.7971   -0.1950    6.0737 H         1 RES1    0.0000
     50 H26       15.6236    1.1026    5.5731 H         1 RES1    0.0000
     51 C20       19.4663   -1.1825   10.5987 C.3       1 RES1    0.0000
     52 C21       18.4776   -2.2756   10.9914 C.3       1 RES1    0.0000
     53 H27       17.8422   -2.4098   10.2841 H         1 RES1    0.0000
     54 H28       18.9460   -3.0961   11.1592 H         1 RES1    0.0000
     55 H29       18.0179   -1.9999   11.7872 H         1 RES1    0.0000
     56 C22       20.4916   -0.9972   11.7235 C.3       1 RES1    0.0000
     57 H30       20.0636   -1.0219   12.5817 H         1 RES1    0.0000
     58 H31       20.9614   -0.1662   11.6273 H         1 RES1    0.0000
     59 C23       21.4617   -2.1389   11.5220 C.3       1 RES1    0.0000
     60 H32       21.1756   -2.8884   12.0512 H         1 RES1    0.0000
     61 H33       22.3645   -1.9152   11.7573 H         1 RES1    0.0000
     62 C24       21.3324   -2.4873   10.0253 C.3       1 RES1    0.0000
     63 H34       21.0575   -3.4013    9.9252 H         1 RES1    0.0000
     64 C25       22.5842   -2.2692    9.1970 C.3       1 RES1    0.0000
     65 C26       22.3124   -2.4290    7.7706 C.3       1 RES1    0.0000
     66 H35       21.6177   -1.8193    7.5118 H         1 RES1    0.0000
     67 H36       23.0922   -2.2716    7.2336 H         1 RES1    0.0000
     68 H37       22.0131   -3.3310    7.6419 H         1 RES1    0.0000
     69 C27       23.6954   -3.1920    9.6404 C.3       1 RES1    0.0000
     70 H38       24.4761   -3.0738    9.0943 H         1 RES1    0.0000
     71 H39       23.9104   -2.9939   10.5545 H         1 RES1    0.0000
     72 H40       23.3915   -4.1005    9.5728 H         1 RES1    0.0000
     73 C28       16.6640    2.2508   10.4167 C.3       1 RES1    0.0000
     74 H41       16.4968    3.1944   10.3530 H         1 RES1    0.0000
     75 H42       15.8323    1.7866   10.5415 H         1 RES1    0.0000
     76 H43       17.2436    2.0782   11.1631 H         1 RES1    0.0000
     77 C29       12.5922    4.8507    5.3754 C.3       1 RES1    0.0000
     78 H44       12.1804    5.1112    6.2011 H         1 RES1    0.0000
     79 H45       13.3968    5.3605    5.2441 H         1 RES1    0.0000
     80 H46       11.9882    5.0161    4.6486 H         1 RES1    0.0000
     81 C30       13.6164    2.9659    4.0803 C.3       1 RES1    0.0000
     82 H47       12.9931    3.1481    3.3730 H         1 RES1    0.0000
     83 H48       14.3990    3.5084    3.9646 H         1 RES1    0.0000
     84 H49       13.8635    2.0382    4.0582 H         1 RES1    0.0000
@<TRIPOS>BOND
     1    1    7 1
     2    2    3 1
     3    4    5 1
     4    6   51 1
     5    7    8 1
     6    9   10 1
     7   11    9 1
     8   12    9 1
     9   13   12 1
    10   14   12 1
    11   15    1 2
    12   16   15 1
    13   17   16 1
    14   18   17 1
    15   19   17 1
    16   20   19 1
    17   21   19 1
    18   22   19 1
    19   23   22 1
    20   24   22 1
    21   25   22 1
    22   26   25 1
    23   27   25 1
    24   28    9 1
    25   29   27 1
    26   30   29 1
    27   31   29 1
    28   32   29 1
    29   33   32 1
    30   34   32 1
    31   35   32 1
    32   36   25 1
    33   37   36 1
    34   38   37 1
    35   39   37 1
    36   40    4 1
    37   41   40 1
    38   42   35 1
    39   43   42 1
    40   44   35 1
    41   45   44 1
    42   46   44 1
    43   47   44 1
    44   48   27 1
    45   49   48 1
    46   50   48 1
    47   51   42 1
    48   52   51 1
    49   53   52 1
    50   54   52 1
    51   55   52 1
    52   56   51 1
    53   57   56 1
    54   58   56 1
    55   59   56 1
    56   60   59 1
    57   61   59 1
    58   62    6 1
    59   63   62 1
    60   64    2 1
    61   65   64 1
    62   66   65 1
    63   67   65 1
    64   68   65 1
    65   69   64 1
    66   70   69 1
    67   71   69 1
    68   72   69 1
    69   73   36 1
    70   74   73 1
    71   75   73 1
    72   76   73 1
    73   77   16 1
    74   78   77 1
    75   79   77 1
    76   80   77 1
    77   81   16 1
    78   82   81 1
    79   83   81 1
    80   84   81 1
    81   12   15 1
    82   17   28 1
    83   27   28 1
    84   28   48 1
    85   35   36 1
    86   37   40 1
    87   40   42 1
    88   59   62 1
    89   62   64 1
@<TRIPOS>SUBSTRUCTURE
     1 RES1 1

@<TRIPOS>CRYSIN
  27.4580    7.9900   13.0030  90.0000  90.0000  90.0000  19 1

