# MOL2 file generated by ConQuest
# Please check atom types

@<TRIPOS>MOLECULE
FOLTIK
    42    42     1
SMALL
NO_CHARGES
****
Generated from CSD

@<TRIPOS>ATOM
      1 O1         1.7891    5.6160    3.9648 O.2       1 RES1    0.0000
      2 N1         0.6877    5.3018    3.4749 N.2       1 RES1    0.0000
      3 N2         1.8301    1.9389    2.3030 N.2       1 RES1    0.0000
      4 N3         2.2759    2.6296    1.2698 N.3       1 RES1    0.0000
      5 C1        -0.5767    4.6561    1.5891 C.3       1 RES1    0.0000
      6 H1        -1.2233    4.4366    2.3052 H         1 RES1    0.0000
      7 H2        -0.4649    3.8525    1.0208 H         1 RES1    0.0000
      8 O2         1.4725    0.7773    2.0397 O.2       1 RES1    0.0000
      9 N4         0.7125    5.0099    2.1901 N.3       1 RES1    0.0000
     10 C2         2.8619    3.9247    1.6221 C.3       1 RES1    0.0000
     11 H3         3.6858    4.0571    1.0897 H         1 RES1    0.0000
     12 H4         3.1208    3.9083    2.5773 H         1 RES1    0.0000
     13 C3         2.4453    2.0007   -0.0466 C.3       1 RES1    0.0000
     14 H5         2.9821    1.1763    0.0624 H         1 RES1    0.0000
     15 H6         2.9561    2.6167   -0.6293 H         1 RES1    0.0000
     16 C4         1.9330    5.1003    1.3871 C.3       1 RES1    0.0000
     17 H7         2.4081    5.9395    1.6114 H         1 RES1    0.0000
     18 H8         1.6889    5.1352    0.4281 H         1 RES1    0.0000
     19 C5        -1.1265    5.7981    0.7453 C.3       1 RES1    0.0000
     20 H9        -0.4558    6.0459    0.0613 H         1 RES1    0.0000
     21 H10       -1.2723    6.5868    1.3252 H         1 RES1    0.0000
     22 O1B       -1.7891    1.8242   -3.9648 O.2       1 RES1    0.0000
     23 N1B       -0.6877    2.1384   -3.4749 N.2       1 RES1    0.0000
     24 N2B       -1.8301    5.5013   -2.3030 N.2       1 RES1    0.0000
     25 N3B       -2.2759    4.8106   -1.2698 N.3       1 RES1    0.0000
     26 C1B        0.5767    2.7841   -1.5891 C.3       1 RES1    0.0000
     27 H1B        1.2233    3.0036   -2.3052 H         1 RES1    0.0000
     28 H2B        0.4649    3.5877   -1.0208 H         1 RES1    0.0000
     29 O2B       -1.4725    6.6629   -2.0397 O.2       1 RES1    0.0000
     30 N4B       -0.7125    2.4303   -2.1901 N.3       1 RES1    0.0000
     31 C2B       -2.8619    3.5155   -1.6221 C.3       1 RES1    0.0000
     32 H3B       -3.6858    3.3831   -1.0897 H         1 RES1    0.0000
     33 H4B       -3.1208    3.5319   -2.5773 H         1 RES1    0.0000
     34 C3B       -2.4453    5.4395    0.0466 C.3       1 RES1    0.0000
     35 H5B       -2.9821    6.2639   -0.0624 H         1 RES1    0.0000
     36 H6B       -2.9561    4.8235    0.6293 H         1 RES1    0.0000
     37 C4B       -1.9330    2.3399   -1.3871 C.3       1 RES1    0.0000
     38 H7B       -2.4081    1.5007   -1.6114 H         1 RES1    0.0000
     39 H8B       -1.6889    2.3050   -0.4281 H         1 RES1    0.0000
     40 C5B        1.1265    1.6421   -0.7453 C.3       1 RES1    0.0000
     41 H9B        0.4558    1.3943   -0.0613 H         1 RES1    0.0000
     42 H10B       1.2723    0.8534   -1.3252 H         1 RES1    0.0000
@<TRIPOS>BOND
     1    1    2 2
     2    2    9 1
     3    3    4 1
     4    4   10 1
     5    5    6 1
     6    7    5 1
     7    8    3 2
     8    9    5 1
     9   10   11 1
    10   12   10 1
    11   13    4 1
    12   14   13 1
    13   15   13 1
    14   16    9 1
    15   17   16 1
    16   18   16 1
    17   19    5 1
    18   20   19 1
    19   21   19 1
    20   22   23 2
    21   23   30 1
    22   24   25 1
    23   25   31 1
    24   26   27 1
    25   28   26 1
    26   29   24 2
    27   30   26 1
    28   31   32 1
    29   33   31 1
    30   34   19 1
    31   35   34 1
    32   36   34 1
    33   37   30 1
    34   38   37 1
    35   39   37 1
    36   40   13 1
    37   41   40 1
    38   42   40 1
    39   10   16 1
    40   25   34 1
    41   26   40 1
    42   31   37 1
@<TRIPOS>SUBSTRUCTURE
     1 RES1 1

@<TRIPOS>CRYSIN
   9.0624    7.4402   11.4115  90.0000 109.5030  90.0000  14 1

