# MOL2 file generated by ConQuest
# Please check atom types

@<TRIPOS>MOLECULE
FOMNEB02
    40    41     1
SMALL
NO_CHARGES
****
Generated from CSD

@<TRIPOS>ATOM
      1 O1         3.9125    8.6588    7.6432 O.3       1 RES1    0.0000
      2 O2         1.8572    7.9484    7.1560 O.2       1 RES1    0.0000
      3 O3         2.0013    9.1796    4.6771 O.3       1 RES1    0.0000
      4 O4        -4.8849   13.3894    2.1063 O.3       1 RES1    0.0000
      5 N1         1.7680    7.9041    4.1066 N.2       1 RES1    0.0000
      6 C1         2.8890    8.5100    6.8455 C.2       1 RES1    0.0000
      7 C2         3.1482    9.0926    5.4924 C.3       1 RES1    0.0000
      8 C3         0.6648    7.8906    3.4370 C.2       1 RES1    0.0000
      9 C4        -0.2503    9.0150    3.3042 C.2       1 RES1    0.0000
     10 C5        -1.2762    9.0873    2.4682 C.2       1 RES1    0.0000
     11 C6         0.3519    6.5563    2.8461 C.ar      1 RES1    0.0000
     12 C7        -0.8383    5.9201    3.1688 C.ar      1 RES1    0.0000
     13 C8        -1.0900    4.6433    2.7151 C.ar      1 RES1    0.0000
     14 C9        -0.1915    3.9946    1.9406 C.ar      1 RES1    0.0000
     15 C10        0.9736    4.6108    1.5827 C.ar      1 RES1    0.0000
     16 C11        1.2631    5.8946    2.0512 C.ar      1 RES1    0.0000
     17 C12       -2.2087   10.2042    2.3378 C.ar      1 RES1    0.0000
     18 C13       -2.0717   11.3821    3.0778 C.ar      1 RES1    0.0000
     19 C14       -2.9709   12.4060    2.9695 C.ar      1 RES1    0.0000
     20 C15       -4.0504   12.3077    2.1159 C.ar      1 RES1    0.0000
     21 C16       -6.0396   13.3556    1.2758 C.3       1 RES1    0.0000
     22 C17       -4.2200   11.1589    1.3627 C.ar      1 RES1    0.0000
     23 C18       -3.2929   10.1253    1.4863 C.ar      1 RES1    0.0000
     24 H1         3.7844    8.2347    8.3341 H         1 RES1    0.0000
     25 H2         3.5213    9.9817    5.6009 H         1 RES1    0.0000
     26 H3         3.8118    8.5484    5.0406 H         1 RES1    0.0000
     27 H4        -1.4692    6.3575    3.6936 H         1 RES1    0.0000
     28 H5        -1.8871    4.2227    2.9443 H         1 RES1    0.0000
     29 H6        -0.3676    3.1287    1.6518 H         1 RES1    0.0000
     30 H7         1.5762    4.1742    1.0252 H         1 RES1    0.0000
     31 H8         2.0689    6.3014    1.8272 H         1 RES1    0.0000
     32 H9        -0.1009    9.7483    3.8554 H         1 RES1    0.0000
     33 H10       -1.4162    8.3559    1.9107 H         1 RES1    0.0000
     34 H11       -1.3510   11.4710    3.6579 H         1 RES1    0.0000
     35 H12       -2.8538   13.1771    3.4774 H         1 RES1    0.0000
     36 H13       -5.7708   13.3498    0.3542 H         1 RES1    0.0000
     37 H14       -6.5797   14.1301    1.4475 H         1 RES1    0.0000
     38 H15       -6.5473   12.5635    1.4662 H         1 RES1    0.0000
     39 H16       -4.9420   11.0786    0.7816 H         1 RES1    0.0000
     40 H17       -3.4092    9.3559    0.9775 H         1 RES1    0.0000
@<TRIPOS>BOND
     1    1    6 1
     2    2    6 2
     3    3    5 1
     4    4   20 1
     5    5    8 2
     6    6    7 1
     7    7    3 1
     8    8    9 1
     9    9   10 2
    10   10   17 1
    11   11    8 1
    12   12   11 ar
    13   13   12 ar
    14   14   13 ar
    15   15   14 ar
    16   16   11 ar
    17   17   18 ar
    18   18   19 ar
    19   19   20 ar
    20   20   22 ar
    21   21    4 1
    22   22   23 ar
    23   23   17 ar
    24   24    1 1
    25   25    7 1
    26   26    7 1
    27   27   12 1
    28   28   13 1
    29   29   14 1
    30   30   15 1
    31   31   16 1
    32   32    9 1
    33   33   10 1
    34   34   18 1
    35   35   19 1
    36   36   21 1
    37   37   21 1
    38   38   21 1
    39   39   22 1
    40   40   23 1
    41   15   16 ar
@<TRIPOS>SUBSTRUCTURE
     1 RES1 1

@<TRIPOS>CRYSIN
   6.4238   15.1513   17.0552  90.0000  93.1670  90.0000  14 1

