# MOL2 file generated by ConQuest
# Please check atom types

@<TRIPOS>MOLECULE
FOMNEB
    40    41     1
SMALL
NO_CHARGES
****
Generated from CSD

@<TRIPOS>ATOM
      1 C1         1.8417    7.1442    5.9273 C.2       1 RES1    0.0000
      2 O1         2.1580    7.7723    6.9170 O.2       1 RES1    0.0000
      3 O2         2.5979    7.0088    4.8846 O.3       1 RES1    0.0000
      4 C2        -2.8495    4.5507    8.2065 C.ar      1 RES1    0.0000
      5 C3        -2.7337    3.6875    9.2770 C.ar      1 RES1    0.0000
      6 C4        -3.5692    2.6109    9.3928 C.ar      1 RES1    0.0000
      7 C5        -4.5379    2.4089    8.4543 C.ar      1 RES1    0.0000
      8 C6        -4.6608    3.2375    7.4073 C.ar      1 RES1    0.0000
      9 C7        -3.8200    4.3151    7.2686 C.ar      1 RES1    0.0000
     10 C8         0.5382    6.4495    5.7621 C.3       1 RES1    0.0000
     11 O3        -0.2639    6.6724    6.9040 O.3       1 RES1    0.0000
     12 N1        -1.1473    5.5693    7.0139 N.2       1 RES1    0.0000
     13 C9        -1.9169    5.6883    8.0478 C.2       1 RES1    0.0000
     14 C10       -1.9192    6.8071    8.9670 C.2       1 RES1    0.0000
     15 C11       -2.8260    6.9823    9.9301 C.2       1 RES1    0.0000
     16 C12       -2.9187    8.0936   10.8647 C.ar      1 RES1    0.0000
     17 C13       -2.3085   10.2838   11.6451 C.ar      1 RES1    0.0000
     18 C14       -2.1761    9.2581   10.7498 C.ar      1 RES1    0.0000
     19 C15       -3.1934   10.1749   12.6962 C.ar      1 RES1    0.0000
     20 O4        -3.2676   11.2656   13.5225 O.3       1 RES1    0.0000
     21 C16       -4.2325   11.2613   14.5695 C.3       1 RES1    0.0000
     22 C17       -3.9326    9.0302   12.8545 C.ar      1 RES1    0.0000
     23 C18       -3.7933    8.0133   11.9360 C.ar      1 RES1    0.0000
     24 H1         3.2666    7.4771    4.9684 H         1 RES1    0.0000
     25 H2        -2.0827    3.8381    9.9235 H         1 RES1    0.0000
     26 H3        -3.4772    2.0218   10.1069 H         1 RES1    0.0000
     27 H4        -5.1196    1.6878    8.5412 H         1 RES1    0.0000
     28 H5        -5.3197    3.0817    6.7705 H         1 RES1    0.0000
     29 H6        -3.9101    4.8852    6.5389 H         1 RES1    0.0000
     30 H7         0.0857    6.7850    4.9720 H         1 RES1    0.0000
     31 H8         0.6867    5.4986    5.6451 H         1 RES1    0.0000
     32 H9        -1.2465    7.4434    8.8813 H         1 RES1    0.0000
     33 H10       -3.4730    6.3193   10.0140 H         1 RES1    0.0000
     34 H11       -1.8000   11.0567   11.5447 H         1 RES1    0.0000
     35 H12       -1.5737    9.3448   10.0465 H         1 RES1    0.0000
     36 H13       -5.1102   11.1498   14.1959 H         1 RES1    0.0000
     37 H14       -4.1915   12.0941   15.0463 H         1 RES1    0.0000
     38 H15       -4.0481   10.5380   15.1717 H         1 RES1    0.0000
     39 H16       -4.5197    8.9417   13.5711 H         1 RES1    0.0000
     40 H17       -4.3063    7.2443   12.0392 H         1 RES1    0.0000
@<TRIPOS>BOND
     1    1    2 2
     2    3    1 1
     3    4    5 ar
     4    5    6 ar
     5    6    7 ar
     6    7    8 ar
     7    8    9 ar
     8    9    4 ar
     9   10    1 1
    10   11   10 1
    11   12   11 1
    12   13    4 1
    13   14   13 1
    14   15   14 2
    15   16   15 1
    16   17   18 ar
    17   18   16 ar
    18   19   17 ar
    19   20   19 1
    20   21   20 1
    21   22   19 ar
    22   23   16 ar
    23   24    3 1
    24   25    5 1
    25   26    6 1
    26   27    7 1
    27   28    8 1
    28   29    9 1
    29   30   10 1
    30   31   10 1
    31   32   14 1
    32   33   15 1
    33   34   17 1
    34   35   18 1
    35   36   21 1
    36   37   21 1
    37   38   21 1
    38   39   22 1
    39   40   23 1
    40   12   13 2
    41   22   23 ar
@<TRIPOS>SUBSTRUCTURE
     1 RES1 1

@<TRIPOS>CRYSIN
   8.5153   16.0591   12.1476  90.0000  96.8010  90.0000  14 1

