# MOL2 file generated by ConQuest
# Please check atom types

@<TRIPOS>MOLECULE
FONCIU
    46    47     1
SMALL
NO_CHARGES
****
Generated from CSD

@<TRIPOS>ATOM
      1 O1         5.9980    1.8876    6.6908 O.2       1 RES1    0.0000
      2 O2         8.2004    2.1832    6.8139 O.3       1 RES1    0.0000
      3 O3         9.2001    2.1611    0.3793 O.2       1 RES1    0.0000
      4 O4        10.4454    2.6097    2.1035 O.3       1 RES1    0.0000
      5 O5         8.5387    4.8405    3.6718 O.2       1 RES1    0.0000
      6 O6         9.5096    5.9023    5.2565 O.2       1 RES1    0.0000
      7 N1         6.0920    0.9803    2.8250 N.3       1 RES1    0.0000
      8 N2         9.3321    4.8914    4.5775 N.pl3     1 RES1    0.0000
      9 C1         8.3402    2.1492    3.9388 C.2       1 RES1    0.0000
     10 C2         8.2800    1.8145    2.5329 C.2       1 RES1    0.0000
     11 C3         7.1951    1.0466    2.0828 C.2       1 RES1    0.0000
     12 C4         5.9052    1.9352    3.9214 C.3       1 RES1    0.0000
     13 C5         7.2008    2.0626    4.6810 C.2       1 RES1    0.0000
     14 C6         7.0645    2.0439    6.1338 C.2       1 RES1    0.0000
     15 C7         8.1079    2.0405    8.2460 C.3       1 RES1    0.0000
     16 C8         5.4070    3.2774    3.4015 C.3       1 RES1    0.0000
     17 C9         4.9461    0.1325    2.5056 C.3       1 RES1    0.0000
     18 C10        7.2492    0.1937    0.8556 C.3       1 RES1    0.0000
     19 C11        9.3221    2.1764    1.5716 C.2       1 RES1    0.0000
     20 C12       11.4897    3.0446    1.2436 C.3       1 RES1    0.0000
     21 C13        9.6601    2.4364    4.5786 C.ar      1 RES1    0.0000
     22 C14       10.1290    3.6970    4.9164 C.ar      1 RES1    0.0000
     23 C15       11.3366    3.9145    5.5486 C.ar      1 RES1    0.0000
     24 C16       12.1366    2.8322    5.8396 C.ar      1 RES1    0.0000
     25 C17       11.7140    1.5631    5.5115 C.ar      1 RES1    0.0000
     26 C18       10.5003    1.3711    4.8870 C.ar      1 RES1    0.0000
     27 H1         5.2412    1.6107    4.5208 H         1 RES1    0.0000
     28 H2         8.9667    2.1577    8.6307 H         1 RES1    0.0000
     29 H3         7.5102    2.6895    8.5915 H         1 RES1    0.0000
     30 H4         7.7842    1.1689    8.4531 H         1 RES1    0.0000
     31 H5         5.2916    3.8771    4.1285 H         1 RES1    0.0000
     32 H6         6.0400    3.6359    2.7912 H         1 RES1    0.0000
     33 H7         4.5746    3.1550    2.9579 H         1 RES1    0.0000
     34 H8         4.2746    0.2447    3.1672 H         1 RES1    0.0000
     35 H9         4.5967    0.3772    1.6555 H         1 RES1    0.0000
     36 H10        5.2208   -0.7764    2.4827 H         1 RES1    0.0000
     37 H11        8.0799    0.3228    0.4152 H         1 RES1    0.0000
     38 H12        7.1650   -0.7221    1.1040 H         1 RES1    0.0000
     39 H13        6.5391    0.4281    0.2736 H         1 RES1    0.0000
     40 H14       12.2302    3.3300    1.7623 H         1 RES1    0.0000
     41 H15       11.7545    2.3259    0.6801 H         1 RES1    0.0000
     42 H16       11.1811    3.7667    0.7073 H         1 RES1    0.0000
     43 H17       11.6119    4.7963    5.7764 H         1 RES1    0.0000
     44 H18       12.9734    2.9665    6.2712 H         1 RES1    0.0000
     45 H19       12.2629    0.8172    5.7197 H         1 RES1    0.0000
     46 H20       10.2281    0.4910    4.6549 H         1 RES1    0.0000
@<TRIPOS>BOND
     1    1   14 2
     2    2   14 1
     3    3   19 2
     4    4   19 1
     5    5    8 2
     6    6    8 2
     7    7   11 1
     8    8   22 1
     9    9   10 1
    10   10   11 2
    11   11   18 1
    12   12    7 1
    13   13    9 2
    14   14   13 1
    15   15    2 1
    16   16   12 1
    17   17    7 1
    18   18   37 1
    19   19   10 1
    20   20    4 1
    21   21    9 1
    22   22   21 ar
    23   23   22 ar
    24   24   23 ar
    25   25   24 ar
    26   26   21 ar
    27   27   12 1
    28   28   15 1
    29   29   15 1
    30   30   15 1
    31   31   16 1
    32   32   16 1
    33   33   16 1
    34   34   17 1
    35   35   17 1
    36   36   17 1
    37   38   18 1
    38   39   18 1
    39   40   20 1
    40   41   20 1
    41   42   20 1
    42   43   23 1
    43   44   24 1
    44   45   25 1
    45   46   26 1
    46   12   13 1
    47   25   26 ar
@<TRIPOS>SUBSTRUCTURE
     1 RES1 1

@<TRIPOS>CRYSIN
   9.5370   16.9900   10.9090  90.0000  92.4800  90.0000 231 1

