# MOL2 file generated by ConQuest
# Please check atom types

@<TRIPOS>MOLECULE
FORAMO01
     8     7     1
SMALL
NO_CHARGES
****
Generated from CSD

@<TRIPOS>ATOM
      1 C1         2.3965    2.1343    1.1527 C.2       1 RES1    0.0000
      2 N1         3.4995    2.9000    1.0797 N.3       1 RES1    0.0000
      3 N2         2.0806    1.1683    0.3488 N.2       1 RES1    0.0000
      4 O1         3.1034    0.9921   -0.6326 O.3       1 RES1    0.0000
      5 H1         3.7349    3.5071    1.8544 H         1 RES1    0.0000
      6 H2         4.2548    2.6247    0.4585 H         1 RES1    0.0000
      7 H3         1.6726    2.3473    1.9391 H         1 RES1    0.0000
      8 H4         2.7426    0.2596   -1.1936 H         1 RES1    0.0000
@<TRIPOS>BOND
     1    1    2 1
     2    2    5 1
     3    3    1 2
     4    4    3 1
     5    6    2 1
     6    7    1 1
     7    8    4 1
@<TRIPOS>SUBSTRUCTURE
     1 RES1 1

@<TRIPOS>CRYSIN
   8.1870    7.1110    4.7609  90.0000  90.0000  90.0000  19 1

