# MOL2 file generated by ConQuest
# Please check atom types

@<TRIPOS>MOLECULE
FOVVUH
    28    30     1
SMALL
NO_CHARGES
****
Generated from CSD

@<TRIPOS>ATOM
      1 N1         9.8249    1.3335   10.2750 N.2       1 RES1    0.0000
      2 O1        10.1379    0.2379   11.1461 O.3       1 RES1    0.0000
      3 C1         9.1001    0.0106   11.9632 C.2       1 RES1    0.0000
      4 N2         8.1457    0.9339   11.6589 N.am      1 RES1    0.0000
      5 C2         8.6369    1.7024   10.6393 C.2       1 RES1    0.0000
      6 O2         9.0750   -0.8636   12.7849 O.2       1 RES1    0.0000
      7 C3         7.9136    2.7638    9.9316 C.ar      1 RES1    0.0000
      8 C4         8.6380    3.8417    9.4279 C.ar      1 RES1    0.0000
      9 C5         7.9855    4.8021    8.6827 C.ar      1 RES1    0.0000
     10 C6         6.6478    4.7088    8.4533 C.ar      1 RES1    0.0000
     11 C7         5.9253    3.6510    8.9541 C.ar      1 RES1    0.0000
     12 C8         6.5644    2.6729    9.6947 C.ar      1 RES1    0.0000
     13 C9         6.9506    1.1015   12.4355 C.ar      1 RES1    0.0000
     14 C10        6.7975    2.2331   13.2152 C.ar      1 RES1    0.0000
     15 C11        5.6821    2.3553   13.9978 C.ar      1 RES1    0.0000
     16 C12        4.7304    1.3671   14.0128 C.ar      1 RES1    0.0000
     17 C13        4.8892    0.2473   13.2317 C.ar      1 RES1    0.0000
     18 C14        5.9999    0.1110   12.4340 C.ar      1 RES1    0.0000
     19 H1         9.6403    3.8783    9.6558 H         1 RES1    0.0000
     20 H2         8.5118    5.4721    8.2914 H         1 RES1    0.0000
     21 H3         6.1925    5.3127    7.9015 H         1 RES1    0.0000
     22 H4         4.9459    3.5772    8.7711 H         1 RES1    0.0000
     23 H5         6.0710    2.0011   10.0306 H         1 RES1    0.0000
     24 H6         7.5056    2.9043   13.2392 H         1 RES1    0.0000
     25 H7         5.5248    3.1817   14.6036 H         1 RES1    0.0000
     26 H8         3.9506    1.4935   14.5736 H         1 RES1    0.0000
     27 H9         4.2461   -0.4014   13.2092 H         1 RES1    0.0000
     28 H10        6.0962   -0.6434   11.8448 H         1 RES1    0.0000
@<TRIPOS>BOND
     1    1    2 1
     2    2    3 1
     3    3    4 1
     4    4    5 1
     5    5    1 2
     6    6    3 2
     7    7    5 1
     8    8    7 ar
     9    9    8 ar
    10   10    9 ar
    11   11   10 ar
    12   12    7 ar
    13   13    4 1
    14   14   13 ar
    15   15   14 ar
    16   16   15 ar
    17   17   16 ar
    18   18   13 ar
    19   19    8 1
    20   20    9 1
    21   21   10 1
    22   22   11 1
    23   23   12 1
    24   24   14 1
    25   25   15 1
    26   26   16 1
    27   27   17 1
    28   28   18 1
    29   11   12 ar
    30   17   18 ar
@<TRIPOS>SUBSTRUCTURE
     1 RES1 1

@<TRIPOS>CRYSIN
  13.0640    5.9030   15.3410  90.0000 102.2200  90.0000  14 2

