# MOL2 file generated by ConQuest
# Please check atom types

@<TRIPOS>MOLECULE
FOVVAO
    25    25     1
SMALL
NO_CHARGES
****
Generated from CSD

@<TRIPOS>ATOM
      1 C1         3.0323    2.4501    3.7544 C.ar      1 RES1    0.0000
      2 C2         2.9181    3.7203    3.1531 C.ar      1 RES1    0.0000
      3 C3         2.3527    4.7618    3.8773 C.ar      1 RES1    0.0000
      4 H1         2.2747    5.6054    3.4913 H         1 RES1    0.0000
      5 C4         1.9072    4.5503    5.1630 C.ar      1 RES1    0.0000
      6 C5         1.9986    3.3108    5.7634 C.ar      1 RES1    0.0000
      7 H2         1.6853    3.1824    6.6286 H         1 RES1    0.0000
      8 C6         2.5578    2.2693    5.0648 C.ar      1 RES1    0.0000
      9 H3         2.6234    1.4321    5.4657 H         1 RES1    0.0000
     10 O1         3.5975    1.4656    3.0426 O.3       1 RES1    0.0000
     11 C7         3.6747    0.1438    3.6041 C.3       1 RES1    0.0000
     12 H4         2.7872   -0.1682    3.8396 H         1 RES1    0.0000
     13 H5         4.2193    0.1555    4.4066 H         1 RES1    0.0000
     14 C8         4.2771   -0.7585    2.5962 C.2       1 RES1    0.0000
     15 H6         4.2844   -1.6653    2.8034 H         1 RES1    0.0000
     16 C9         4.7936   -0.4222    1.4616 C.2       1 RES1    0.0000
     17 H7         4.8123    0.4719    1.2060 H         1 RES1    0.0000
     18 H8         5.1471   -1.0732    0.9009 H         1 RES1    0.0000
     19 C10        3.3657    4.0277    1.7618 C.2       1 RES1    0.0000
     20 O2         4.0092    3.1878    1.0966 O.2       1 RES1    0.0000
     21 O3         3.0590    5.1569    1.3130 O.3       1 RES1    0.0000
     22 H9         3.2682    5.3911    0.3569 H         1 RES1    0.0000
     23 N1         1.2990    5.6497    5.9041 N.pl3     1 RES1    0.0000
     24 O4         0.7664    5.4019    6.9739 O.2       1 RES1    0.0000
     25 O5         1.3367    6.7716    5.4329 O.2       1 RES1    0.0000
@<TRIPOS>BOND
     1    1    2 ar
     2    2    3 ar
     3    3    4 1
     4    5    3 ar
     5    6    5 ar
     6    7    6 1
     7    8    1 ar
     8    9    8 1
     9   10    1 1
    10   11   10 1
    11   12   11 1
    12   13   11 1
    13   14   11 1
    14   15   14 1
    15   16   14 2
    16   17   16 1
    17   18   16 1
    18   19    2 1
    19   20   19 2
    20   21   19 1
    21   22   21 1
    22   23    5 1
    23   24   23 2
    24   25   23 2
    25    6    8 ar
@<TRIPOS>SUBSTRUCTURE
     1 RES1 1

@<TRIPOS>CRYSIN
   3.9438    9.0409   28.8040  90.0000  92.2270  90.0000 231 1

