# MOL2 file generated by ConQuest
# Please check atom types

@<TRIPOS>MOLECULE
FOVXAP
    28    29     1
SMALL
NO_CHARGES
****
Generated from CSD

@<TRIPOS>ATOM
      1 N1        25.0348    8.8445    2.0641 N.3       1 RES1    0.0000
      2 C1        26.2474    8.2540    2.3392 C.ar      1 RES1    0.0000
      3 C2        27.5234    8.8171    2.4854 C.ar      1 RES1    0.0000
      4 C3        28.5579    7.9800    2.7576 C.ar      1 RES1    0.0000
      5 C4        28.3700    6.5898    2.8830 C.ar      1 RES1    0.0000
      6 C5        27.1111    6.0167    2.7468 C.ar      1 RES1    0.0000
      7 C6        26.0351    6.8613    2.4660 C.ar      1 RES1    0.0000
      8 C7        24.6127    6.6495    2.2845 C.2       1 RES1    0.0000
      9 C8        24.0662    7.8952    2.0432 C.2       1 RES1    0.0000
     10 C9        24.0028    5.3515    2.2830 C.2       1 RES1    0.0000
     11 C10       22.6901    5.0575    2.4300 C.2       1 RES1    0.0000
     12 C11       21.5654    5.9769    2.7231 C.3       1 RES1    0.0000
     13 C12       24.8396   10.2696    1.8034 C.3       1 RES1    0.0000
     14 N2        22.3437    3.6474    2.3486 N.pl3     1 RES1    0.0000
     15 O1        21.1897    3.3285    2.5862 O.2       1 RES1    0.0000
     16 O2        23.1854    2.8153    2.0432 O.2       1 RES1    0.0000
     17 H1        27.6429    9.8410    2.4127 H         1 RES1    0.0000
     18 H2        29.5216    8.3711    2.9528 H         1 RES1    0.0000
     19 H3        29.0336    5.8548    3.1329 H         1 RES1    0.0000
     20 H4        27.0574    4.8582    2.7080 H         1 RES1    0.0000
     21 H5        23.1537    7.9476    1.7933 H         1 RES1    0.0000
     22 H6        24.7152    4.6091    2.1318 H         1 RES1    0.0000
     23 H7        21.1287    5.5558    3.5722 H         1 RES1    0.0000
     24 H8        20.9823    5.8797    2.0382 H         1 RES1    0.0000
     25 H9        21.7142    7.1752    3.0392 H         1 RES1    0.0000
     26 H10       25.4471   10.5386    1.0299 H         1 RES1    0.0000
     27 H11       25.2031   10.7878    2.6287 H         1 RES1    0.0000
     28 H12       23.9832   10.7628    1.6204 H         1 RES1    0.0000
@<TRIPOS>BOND
     1    1    2 1
     2    2    3 ar
     3    3    4 ar
     4    4    5 ar
     5    5    6 ar
     6    6    7 ar
     7    7    2 ar
     8    8    7 1
     9    9    1 1
    10   10    8 1
    11   11   10 2
    12   12   11 1
    13   13    1 1
    14   14   11 1
    15   15   14 2
    16   16   14 2
    17   17    3 1
    18   18    4 1
    19   19    5 1
    20   20    6 1
    21   21    9 1
    22   22   10 1
    23   23   12 1
    24   24   12 1
    25   25   12 1
    26   26   13 1
    27   27   13 1
    28   28   13 1
    29    8    9 2
@<TRIPOS>SUBSTRUCTURE
     1 RES1 1

@<TRIPOS>CRYSIN
  24.3980   24.9140    7.2020  90.0000  90.0000  90.0000  43 1

