# MOL2 file generated by ConQuest
# Please check atom types

@<TRIPOS>MOLECULE
FOVZIZ
    36    40     1
SMALL
NO_CHARGES
****
Generated from CSD

@<TRIPOS>ATOM
      1 C1         3.5934    7.2552    5.9951 C.ar      1 RES1    0.0000
      2 C2         2.5081    6.4316    6.3130 C.ar      1 RES1    0.0000
      3 C3         2.6196    5.0941    6.2167 C.ar      1 RES1    0.0000
      4 C4         4.0119    3.1462    5.6765 C.ar      1 RES1    0.0000
      5 C5         5.1879    2.4977    5.3112 C.ar      1 RES1    0.0000
      6 C6         6.3349    3.3190    5.0736 C.ar      1 RES1    0.0000
      7 C7         7.3528    5.6304    4.8381 C.2       1 RES1    0.0000
      8 C8         8.2255    7.9060    4.5603 C.ar      1 RES1    0.0000
      9 C9         8.0829    9.2636    4.5450 C.ar      1 RES1    0.0000
     10 C10        6.8668    9.8269    4.8614 C.ar      1 RES1    0.0000
     11 C11        5.7963    9.0258    5.2062 C.ar      1 RES1    0.0000
     12 C12        5.9193    7.6344    5.2310 C.ar      1 RES1    0.0000
     13 C13        4.8091    6.7525    5.5897 C.ar      1 RES1    0.0000
     14 C14        4.9853    5.3275    5.5146 C.ar      1 RES1    0.0000
     15 C15        3.8508    4.5039    5.8172 C.ar      1 RES1    0.0000
     16 C16        6.2152    4.7306    5.1538 C.ar      1 RES1    0.0000
     17 C17        7.1493    7.0801    4.8928 C.ar      1 RES1    0.0000
     18 C18        5.2703    1.0839    5.1997 C.ar      1 RES1    0.0000
     19 C19        6.4403    0.4959    4.8774 C.ar      1 RES1    0.0000
     20 C20        7.5811    1.2836    4.6711 C.ar      1 RES1    0.0000
     21 C21        7.5364    2.6234    4.7520 C.ar      1 RES1    0.0000
     22 N1         2.8316    2.3002    5.9164 N.pl3     1 RES1    0.0000
     23 O1         8.4435    5.2063    4.4896 O.2       1 RES1    0.0000
     24 O2         2.1586    2.0040    4.9372 O.2       1 RES1    0.0000
     25 O3         2.5883    1.9434    7.0457 O.2       1 RES1    0.0000
     26 H1         3.4644    8.2807    6.0658 H         1 RES1    0.0000
     27 H2         1.6290    6.8445    6.6491 H         1 RES1    0.0000
     28 H3         1.8375    4.4882    6.4231 H         1 RES1    0.0000
     29 H4         9.1273    7.4729    4.3234 H         1 RES1    0.0000
     30 H5         8.8498    9.8740    4.2723 H         1 RES1    0.0000
     31 H6         6.7180   10.8390    4.8483 H         1 RES1    0.0000
     32 H7         4.8816    9.4925    5.4607 H         1 RES1    0.0000
     33 H8         4.4390    0.5161    5.3878 H         1 RES1    0.0000
     34 H9         6.5183   -0.5161    4.8191 H         1 RES1    0.0000
     35 H10        8.4506    0.8303    4.4619 H         1 RES1    0.0000
     36 H11        8.3510    3.1866    4.5639 H         1 RES1    0.0000
@<TRIPOS>BOND
     1    1    2 ar
     2    2    3 ar
     3    3   15 ar
     4    4    5 ar
     5    5    6 ar
     6    6   16 ar
     7    7   16 1
     8    8    9 ar
     9    9   10 ar
    10   10   11 ar
    11   11   12 ar
    12   12   13 1
    13   13    1 ar
    14   14   13 ar
    15   15    4 ar
    16   16   14 ar
    17   17    7 1
    18   18    5 ar
    19   19   18 ar
    20   20   19 ar
    21   21    6 ar
    22   22    4 1
    23   23    7 2
    24   24   22 2
    25   25   22 2
    26   26    1 1
    27   27    2 1
    28   28    3 1
    29   29    8 1
    30   30    9 1
    31   31   10 1
    32   32   11 1
    33   33   18 1
    34   34   19 1
    35   35   20 1
    36   36   21 1
    37    8   17 ar
    38   12   17 ar
    39   14   15 ar
    40   20   21 ar
@<TRIPOS>SUBSTRUCTURE
     1 RES1 1

@<TRIPOS>CRYSIN
   8.7270   22.4410    7.2950  90.0000  91.9800  90.0000  14 1

