# MOL2 file generated by ConQuest
# Please check atom types

@<TRIPOS>MOLECULE
FOWLUZ
    26    26     1
SMALL
NO_CHARGES
****
Generated from CSD

@<TRIPOS>ATOM
      1 O1         4.0727    7.1256    3.4033 O.2       1 RES1    0.0000
      2 N1         3.7695    7.1328    2.1647 N.3       1 RES1    0.0000
      3 C1         4.7943    7.0911    1.0958 C.3       1 RES1    0.0000
      4 C2         3.9018    7.1159   -0.1196 C.2       1 RES1    0.0000
      5 C3         2.6037    7.1656    0.1944 C.2       1 RES1    0.0000
      6 C4         2.3676    7.2043    1.7000 C.3       1 RES1    0.0000
      7 C5         1.4889    7.1763   -0.7039 C.1       1 RES1    0.0000
      8 C6         0.5205    7.1767   -1.4008 C.1       1 RES1    0.0000
      9 C7         5.6137    5.8072    1.1930 C.3       1 RES1    0.0000
     10 H1         5.0205    5.0332    1.0990 H         1 RES1    0.0000
     11 H2         6.0623    5.7708    2.0638 H         1 RES1    0.0000
     12 H3         6.2846    5.7936    0.4795 H         1 RES1    0.0000
     13 C8         5.6925    8.3224    1.1917 C.3       1 RES1    0.0000
     14 H4         5.1450    9.1326    1.1272 H         1 RES1    0.0000
     15 H5         6.3444    8.3093    0.4597 H         1 RES1    0.0000
     16 H6         6.1658    8.3150    2.0498 H         1 RES1    0.0000
     17 C9         1.5800    5.9947    2.1987 C.3       1 RES1    0.0000
     18 H7         2.0392    5.1723    1.9289 H         1 RES1    0.0000
     19 H8         0.6803    6.0090    1.8113 H         1 RES1    0.0000
     20 H9         1.5152    6.0261    3.1757 H         1 RES1    0.0000
     21 C10        1.7376    8.5168    2.1533 C.3       1 RES1    0.0000
     22 H10        2.2927    9.2660    1.8528 H         1 RES1    0.0000
     23 H11        1.6742    8.5285    3.1309 H         1 RES1    0.0000
     24 H12        0.8407    8.5990    1.7672 H         1 RES1    0.0000
     25 H13        4.2531    7.1182   -1.0294 H         1 RES1    0.0000
     26 H14       -0.2742    7.2058   -1.9692 H         1 RES1    0.0000
@<TRIPOS>BOND
     1    1    2 1
     2    2    3 1
     3    3    4 1
     4    4    5 2
     5    5    6 1
     6    6    2 1
     7    7    5 1
     8    8    7 3
     9    9    3 1
    10   10    9 1
    11   11    9 1
    12   12    9 1
    13   13    3 1
    14   14   13 1
    15   15   13 1
    16   16   13 1
    17   17    6 1
    18   18   17 1
    19   19   17 1
    20   20   17 1
    21   21    6 1
    22   22   21 1
    23   23   21 1
    24   24   21 1
    25   25    4 1
    26   26    8 1
@<TRIPOS>SUBSTRUCTURE
     1 RES1 1

@<TRIPOS>CRYSIN
   7.9326   19.0580    6.5989  90.0000 104.3330  90.0000  14 1

