# MOL2 file generated by ConQuest
# Please check atom types

@<TRIPOS>MOLECULE
FOWPOX
    92    98     1
SMALL
NO_CHARGES
****
Generated from CSD

@<TRIPOS>ATOM
      1 O1        10.3773    5.5716   12.5184 O.3       1 RES1    0.0000
      2 O2         4.2081   11.0288    5.1045 O.2       1 RES1    0.0000
      3 O3         2.1145   10.5746    5.7160 O.3       1 RES1    0.0000
      4 N1         9.0905    5.0384   12.6314 N.2       1 RES1    0.0000
      5 N2        10.3381    6.8089   11.8633 N.2       1 RES1    0.0000
      6 C1         8.4859    8.1850   10.9028 C.3       1 RES1    0.0000
      7 H1         9.1210    8.5267   10.2543 H         1 RES1    0.0000
      8 H2         8.2890    8.8925   11.5361 H         1 RES1    0.0000
      9 C2         9.0748    7.0113   11.6202 C.2       1 RES1    0.0000
     10 C3         8.2994    5.9248   12.0846 C.2       1 RES1    0.0000
     11 C4         6.8175    5.8010   11.9769 C.3       1 RES1    0.0000
     12 C5         6.2633    7.0704   11.2199 C.3       1 RES1    0.0000
     13 H3         6.1370    7.7435   11.9198 H         1 RES1    0.0000
     14 C6         4.8667    6.8303   10.6559 C.3       1 RES1    0.0000
     15 H4         4.3240    6.3717   11.3159 H         1 RES1    0.0000
     16 H5         4.9260    6.2669    9.8686 H         1 RES1    0.0000
     17 C7         4.2081    8.1633   10.2862 C.3       1 RES1    0.0000
     18 H6         4.0992    8.6924   11.0919 H         1 RES1    0.0000
     19 H7         3.3238    7.9855    9.9290 H         1 RES1    0.0000
     20 C8         5.0000    8.9828    9.2612 C.3       1 RES1    0.0000
     21 C9         6.4986    9.0632    9.6683 C.3       1 RES1    0.0000
     22 H8         6.5177    9.6737   10.4354 H         1 RES1    0.0000
     23 C10        7.1825    7.7504   10.1812 C.3       1 RES1    0.0000
     24 C11        7.2792    9.7852    8.5759 C.3       1 RES1    0.0000
     25 H9         8.1200   10.0967    8.9472 H         1 RES1    0.0000
     26 H10        7.4866    9.1535    7.8699 H         1 RES1    0.0000
     27 C12        6.5526   10.9498    7.9815 C.2       1 RES1    0.0000
     28 H11        7.0361   11.4953    7.4043 H         1 RES1    0.0000
     29 C13        5.2815   11.2813    8.1989 C.2       1 RES1    0.0000
     30 C14        4.4198   10.4645    9.1751 C.3       1 RES1    0.0000
     31 C15        2.9370   10.4180    8.7450 C.3       1 RES1    0.0000
     32 H12        2.8272    9.7156    8.0842 H         1 RES1    0.0000
     33 H13        2.3977   10.1825    9.5160 H         1 RES1    0.0000
     34 C16        2.4081   11.7302    8.1586 C.3       1 RES1    0.0000
     35 H14        1.4959   11.5963    7.8582 H         1 RES1    0.0000
     36 H15        2.3950   12.4042    8.8556 H         1 RES1    0.0000
     37 C17        3.2471   12.2390    6.9894 C.3       1 RES1    0.0000
     38 C18        4.6942   12.4926    7.4649 C.3       1 RES1    0.0000
     39 H16        5.2396   12.6328    6.6622 H         1 RES1    0.0000
     40 C19        4.8084   13.7745    8.3207 C.3       1 RES1    0.0000
     41 H17        4.3588   13.6255    9.1673 H         1 RES1    0.0000
     42 H18        5.7450   13.9399    8.5108 H         1 RES1    0.0000
     43 C20        4.2081   15.0281    7.6545 C.3       1 RES1    0.0000
     44 C21        2.7540   14.7297    7.2857 C.3       1 RES1    0.0000
     45 H19        2.2461   14.5725    8.0959 H         1 RES1    0.0000
     46 H20        2.3733   15.5042    6.8414 H         1 RES1    0.0000
     47 C22        2.6277   13.5131    6.3702 C.3       1 RES1    0.0000
     48 H21        3.0694   13.7036    5.5265 H         1 RES1    0.0000
     49 H22        1.6893   13.3511    6.1849 H         1 RES1    0.0000
     50 C23        6.2294    5.7856   13.3999 C.3       1 RES1    0.0000
     51 H23        6.5570    5.0169   13.8737 H         1 RES1    0.0000
     52 H24        5.2710    5.7448   13.3496 H         1 RES1    0.0000
     53 H25        6.4916    6.5832   13.8639 H         1 RES1    0.0000
     54 C24        6.4663    4.4569   11.2813 C.3       1 RES1    0.0000
     55 H26        6.8270    4.4529   10.3906 H         1 RES1    0.0000
     56 H27        5.5123    4.3576   11.2400 H         1 RES1    0.0000
     57 H28        6.8418    3.7289   11.7815 H         1 RES1    0.0000
     58 C25        7.5841    6.7684    9.0436 C.3       1 RES1    0.0000
     59 H29        6.7957    6.4669    8.5868 H         1 RES1    0.0000
     60 H30        8.0442    6.0134    9.4186 H         1 RES1    0.0000
     61 H31        8.1618    7.2177    8.4212 H         1 RES1    0.0000
     62 C26        4.8310    8.2995    7.8613 C.3       1 RES1    0.0000
     63 H32        3.9014    8.1151    7.7063 H         1 RES1    0.0000
     64 H33        5.3276    7.4787    7.8446 H         1 RES1    0.0000
     65 H34        5.1595    8.8868    7.1764 H         1 RES1    0.0000
     66 C27        4.4817   11.1986   10.5751 C.3       1 RES1    0.0000
     67 H35        4.1227   12.0840   10.4880 H         1 RES1    0.0000
     68 H36        5.3938   11.2495   10.8698 H         1 RES1    0.0000
     69 H37        3.9650   10.7064   11.2166 H         1 RES1    0.0000
     70 C28        4.2299   16.1959    8.6729 C.3       1 RES1    0.0000
     71 H38        5.1377   16.3979    8.9082 H         1 RES1    0.0000
     72 H39        3.7428   15.9425    9.4614 H         1 RES1    0.0000
     73 H40        3.8213   16.9714    8.2809 H         1 RES1    0.0000
     74 C29        5.0305   15.4608    6.4321 C.3       1 RES1    0.0000
     75 H41        5.0427   14.7497    5.7875 H         1 RES1    0.0000
     76 H42        5.9288   15.6605    6.7050 H         1 RES1    0.0000
     77 H43        4.6341   16.2435    6.0407 H         1 RES1    0.0000
     78 C30        3.2854   11.2318    5.8446 C.2       1 RES1    0.0000
     79 C31        2.0361    9.6080    4.6329 C.3       1 RES1    0.0000
     80 H44        2.7662    8.9725    4.6947 H         1 RES1    0.0000
     81 H45        2.0901   10.0567    3.7752 H         1 RES1    0.0000
     82 C32        0.7275    8.9083    4.7689 C.ar      1 RES1    0.0000
     83 C33        0.6621    7.6012    5.1303 C.ar      1 RES1    0.0000
     84 H46        1.4532    7.1338    5.2752 H         1 RES1    0.0000
     85 C34       -0.5332    6.9467    5.2888 C.ar      1 RES1    0.0000
     86 H47       -0.5524    6.0477    5.5265 H         1 RES1    0.0000
     87 C35       -1.6719    7.6246    5.0942 C.ar      1 RES1    0.0000
     88 H48       -2.4822    7.1853    5.2245 H         1 RES1    0.0000
     89 C36       -1.6911    8.9459    4.7079 C.ar      1 RES1    0.0000
     90 H49       -2.4900    9.3936    4.5466 H         1 RES1    0.0000
     91 C37       -0.4522    9.5866    4.5684 C.ar      1 RES1    0.0000
     92 H50       -0.4269   10.4873    4.3362 H         1 RES1    0.0000
@<TRIPOS>BOND
     1    1    4 1
     2    2   78 2
     3    3   78 1
     4    4   10 2
     5    5    1 1
     6    6    7 1
     7    8    6 1
     8    9    5 2
     9   10    9 1
    10   11   10 1
    11   12   11 1
    12   13   12 1
    13   14   12 1
    14   15   14 1
    15   16   14 1
    16   17   14 1
    17   18   17 1
    18   19   17 1
    19   20   17 1
    20   21   20 1
    21   22   21 1
    22   23    6 1
    23   24   21 1
    24   25   24 1
    25   26   24 1
    26   27   24 1
    27   28   27 1
    28   29   27 2
    29   30   20 1
    30   31   30 1
    31   32   31 1
    32   33   31 1
    33   34   31 1
    34   35   34 1
    35   36   34 1
    36   37   34 1
    37   38   29 1
    38   39   38 1
    39   40   38 1
    40   41   40 1
    41   42   40 1
    42   43   40 1
    43   44   43 1
    44   45   44 1
    45   46   44 1
    46   47   37 1
    47   48   47 1
    48   49   47 1
    49   50   11 1
    50   51   50 1
    51   52   50 1
    52   53   50 1
    53   54   11 1
    54   55   54 1
    55   56   54 1
    56   57   54 1
    57   58   23 1
    58   59   58 1
    59   60   58 1
    60   61   58 1
    61   62   20 1
    62   63   62 1
    63   64   62 1
    64   65   62 1
    65   66   30 1
    66   67   66 1
    67   68   66 1
    68   69   66 1
    69   70   43 1
    70   71   70 1
    71   72   70 1
    72   73   70 1
    73   74   43 1
    74   75   74 1
    75   76   74 1
    76   77   74 1
    77   78   37 1
    78   79    3 1
    79   80   79 1
    80   81   79 1
    81   82   79 1
    82   83   82 ar
    83   84   83 1
    84   85   83 ar
    85   86   85 1
    86   87   85 ar
    87   88   87 1
    88   89   87 ar
    89   90   89 1
    90   91   82 ar
    91   92   91 1
    92    6    9 1
    93   12   23 1
    94   21   23 1
    95   29   30 1
    96   37   38 1
    97   44   47 1
    98   89   91 ar
@<TRIPOS>SUBSTRUCTURE
     1 RES1 1

@<TRIPOS>CRYSIN
   8.7124   19.0540   19.4800  90.0000  90.0000  90.0000  19 1

