# MOL2 file generated by ConQuest
# Please check atom types

@<TRIPOS>MOLECULE
FOXCEC
    28    28     1
SMALL
NO_CHARGES
****
Generated from CSD

@<TRIPOS>ATOM
      1 O1        -3.7322    3.2469    0.5984 O.3       1 RES1    0.0000
      2 O2         2.7395    6.4419    6.6517 O.2       1 RES1    0.0000
      3 O3         4.2842    5.2542    5.7598 O.2       1 RES1    0.0000
      4 O4        -1.8503    2.2939   -0.1068 O.2       1 RES1    0.0000
      5 N1         3.1414    5.6730    5.8022 N.pl3     1 RES1    0.0000
      6 N2        -3.4016    5.1550    3.1942 N.1       1 RES1    0.0000
      7 C1        -5.8254    2.2006    0.2728 C.3       1 RES1    0.0000
      8 H1        -5.6827    1.7036    1.0805 H         1 RES1    0.0000
      9 H2        -6.3655    1.6835   -0.3302 H         1 RES1    0.0000
     10 H3        -6.2738    3.0239    0.4774 H         1 RES1    0.0000
     11 C2        -4.5419    2.4892   -0.3536 C.3       1 RES1    0.0000
     12 H4        -4.6742    3.0063   -1.1630 H         1 RES1    0.0000
     13 H5        -4.0920    1.6626   -0.5887 H         1 RES1    0.0000
     14 C3        -0.4687    3.6791    1.9161 C.2       1 RES1    0.0000
     15 H6        -0.0354    3.1666    1.2725 H         1 RES1    0.0000
     16 C4         0.4104    4.2472    2.9239 C.ar      1 RES1    0.0000
     17 C5        -0.0217    5.0174    4.0069 C.ar      1 RES1    0.0000
     18 H7        -0.9260    5.2115    4.0993 H         1 RES1    0.0000
     19 C6         0.8685    5.4906    4.9350 C.ar      1 RES1    0.0000
     20 H8         0.5770    6.0118    5.6482 H         1 RES1    0.0000
     21 C7         2.1963    5.1822    4.7939 C.ar      1 RES1    0.0000
     22 C8         1.7741    3.9748    2.8178 C.ar      1 RES1    0.0000
     23 H9         2.0804    3.4703    2.0981 H         1 RES1    0.0000
     24 C9         2.6772    4.4309    3.7450 C.ar      1 RES1    0.0000
     25 H10        3.5853    4.2392    3.6668 H         1 RES1    0.0000
     26 C10       -2.6713    4.5279    2.5779 C.1       1 RES1    0.0000
     27 C11       -1.7961    3.7661    1.7532 C.2       1 RES1    0.0000
     28 C12       -2.4364    3.0185    0.6395 C.2       1 RES1    0.0000
@<TRIPOS>BOND
     1    1   11 1
     2    2    5 2
     3    3    5 2
     4    4   28 2
     5    5   21 1
     6    6   26 3
     7    7    8 1
     8    9    7 1
     9   10    7 1
    10   11    7 1
    11   12   11 1
    12   13   11 1
    13   14   15 1
    14   16   14 1
    15   17   16 ar
    16   18   17 1
    17   19   17 ar
    18   20   19 1
    19   21   19 ar
    20   22   16 ar
    21   23   22 1
    22   24   21 ar
    23   25   24 1
    24   26   27 1
    25   27   14 2
    26   28    1 1
    27   22   24 ar
    28   27   28 1
@<TRIPOS>SUBSTRUCTURE
     1 RES1 1

@<TRIPOS>CRYSIN
  15.4520    4.1836   20.9850  90.0000 121.2100  90.0000  14 1

