# MOL2 file generated by ConQuest
# Please check atom types

@<TRIPOS>MOLECULE
FOXLIO
    24    25     1
SMALL
NO_CHARGES
****
Generated from CSD

@<TRIPOS>ATOM
      1 O1         3.4911    3.4354   10.7507 O.2       1 RES1    0.0000
      2 O2         3.4555    4.8425    9.1142 O.2       1 RES1    0.0000
      3 N1         3.6386    4.5600   10.3007 N.pl3     1 RES1    0.0000
      4 C1         4.5001    6.5116   13.4331 C.ar      1 RES1    0.0000
      5 C2         4.9397    7.7501   12.9985 C.ar      1 RES1    0.0000
      6 H1         5.0193    7.9134   12.0653 H         1 RES1    0.0000
      7 C3         5.2693    8.7659   13.9002 C.ar      1 RES1    0.0000
      8 H2         5.5702    9.6063   13.5744 H         1 RES1    0.0000
      9 C4         5.1618    8.5598   15.2500 C.ar      1 RES1    0.0000
     10 H3         5.3798    9.2614   15.8525 H         1 RES1    0.0000
     11 C5         4.6116    7.0864   17.1519 C.ar      1 RES1    0.0000
     12 H4         4.8166    7.7898   17.7556 H         1 RES1    0.0000
     13 C6         4.2105    5.8758   17.6412 C.ar      1 RES1    0.0000
     14 H5         4.1371    5.7410   18.5781 H         1 RES1    0.0000
     15 C7         3.9046    4.8247   16.7503 C.ar      1 RES1    0.0000
     16 H6         3.6342    3.9808   17.0919 H         1 RES1    0.0000
     17 C8         3.9947    5.0127   15.3951 C.ar      1 RES1    0.0000
     18 H7         3.7774    4.2954   14.8119 H         1 RES1    0.0000
     19 C9         4.4055    6.2581   14.8456 C.ar      1 RES1    0.0000
     20 C10        4.7277    7.3106   15.7530 C.ar      1 RES1    0.0000
     21 C11        4.1291    5.4763   12.4708 C.2       1 RES1    0.0000
     22 H8         3.9380    4.6115   12.8151 H         1 RES1    0.0000
     23 C12        4.0361    5.6403   11.1686 C.2       1 RES1    0.0000
     24 H9         4.2359    6.4899   10.7915 H         1 RES1    0.0000
@<TRIPOS>BOND
     1    1    3 2
     2    2    3 2
     3    3   23 1
     4    4    5 ar
     5    5    6 1
     6    7    5 ar
     7    8    7 1
     8    9    7 ar
     9   10    9 1
    10   11   12 1
    11   13   11 ar
    12   14   13 1
    13   15   13 ar
    14   16   15 1
    15   17   15 ar
    16   18   17 1
    17   19    4 ar
    18   20    9 ar
    19   21    4 1
    20   22   21 1
    21   23   21 2
    22   24   23 1
    23   11   20 ar
    24   17   19 ar
    25   19   20 ar
@<TRIPOS>SUBSTRUCTURE
     1 RES1 1

@<TRIPOS>CRYSIN
   7.2670   13.7410   19.1270  90.0000  90.0000  90.0000  61 1

