# MOL2 file generated by ConQuest
# Please check atom types

@<TRIPOS>MOLECULE
FOYNUC
    27    29     1
SMALL
NO_CHARGES
****
Generated from CSD

@<TRIPOS>ATOM
      1 O1         0.1760    2.7374    0.8435 O.3       1 RES1    0.0000
      2 C1        -0.0240    2.0119   -0.2869 C.2       1 RES1    0.0000
      3 C2         0.9078    2.2086   -1.2496 C.2       1 RES1    0.0000
      4 C3         2.9741    3.8115   -1.1213 C.ar      1 RES1    0.0000
      5 C4         3.5785    4.6742   -0.2556 C.ar      1 RES1    0.0000
      6 C5         3.8272    5.9084    1.9426 C.3       1 RES1    0.0000
      7 C6         3.4119    5.8014    3.4073 C.3       1 RES1    0.0000
      8 C7         1.9090    5.7556    3.5447 C.3       1 RES1    0.0000
      9 C8         1.3309    4.5288    2.8659 C.3       1 RES1    0.0000
     10 C9         1.9193    4.3128    1.4931 C.ar      1 RES1    0.0000
     11 C10        3.0814    4.9423    1.0466 C.ar      1 RES1    0.0000
     12 C11        1.8027    3.1601   -0.6910 C.ar      1 RES1    0.0000
     13 C12        1.3307    3.4537    0.5879 C.ar      1 RES1    0.0000
     14 N1        -1.1613    1.1775   -0.2869 N.pl3     1 RES1    0.0000
     15 O2        -1.3333    0.4602   -1.2688 O.2       1 RES1    0.0000
     16 O3        -1.9108    1.1985    0.6839 O.2       1 RES1    0.0000
     17 H1         0.9552    1.7475   -2.2123 H         1 RES1    0.0000
     18 H2         3.3718    3.6322   -2.0911 H         1 RES1    0.0000
     19 H3         4.4717    5.1692   -0.5758 H         1 RES1    0.0000
     20 H4         4.8889    5.6998    1.8688 H         1 RES1    0.0000
     21 H5         3.6421    6.9258    1.5961 H         1 RES1    0.0000
     22 H6         3.8376    4.8947    3.8387 H         1 RES1    0.0000
     23 H7         3.7983    6.6696    3.9498 H         1 RES1    0.0000
     24 H8         1.6547    5.7364    4.5963 H         1 RES1    0.0000
     25 H9         1.4757    6.6513    3.0912 H         1 RES1    0.0000
     26 H10        0.2442    4.6568    2.7780 H         1 RES1    0.0000
     27 H11        1.5393    3.6505    3.4851 H         1 RES1    0.0000
@<TRIPOS>BOND
     1    1    2 1
     2    2    3 2
     3    3   12 1
     4    4    5 ar
     5    5   11 ar
     6    6    7 1
     7    7    8 1
     8    8    9 1
     9    9   10 1
    10   10   11 ar
    11   11    6 1
    12   12    4 ar
    13   13    1 1
    14   14    2 1
    15   15   14 2
    16   16   14 2
    17   17    3 1
    18   18    4 1
    19   19    5 1
    20   20    6 1
    21   21    6 1
    22   22    7 1
    23   23    7 1
    24   24    8 1
    25   25    8 1
    26   26    9 1
    27   27    9 1
    28   10   13 ar
    29   12   13 ar
@<TRIPOS>SUBSTRUCTURE
     1 RES1 1

@<TRIPOS>CRYSIN
  11.0420    9.1490   12.0560  90.0000 123.0800  90.0000  14 1

