# MOL2 file generated by ConQuest
# Please check atom types

@<TRIPOS>MOLECULE
FOZQOC
    54    58     1
SMALL
NO_CHARGES
****
Generated from CSD

@<TRIPOS>ATOM
      1 N1        -2.1045    3.5955    9.3609 N.2       1 RES1    0.0000
      2 C1        -0.3201    3.8276    6.9367 C.ar      1 RES1    0.0000
      3 N2        -2.5028    3.0709   10.5651 N.3       1 RES1    0.0000
      4 N3         0.5365    5.7547    8.2861 N.3       1 RES1    0.0000
      5 C2        -0.0798    4.7858   10.3259 C.ar      1 RES1    0.0000
      6 C3         0.7810    5.6859    9.6539 C.ar      1 RES1    0.0000
      7 C4        -3.6696    2.3721   10.6036 C.ar      1 RES1    0.0000
      8 C5         0.3974    7.0957    7.6454 C.3       1 RES1    0.0000
      9 H1         0.1750    7.7473    8.3425 H         1 RES1    0.0000
     10 C6        -5.3930    1.1232   11.7925 C.ar      1 RES1    0.0000
     11 H2        -5.7272    0.7647   12.5832 H         1 RES1    0.0000
     12 C7        -0.6397    4.9000    7.9761 C.3       1 RES1    0.0000
     13 C8         0.9418    3.6902    6.3890 C.ar      1 RES1    0.0000
     14 H3         1.6252    4.2610    6.6570 H         1 RES1    0.0000
     15 C9        -1.3236    2.9686    6.5057 C.ar      1 RES1    0.0000
     16 H4        -2.1837    3.0582    6.8480 H         1 RES1    0.0000
     17 C10        0.0840    4.5721   11.6884 C.ar      1 RES1    0.0000
     18 H5        -0.4683    3.9740   12.1358 H         1 RES1    0.0000
     19 N4        -7.3347    0.2345   10.6085 N.pl3     1 RES1    0.0000
     20 C11       -5.5913    1.4928    9.4225 C.ar      1 RES1    0.0000
     21 H6        -6.0707    1.3811    8.6337 H         1 RES1    0.0000
     22 N5        -3.5432    1.9891   13.0682 N.pl3     1 RES1    0.0000
     23 O1        -2.5120    2.6475   13.1290 O.2       1 RES1    0.0000
     24 C12        1.0680    5.2511   12.3730 C.ar      1 RES1    0.0000
     25 H7         1.1931    5.0938   13.2813 H         1 RES1    0.0000
     26 C13        0.1993    1.8531    5.0294 C.ar      1 RES1    0.0000
     27 H8         0.3726    1.1978    4.3921 H         1 RES1    0.0000
     28 C14        1.7439    6.4038   10.3549 C.ar      1 RES1    0.0000
     29 H9         2.2861    7.0248    9.9248 H         1 RES1    0.0000
     30 C15       -1.0332    4.3023    9.3289 C.2       1 RES1    0.0000
     31 C16        1.8705    6.1655   11.7135 C.ar      1 RES1    0.0000
     32 H10        2.5124    6.6339   12.1956 H         1 RES1    0.0000
     33 C17       -0.8145    6.9335    6.7429 C.3       1 RES1    0.0000
     34 H11       -1.2848    7.7751    6.6397 H         1 RES1    0.0000
     35 H12       -0.5525    6.6101    5.8664 H         1 RES1    0.0000
     36 C18        1.1988    2.7039    5.4363 C.ar      1 RES1    0.0000
     37 H13        2.0517    2.6229    5.0738 H         1 RES1    0.0000
     38 O2        -7.7951   -0.1422   11.6730 O.2       1 RES1    0.0000
     39 O3        -7.8951    0.0567    9.5459 O.2       1 RES1    0.0000
     40 O4        -4.0391    1.4932   14.0508 O.2       1 RES1    0.0000
     41 C19       -1.6802    5.9127    7.4603 C.3       1 RES1    0.0000
     42 H14       -2.3087    5.4933    6.8518 H         1 RES1    0.0000
     43 H15       -2.1698    6.3186    8.1931 H         1 RES1    0.0000
     44 C20       -4.2008    1.8197   11.7896 C.ar      1 RES1    0.0000
     45 C21       -4.4117    2.1682    9.4225 C.ar      1 RES1    0.0000
     46 H16       -4.0851    2.5059    8.6202 H         1 RES1    0.0000
     47 C22       -1.0576    1.9779    5.5713 C.ar      1 RES1    0.0000
     48 H17       -1.7338    1.3956    5.3110 H         1 RES1    0.0000
     49 C23       -6.0753    0.9679   10.6229 C.ar      1 RES1    0.0000
     50 C24        1.6419    7.5718    6.9338 C.3       1 RES1    0.0000
     51 H18        2.3602    7.6530    7.5654 H         1 RES1    0.0000
     52 H19        1.4722    8.4268    6.5307 H         1 RES1    0.0000
     53 H20        1.8834    6.9397    6.2540 H         1 RES1    0.0000
     54 H21       -2.1841    3.2844   11.3490 H         1 RES1    0.0000
@<TRIPOS>BOND
     1    1    3 1
     2    2   12 1
     3    3    7 1
     4    4    6 1
     5    5    6 ar
     6    6   28 ar
     7    7   44 ar
     8    8    4 1
     9    9    8 1
    10   10   11 1
    11   12    4 1
    12   13    2 ar
    13   14   13 1
    14   15    2 ar
    15   16   15 1
    16   17    5 ar
    17   18   17 1
    18   19   38 2
    19   20   21 1
    20   22   23 2
    21   24   17 ar
    22   25   24 1
    23   26   27 1
    24   28   29 1
    25   30    1 2
    26   31   24 ar
    27   32   31 1
    28   33    8 1
    29   34   33 1
    30   35   33 1
    31   36   13 ar
    32   37   36 1
    33   39   19 2
    34   40   22 2
    35   41   12 1
    36   42   41 1
    37   43   41 1
    38   44   10 ar
    39   45    7 ar
    40   46   45 1
    41   47   15 ar
    42   48   47 1
    43   49   10 ar
    44   50    8 1
    45   51   50 1
    46   52   50 1
    47   53   50 1
    48   54    3 1
    49    5   30 1
    50   12   30 1
    51   19   49 1
    52   20   45 ar
    53   20   49 ar
    54   22   44 1
    55   26   36 ar
    56   26   47 ar
    57   28   31 ar
    58   33   41 1
@<TRIPOS>SUBSTRUCTURE
     1 RES1 1

@<TRIPOS>CRYSIN
   6.4390    8.7291   10.3553 110.2030  94.8800  95.2320   1 1

