# MOL2 file generated by ConQuest
# Please check atom types

@<TRIPOS>MOLECULE
FUAZOX10
    28    29     1
SMALL
NO_CHARGES
****
Generated from CSD

@<TRIPOS>ATOM
      1 O1         0.6402   10.6051    2.8987 O.2       1 RES1    0.0000
      2 O2         4.1595   13.2797    2.3985 O.2       1 RES1    0.0000
      3 O3         2.1473    9.2523    6.4702 O.3       1 RES1    0.0000
      4 O4         2.5774    6.0272    5.0341 O.3       1 RES1    0.0000
      5 O5         5.0128    8.6054    6.3120 O.3       1 RES1    0.0000
      6 N1         2.2782   10.5227    4.4792 N.am      1 RES1    0.0000
      7 N2         2.4336   11.9346    2.5764 N.2       1 RES1    0.0000
      8 N3         3.5581   12.3996    3.0712 N.pl3     1 RES1    0.0000
      9 C1         1.7303   11.0063    3.2895 C.2       1 RES1    0.0000
     10 C2         4.1075   11.9953    4.2781 C.2       1 RES1    0.0000
     11 C3         3.4307   11.0389    4.9469 C.2       1 RES1    0.0000
     12 C4         5.3633   12.6484    4.7325 C.3       1 RES1    0.0000
     13 C5         1.4946    9.4871    5.2441 C.3       1 RES1    0.0000
     14 C6         1.4397    8.1560    4.5127 C.3       1 RES1    0.0000
     15 C7         2.6591    7.4345    5.0479 C.3       1 RES1    0.0000
     16 C8         2.7090    7.9087    6.4948 C.3       1 RES1    0.0000
     17 C9         4.0783    7.9336    7.1365 C.3       1 RES1    0.0000
     18 H1         3.7076   10.7140    5.7807 H         1 RES1    0.0000
     19 H2         6.0594   12.4556    4.0756 H         1 RES1    0.0000
     20 H3         5.6048   12.3001    5.5885 H         1 RES1    0.0000
     21 H4         5.1604   13.6063    4.7902 H         1 RES1    0.0000
     22 H5         0.6524    9.9365    5.4358 H         1 RES1    0.0000
     23 H6         1.4225    8.3037    3.5433 H         1 RES1    0.0000
     24 H7         0.6214    7.8216    4.8493 H         1 RES1    0.0000
     25 H8         3.5158    7.7439    4.5832 H         1 RES1    0.0000
     26 H9         2.1028    7.3396    7.0276 H         1 RES1    0.0000
     27 H10        4.0471    8.4126    8.0378 H         1 RES1    0.0000
     28 H11        4.3776    6.9820    7.3035 H         1 RES1    0.0000
@<TRIPOS>BOND
     1    1    9 2
     2    2    8 1
     3    3   13 1
     4    4   15 1
     5    5   17 1
     6    6    9 1
     7    7    8 2
     8    8   10 1
     9    9    7 1
    10   10   11 2
    11   11    6 1
    12   12   10 1
    13   13    6 1
    14   14   13 1
    15   15   14 1
    16   16    3 1
    17   17   16 1
    18   18   11 1
    19   19   12 1
    20   20   12 1
    21   21   12 1
    22   22   13 1
    23   23   14 1
    24   24   14 1
    25   25   15 1
    26   26   16 1
    27   27   17 1
    28   28   17 1
    29   15   16 1
@<TRIPOS>SUBSTRUCTURE
     1 RES1 1

@<TRIPOS>CRYSIN
   6.8320   15.5500    5.1090  90.0000 105.2900  90.0000   4 1

