# MOL2 file generated by ConQuest
# Please check atom types

@<TRIPOS>MOLECULE
FUBHAL
    55    56     1
SMALL
NO_CHARGES
****
Generated from CSD

@<TRIPOS>ATOM
      1 C1         2.3205   12.4531   11.8100 C.ar      1 RES1    0.0000
      2 C2         1.6483   13.1361   12.8580 C.ar      1 RES1    0.0000
      3 N1         1.5707   12.5981   14.2109 N.pl3     1 RES1    0.0000
      4 O1         1.1574   13.3410   15.1000 O.2       1 RES1    0.0000
      5 O2         1.8914   11.4458   14.4133 O.2       1 RES1    0.0000
      6 C3         1.0143   14.3629   12.6470 C.ar      1 RES1    0.0000
      7 H1         0.5866   14.8232   13.3729 H         1 RES1    0.0000
      8 C4         1.0115   14.8993   11.3931 C.ar      1 RES1    0.0000
      9 N2         0.2922   16.1498   11.1819 N.pl3     1 RES1    0.0000
     10 O3         0.1781   16.5485   10.0267 O.2       1 RES1    0.0000
     11 O4        -0.1672   16.7417   12.1505 O.2       1 RES1    0.0000
     12 C5         1.6502   14.2754   10.3223 C.ar      1 RES1    0.0000
     13 H2         1.6401   14.6772    9.4506 H         1 RES1    0.0000
     14 C6         2.2931   13.0788   10.5317 C.ar      1 RES1    0.0000
     15 H3         2.7348   12.6540    9.7928 H         1 RES1    0.0000
     16 N3         2.9677   11.3090   12.0003 N.pl3     1 RES1    0.0000
     17 H4         2.9580   11.0824   12.8139 H         1 RES1    0.0000
     18 N4         3.6242   10.6946   10.9494 N.2       1 RES1    0.0000
     19 C7         4.2700    9.6127   11.2082 C.2       1 RES1    0.0000
     20 C8         4.9351    8.9125   10.0478 C.3       1 RES1    0.0000
     21 H5         5.8810    8.9249   10.2110 H         1 RES1    0.0000
     22 H6         4.6228    8.0048   10.0442 H         1 RES1    0.0000
     23 C9         4.7065    9.4813    8.6491 C.3       1 RES1    0.0000
     24 H7         3.7916    9.7692    8.6100 H         1 RES1    0.0000
     25 C10        4.9543    8.4156    7.5924 C.3       1 RES1    0.0000
     26 H8         5.8096    8.0083    7.7481 H         1 RES1    0.0000
     27 H9         4.9473    8.8229    6.7232 H         1 RES1    0.0000
     28 O5         3.9185    7.3965    7.6579 O.3       1 RES1    0.0000
     29 C11        4.2448    6.1677    8.0606 C.2       1 RES1    0.0000
     30 O6         5.3684    5.8568    8.3720 O.2       1 RES1    0.0000
     31 C12        3.0618    5.2616    8.1384 C.3       1 RES1    0.0000
     32 H10        2.5548    5.3494    7.3280 H         1 RES1    0.0000
     33 H11        3.3693    4.3566    8.2271 H         1 RES1    0.0000
     34 C13        2.1667    5.5927    9.3123 C.3       1 RES1    0.0000
     35 H12        2.0054    6.5390    9.3163 H         1 RES1    0.0000
     36 H13        1.3354    5.1269    9.1960 H         1 RES1    0.0000
     37 C14        2.7516    5.2020   10.6619 C.3       1 RES1    0.0000
     38 H14        3.6789    5.4504   10.6749 H         1 RES1    0.0000
     39 H15        2.6736    4.2505   10.7618 H         1 RES1    0.0000
     40 C15        2.0667    5.8574   11.8300 C.3       1 RES1    0.0000
     41 H16        1.1192    5.8277   11.6791 H         1 RES1    0.0000
     42 H17        2.2798    5.3639   12.6255 H         1 RES1    0.0000
     43 C16        2.4776    7.3166   12.0416 C.3       1 RES1    0.0000
     44 H18        1.8832    7.7064   12.6868 H         1 RES1    0.0000
     45 H19        2.3915    7.7806   11.2058 H         1 RES1    0.0000
     46 C17        3.9087    7.4824   12.5458 C.3       1 RES1    0.0000
     47 H20        3.9552    7.1428   13.4425 H         1 RES1    0.0000
     48 H21        4.4872    6.9676   11.9784 H         1 RES1    0.0000
     49 C18        4.4098    8.9298   12.5535 C.3       1 RES1    0.0000
     50 H22        5.3374    8.9292   12.8009 H         1 RES1    0.0000
     51 H23        3.9058    9.4254   13.2030 H         1 RES1    0.0000
     52 C19        5.6051   10.6738    8.3676 C.3       1 RES1    0.0000
     53 H24        5.4530   11.3507    9.0310 H         1 RES1    0.0000
     54 H25        5.4062   11.0277    7.4977 H         1 RES1    0.0000
     55 H26        6.5238   10.3967    8.3980 H         1 RES1    0.0000
@<TRIPOS>BOND
     1    1    2 ar
     2    2    3 1
     3    3    4 2
     4    5    3 2
     5    6    2 ar
     6    7    6 1
     7    8    6 ar
     8    9    8 1
     9   10    9 2
    10   11    9 2
    11   12    8 ar
    12   13   12 1
    13   14    1 ar
    14   15   14 1
    15   16    1 1
    16   17   16 1
    17   18   16 1
    18   19   18 2
    19   20   19 1
    20   21   20 1
    21   22   20 1
    22   23   20 1
    23   24   23 1
    24   25   23 1
    25   26   25 1
    26   27   25 1
    27   28   25 1
    28   29   28 1
    29   30   29 2
    30   31   29 1
    31   32   31 1
    32   33   31 1
    33   34   31 1
    34   35   34 1
    35   36   34 1
    36   37   34 1
    37   38   37 1
    38   39   37 1
    39   40   37 1
    40   41   40 1
    41   42   40 1
    42   43   40 1
    43   44   43 1
    44   45   43 1
    45   46   43 1
    46   47   46 1
    47   48   46 1
    48   49   19 1
    49   50   49 1
    50   51   49 1
    51   52   23 1
    52   53   52 1
    53   54   52 1
    54   55   52 1
    55   12   14 ar
    56   46   49 1
@<TRIPOS>SUBSTRUCTURE
     1 RES1 1

@<TRIPOS>CRYSIN
   9.7978   13.5930   15.2058  90.0000  90.0000  90.0000  19 1

