# MOL2 file generated by ConQuest
# Please check atom types

@<TRIPOS>MOLECULE
FUCMAR
    16    17     1
SMALL
NO_CHARGES
****
Generated from CSD

@<TRIPOS>ATOM
      1 C1         0.6248    1.5443   13.1853 C.2       1 RES1    0.0000
      2 C2         1.1863    2.0091   14.3516 C.2       1 RES1    0.0000
      3 C3         2.2984    2.7541   13.9221 C.2       1 RES1    0.0000
      4 C4         3.3093    3.5421   14.7506 C.3       1 RES1    0.0000
      5 C5        -0.5743    0.7757   12.8870 C.3       1 RES1    0.0000
      6 C6         0.6742    1.9137   15.7444 C.2       1 RES1    0.0000
      7 C7         1.1193   -1.4940   16.8388 C.3       1 RES1    0.0000
      8 C8         0.8179   -0.6680   18.0770 C.3       1 RES1    0.0000
      9 C9        -0.0822    0.4248   17.5631 C.3       1 RES1    0.0000
     10 C10        1.0591   -0.5520   15.6905 C.3       1 RES1    0.0000
     11 C11       -1.5481    0.0051   17.5056 C.3       1 RES1    0.0000
     12 N1         2.4208    2.7099   12.5977 N.2       1 RES1    0.0000
     13 N2         0.4403    0.6680   16.2134 N.am      1 RES1    0.0000
     14 O1         1.3471    1.9537   12.1376 O.3       1 RES1    0.0000
     15 O2         0.4427    2.9326   16.3644 O.2       1 RES1    0.0000
     16 O3        -2.4055    1.0271   17.0563 O.3       1 RES1    0.0000
@<TRIPOS>BOND
     1    1    2 2
     2    2    3 1
     3    3    4 1
     4    5    1 1
     5    6    2 1
     6    7    8 1
     7    8    9 1
     8    9   11 1
     9   10    7 1
    10   11   16 1
    11   12    3 2
    12   13    6 1
    13   14    1 1
    14   15    6 2
    15    9   13 1
    16   10   13 1
    17   12   14 1
@<TRIPOS>SUBSTRUCTURE
     1 RES1 1

@<TRIPOS>CRYSIN
   6.0900   10.2610   17.9710  90.0000  90.0000  90.0000  19 1

