# MOL2 file generated by ConQuest
# Please check atom types

@<TRIPOS>MOLECULE
FUCTOM
    45    46     1
SMALL
NO_CHARGES
****
Generated from CSD

@<TRIPOS>ATOM
      1 C1         3.9598    0.3895   23.3792 C.ar      1 RES1    0.0000
      2 N1         3.3374   -0.9300   23.3325 N.pl3     1 RES1    0.0000
      3 O1         2.9795   -1.4606   24.3851 O.2       1 RES1    0.0000
      4 O2         3.1354   -1.4561   22.2552 O.2       1 RES1    0.0000
      5 C2         4.3285    0.9139   22.1425 C.ar      1 RES1    0.0000
      6 C3         4.8792    2.1735   22.0958 C.ar      1 RES1    0.0000
      7 O3         5.2627    2.8015   20.9443 O.3       1 RES1    0.0000
      8 C4         4.9663    2.1556   19.7158 C.3       1 RES1    0.0000
      9 C5         5.0779    2.8837   23.2748 C.ar      1 RES1    0.0000
     10 C6         4.7084    2.3477   24.4923 C.ar      1 RES1    0.0000
     11 C7         4.1306    1.0791   24.5802 C.ar      1 RES1    0.0000
     12 N2         3.7694    0.5574   25.8224 N.3       1 RES1    0.0000
     13 N3         4.0317    1.2605   26.9025 N.2       1 RES1    0.0000
     14 C8         3.7115    0.8192   28.0952 C.2       1 RES1    0.0000
     15 C9         4.1133    1.7393   29.1835 C.2       1 RES1    0.0000
     16 C10        4.7761    3.0391   28.8290 C.3       1 RES1    0.0000
     17 O4         3.9326    1.4534   30.3543 O.2       1 RES1    0.0000
     18 C11        3.0548   -0.5074   28.3206 C.2       1 RES1    0.0000
     19 O5         2.7870   -1.2399   27.3614 O.2       1 RES1    0.0000
     20 N4         2.8045   -0.8424   29.6012 N.am      1 RES1    0.0000
     21 C12        2.2899   -2.0618   30.0904 C.ar      1 RES1    0.0000
     22 C13        2.1104   -2.1297   31.4783 C.ar      1 RES1    0.0000
     23 O6         2.3982   -0.9719   32.1516 O.3       1 RES1    0.0000
     24 C14        2.3061   -0.9996   33.5697 C.3       1 RES1    0.0000
     25 C15        1.6619   -3.3017   32.0774 C.ar      1 RES1    0.0000
     26 C16        1.3840   -4.4023   31.2914 C.ar      1 RES1    0.0000
     27 C17        1.5258   -4.3452   29.9200 C.ar      1 RES1    0.0000
     28 C18        1.9707   -3.1794   29.3099 C.ar      1 RES1    0.0000
     29 H1         4.1890    0.3582   21.2631 H         1 RES1    0.0000
     30 H2         5.5139    3.8377   23.2391 H         1 RES1    0.0000
     31 H3         4.8642    2.9042   25.3690 H         1 RES1    0.0000
     32 H4         3.2972   -0.3770   25.8939 H         1 RES1    0.0000
     33 H5         4.2373    3.7163   28.3398 H         1 RES1    0.0000
     34 H6         5.0035    3.4885   29.5875 H         1 RES1    0.0000
     35 H7         3.0197   -0.1072   30.3185 H         1 RES1    0.0000
     36 H8         1.5363   -3.3491   33.1162 H         1 RES1    0.0000
     37 H9         1.0617   -5.2912   31.7449 H         1 RES1    0.0000
     38 H10        1.2950   -5.1849   29.3319 H         1 RES1    0.0000
     39 H11        2.0690   -3.1356   28.2656 H         1 RES1    0.0000
     40 H12        4.0897    1.8403   19.6059 H         1 RES1    0.0000
     41 H13        5.2555    2.8506   19.1002 H         1 RES1    0.0000
     42 H14        5.5807    1.2328   19.5977 H         1 RES1    0.0000
     43 H15        2.8283   -1.6741   33.9105 H         1 RES1    0.0000
     44 H16        1.2864   -1.0836   33.9462 H         1 RES1    0.0000
     45 H17        2.8083   -0.1295   33.9435 H         1 RES1    0.0000
@<TRIPOS>BOND
     1    1    2 1
     2    2    3 2
     3    4    2 2
     4    5    1 ar
     5    6    5 ar
     6    7    6 1
     7    8    7 1
     8    9    6 ar
     9   10    9 ar
    10   11    1 ar
    11   12   11 1
    12   13   12 1
    13   14   13 2
    14   15   14 1
    15   16   15 1
    16   17   15 2
    17   18   14 1
    18   19   18 2
    19   20   18 1
    20   21   20 1
    21   22   21 ar
    22   23   22 1
    23   24   23 1
    24   25   22 ar
    25   26   25 ar
    26   27   26 ar
    27   28   21 ar
    28   29    5 1
    29   30    9 1
    30   31   10 1
    31   32   12 1
    32   33   16 1
    33   34   16 1
    34   35   20 1
    35   36   25 1
    36   37   26 1
    37   38   27 1
    38   39   28 1
    39   40    8 1
    40   41    8 1
    41   42    8 1
    42   43   24 1
    43   44   24 1
    44   45   24 1
    45   10   11 ar
    46   27   28 ar
@<TRIPOS>SUBSTRUCTURE
     1 RES1 1

@<TRIPOS>CRYSIN
   7.2949    8.9333   27.5600  90.0000  94.3020  90.0000  14 1

