# MOL2 file generated by ConQuest
# Please check atom types

@<TRIPOS>MOLECULE
FUDSAY
    20    21     1
SMALL
NO_CHARGES
****
Generated from CSD

@<TRIPOS>ATOM
      1 O1         0.8072    0.8697    4.0247 O.3       1 RES1    0.0000
      2 O2         2.2156   -1.3241    3.3585 O.2       1 RES1    0.0000
      3 N1         1.8286    0.8948    3.0533 N.am      1 RES1    0.0000
      4 C1         2.1504    2.2306    2.5293 C.3       1 RES1    0.0000
      5 C2         0.8525    2.8378    2.0087 C.3       1 RES1    0.0000
      6 C3        -0.1410    2.9170    3.1727 C.3       1 RES1    0.0000
      7 C4         0.4522    2.2455    4.3850 C.3       1 RES1    0.0000
      8 C5         1.7142    2.9444    4.8566 C.3       1 RES1    0.0000
      9 C6         2.6864    3.0549    3.6940 C.3       1 RES1    0.0000
     10 C7         2.4510   -0.2468    2.8278 C.2       1 RES1    0.0000
     11 H1         2.7529    2.1311    1.7645 H         1 RES1    0.0000
     12 H2         1.1038    3.6354    1.5833 H         1 RES1    0.0000
     13 H3         0.4921    2.2800    1.2076 H         1 RES1    0.0000
     14 H4        -0.9708    2.5150    2.9520 H         1 RES1    0.0000
     15 H5        -0.3857    3.8313    3.4484 H         1 RES1    0.0000
     16 H6        -0.1596    2.2095    5.1123 H         1 RES1    0.0000
     17 H7         1.4230    3.8156    5.2330 H         1 RES1    0.0000
     18 H8         2.1145    2.4602    5.6490 H         1 RES1    0.0000
     19 H9         3.4843    2.7109    3.9181 H         1 RES1    0.0000
     20 H10        2.7795    3.9802    3.3478 H         1 RES1    0.0000
@<TRIPOS>BOND
     1    1    3 1
     2    2   10 2
     3    3    4 1
     4    4    5 1
     5    5    6 1
     6    6    7 1
     7    7    1 1
     8    8    7 1
     9    9    4 1
    10   10    3 1
    11   11    4 1
    12   12    5 1
    13   13    5 1
    14   14    6 1
    15   15    6 1
    16   16    7 1
    17   17    8 1
    18   18    8 1
    19   19    9 1
    20   20    9 1
    21    8    9 1
@<TRIPOS>SUBSTRUCTURE
     1 RES1 1

@<TRIPOS>CRYSIN
  13.2990    7.8350    6.7090  90.0000  90.0000  90.0000  19 1

