# MOL2 file generated by ConQuest
# Please check atom types

@<TRIPOS>MOLECULE
FUDVUV
    17    18     1
SMALL
NO_CHARGES
****
Generated from CSD

@<TRIPOS>ATOM
      1 C1         1.9294   -0.1267    3.0261 C.ar      1 RES1    0.0000
      2 C2         1.9612    1.2523    3.1260 C.ar      1 RES1    0.0000
      3 C3         2.8286    1.9664    2.3473 C.ar      1 RES1    0.0000
      4 C4         3.6952    1.3223    1.4333 C.ar      1 RES1    0.0000
      5 C5         3.6575   -0.0939    1.3668 C.ar      1 RES1    0.0000
      6 C6         2.7804   -0.8095    2.1524 C.ar      1 RES1    0.0000
      7 C7         4.4602    3.4885    0.4403 C.3       1 RES1    0.0000
      8 C8         5.0186    3.6599   -0.9777 C.3       1 RES1    0.0000
      9 C9         6.0435    2.5463   -1.1039 C.3       1 RES1    0.0000
     10 C10        5.3935    1.3790   -0.3682 C.3       1 RES1    0.0000
     11 C11        5.2750    4.2488    1.4763 C.3       1 RES1    0.0000
     12 N1         1.0131   -0.8766    3.8437 N.pl3     1 RES1    0.0000
     13 N2         4.5403    2.0275    0.6338 N.3       1 RES1    0.0000
     14 O1         0.8995   -2.0976    3.6925 O.2       1 RES1    0.0000
     15 O2         0.3472   -0.2669    4.6924 O.2       1 RES1    0.0000
     16 O3         5.2295    5.6442    1.2544 O.3       1 RES1    0.0000
     17 H1         6.1150    1.4461   -1.6157 H         1 RES1    0.0000
@<TRIPOS>BOND
     1    1    2 ar
     2    2    3 ar
     3    3    4 ar
     4    4    5 ar
     5    5    6 ar
     6    6    1 ar
     7    7    8 1
     8    8    9 1
     9    9   10 1
    10   10   13 1
    11   11    7 1
    12   12    1 1
    13   13    4 1
    14   14   12 2
    15   15   12 2
    16   16   11 1
    17   17    9 1
    18    7   13 1
@<TRIPOS>SUBSTRUCTURE
     1 RES1 1

@<TRIPOS>CRYSIN
   5.2610   14.9080    7.1850  90.0000 105.1800  90.0000   4 1

