# MOL2 file generated by ConQuest
# Please check atom types

@<TRIPOS>MOLECULE
FUFXOT01
    40    43     1
SMALL
NO_CHARGES
****
Generated from CSD

@<TRIPOS>ATOM
      1 O1         4.2758    3.9278    6.4993 O.3       1 RES1    0.0000
      2 O2        12.0646    1.5803   16.0675 O.3       1 RES1    0.0000
      3 O3         4.7353    5.1036   12.6572 O.2       1 RES1    0.0000
      4 O4         5.9276    3.6554   13.7215 O.2       1 RES1    0.0000
      5 O5         7.2370    9.6708   16.2181 O.2       1 RES1    0.0000
      6 O6         5.2499    9.2374   15.4618 O.2       1 RES1    0.0000
      7 O7        10.9894    7.4670   14.2201 O.2       1 RES1    0.0000
      8 O8        10.6026    6.2687   12.4765 O.2       1 RES1    0.0000
      9 N1         7.5031    5.0256   10.9337 N.2       1 RES1    0.0000
     10 N2         8.5463    4.4966   12.8781 N.pl3     1 RES1    0.0000
     11 N3         5.7041    4.7814   13.3065 N.pl3     1 RES1    0.0000
     12 N4         6.4528    9.0082   15.5488 N.pl3     1 RES1    0.0000
     13 N5        10.2602    6.7993   13.5006 N.pl3     1 RES1    0.0000
     14 C1         8.0904    4.1121   11.6097 C.2       1 RES1    0.0000
     15 C2         8.3760    2.7146   11.1880 C.ar      1 RES1    0.0000
     16 C3         7.6645    1.6608   11.7369 C.ar      1 RES1    0.0000
     17 C4         7.9058    0.3637   11.2951 C.ar      1 RES1    0.0000
     18 C5         8.8887    0.1179   10.3681 C.ar      1 RES1    0.0000
     19 C6         9.6055    1.1634    9.8226 C.ar      1 RES1    0.0000
     20 C7         9.3181    2.4655   10.2007 C.ar      1 RES1    0.0000
     21 C8         6.7526    4.6801    9.7590 C.ar      1 RES1    0.0000
     22 C9         6.9371    5.4275    8.6211 C.ar      1 RES1    0.0000
     23 C10        6.1139    5.1800    7.4732 C.ar      1 RES1    0.0000
     24 C11        5.1292    4.2450    7.5468 C.ar      1 RES1    0.0000
     25 C12        4.9607    3.5001    8.6813 C.ar      1 RES1    0.0000
     26 C13        5.7573    3.7135    9.7824 C.ar      1 RES1    0.0000
     27 C14        4.0629    4.8371    5.5087 C.3       1 RES1    0.0000
     28 C15        9.4955    3.7517   13.6512 C.ar      1 RES1    0.0000
     29 C16        9.1673    3.4229   14.9564 C.ar      1 RES1    0.0000
     30 C17       10.0562    2.7154   15.7462 C.ar      1 RES1    0.0000
     31 C18       11.2786    2.2878   15.2174 C.ar      1 RES1    0.0000
     32 C19       11.6086    2.6050   13.9022 C.ar      1 RES1    0.0000
     33 C20       10.7144    3.3282   13.1358 C.ar      1 RES1    0.0000
     34 C21       13.3225    1.1102   15.5622 C.3       1 RES1    0.0000
     35 C22        8.0336    5.6791   13.4403 C.ar      1 RES1    0.0000
     36 C23        6.6568    5.8568   13.6780 C.ar      1 RES1    0.0000
     37 C24        6.1228    6.9230   14.3105 C.ar      1 RES1    0.0000
     38 C25        6.9921    7.8863   14.7991 C.ar      1 RES1    0.0000
     39 C26        8.3512    7.8008   14.5883 C.ar      1 RES1    0.0000
     40 C27        8.8337    6.7287   13.8754 C.ar      1 RES1    0.0000
@<TRIPOS>BOND
     1    1   24 1
     2    2   31 1
     3    3   11 2
     4    4   11 2
     5    5   12 2
     6    6   12 2
     7    7   13 2
     8    8   13 2
     9    9   14 2
    10   10   14 1
    11   11   36 1
    12   12   38 1
    13   13   40 1
    14   14   15 1
    15   15   16 ar
    16   16   17 ar
    17   17   18 ar
    18   18   19 ar
    19   19   20 ar
    20   20   15 ar
    21   21    9 1
    22   22   21 ar
    23   23   22 ar
    24   24   23 ar
    25   25   24 ar
    26   26   21 ar
    27   27    1 1
    28   28   10 1
    29   29   28 ar
    30   30   29 ar
    31   31   30 ar
    32   32   31 ar
    33   33   28 ar
    34   34    2 1
    35   35   10 1
    36   36   35 ar
    37   37   36 ar
    38   38   37 ar
    39   39   38 ar
    40   40   35 ar
    41   25   26 ar
    42   32   33 ar
    43   39   40 ar
@<TRIPOS>SUBSTRUCTURE
     1 RES1 1

@<TRIPOS>CRYSIN
  17.7420    8.3040   33.4670  90.0000  90.0000  90.0000  60 1

