# MOL2 file generated by ConQuest
# Please check atom types

@<TRIPOS>MOLECULE
FUFXOT
    61    64     1
SMALL
NO_CHARGES
****
Generated from CSD

@<TRIPOS>ATOM
      1 O1         4.3986    4.0409    6.6008 O.3       1 RES1    0.0000
      2 O2        12.1310    1.6234   16.2070 O.3       1 RES1    0.0000
      3 O3         4.7524    5.1539   12.9133 O.2       1 RES1    0.0000
      4 O4         5.9637    3.7120   13.9683 O.2       1 RES1    0.0000
      5 O5         7.3161    9.7161   16.4682 O.2       1 RES1    0.0000
      6 O6         5.3169    9.2784   15.7558 O.2       1 RES1    0.0000
      7 O7        11.0448    7.4894   14.3685 O.2       1 RES1    0.0000
      8 O8        10.6035    6.3488   12.5843 O.2       1 RES1    0.0000
      9 N1         7.4876    5.0727   11.1292 N.2       1 RES1    0.0000
     10 N2         8.5525    4.5413   13.0694 N.pl3     1 RES1    0.0000
     11 N3         5.7243    4.8225   13.5680 N.pl3     1 RES1    0.0000
     12 N4         6.5193    9.0651   15.8033 N.pl3     1 RES1    0.0000
     13 N5        10.2926    6.8459   13.6460 N.pl3     1 RES1    0.0000
     14 C1         8.1004    4.1740   11.7974 C.2       1 RES1    0.0000
     15 C2         8.3756    2.7698   11.3666 C.ar      1 RES1    0.0000
     16 C3         7.6734    1.7154   11.9263 C.ar      1 RES1    0.0000
     17 C4         7.9164    0.4075   11.4514 C.ar      1 RES1    0.0000
     18 C5         8.9259    0.2008   10.5288 C.ar      1 RES1    0.0000
     19 C6         9.6065    1.2326    9.9725 C.ar      1 RES1    0.0000
     20 C7         9.3118    2.5497   10.3592 C.ar      1 RES1    0.0000
     21 C8         6.7605    4.7664    9.9521 C.ar      1 RES1    0.0000
     22 C9         7.0053    5.4852    8.8124 C.ar      1 RES1    0.0000
     23 C10        6.2334    5.2660    7.6354 C.ar      1 RES1    0.0000
     24 C11        5.2598    4.3480    7.6524 C.ar      1 RES1    0.0000
     25 C12        5.0043    3.6016    8.7887 C.ar      1 RES1    0.0000
     26 C13        5.7546    3.8409    9.9453 C.ar      1 RES1    0.0000
     27 C14        4.1181    4.8626    5.6918 C.3       1 RES1    0.0000
     28 C15        9.5190    3.8033   13.8258 C.ar      1 RES1    0.0000
     29 C16        9.2171    3.4794   15.1656 C.ar      1 RES1    0.0000
     30 C17       10.1372    2.7573   15.9288 C.ar      1 RES1    0.0000
     31 C18       11.3360    2.3456   15.3827 C.ar      1 RES1    0.0000
     32 C19       11.6522    2.6577   14.0395 C.ar      1 RES1    0.0000
     33 C20       10.7446    3.3982   13.2797 C.ar      1 RES1    0.0000
     34 C21       13.3870    1.1665   15.6880 C.3       1 RES1    0.0000
     35 C22        8.0415    5.7212   13.6528 C.ar      1 RES1    0.0000
     36 C23        6.6890    5.8861   13.9208 C.ar      1 RES1    0.0000
     37 C24        6.1709    6.9848   14.5788 C.ar      1 RES1    0.0000
     38 C25        7.0481    7.9387   15.0367 C.ar      1 RES1    0.0000
     39 C26        8.3917    7.8676   14.8095 C.ar      1 RES1    0.0000
     40 C27        8.8562    6.7848   14.0734 C.ar      1 RES1    0.0000
     41 H1         6.9499    1.8995   12.7539 H         1 RES1    0.0000
     42 H2         7.3251   -0.2761   11.9059 H         1 RES1    0.0000
     43 H3         8.9687   -1.0544   10.2778 H         1 RES1    0.0000
     44 H4        10.5767    1.1129    9.2941 H         1 RES1    0.0000
     45 H5         9.8084    3.3137    9.9725 H         1 RES1    0.0000
     46 H6         7.7717    6.1337    8.8531 H         1 RES1    0.0000
     47 H7         6.6997    5.9329    6.7162 H         1 RES1    0.0000
     48 H8         4.2700    2.8786    8.7853 H         1 RES1    0.0000
     49 H9         5.5563    3.3305   10.8205 H         1 RES1    0.0000
     50 H10        3.3052    4.4099    5.0202 H         1 RES1    0.0000
     51 H11        4.9489    5.1045    5.1558 H         1 RES1    0.0000
     52 H12        3.7876    5.7321    6.1056 H         1 RES1    0.0000
     53 H13        8.3256    3.8409   15.5354 H         1 RES1    0.0000
     54 H14        9.8978    2.5104   16.8922 H         1 RES1    0.0000
     55 H15       12.7027    2.5773   13.8054 H         1 RES1    0.0000
     56 H16       11.0055    3.6652   12.4826 H         1 RES1    0.0000
     57 H17       13.1672    0.4017   15.2301 H         1 RES1    0.0000
     58 H18       13.8997    0.6360   16.4512 H         1 RES1    0.0000
     59 H19       13.9891    1.8326   15.1962 H         1 RES1    0.0000
     60 H20        5.1633    6.9873   14.7213 H         1 RES1    0.0000
     61 H21        9.0938    8.6441   15.0944 H         1 RES1    0.0000
@<TRIPOS>BOND
     1    1   24 1
     2    2   31 1
     3    3   11 2
     4    4   11 2
     5    5   12 2
     6    6   12 2
     7    7   13 2
     8    8   13 2
     9    9   14 2
    10   10   14 1
    11   11   36 1
    12   12   38 1
    13   13   40 1
    14   14   15 1
    15   15   16 ar
    16   16   17 ar
    17   17   18 ar
    18   18   19 ar
    19   19   20 ar
    20   20   15 ar
    21   21    9 1
    22   22   21 ar
    23   23   22 ar
    24   24   23 ar
    25   25   24 ar
    26   26   21 ar
    27   27    1 1
    28   28   10 1
    29   29   28 ar
    30   30   29 ar
    31   31   30 ar
    32   32   31 ar
    33   33   28 ar
    34   34    2 1
    35   35   10 1
    36   36   35 ar
    37   37   36 ar
    38   38   37 ar
    39   39   38 ar
    40   40   35 ar
    41   41   16 1
    42   42   17 1
    43   43   18 1
    44   44   19 1
    45   45   20 1
    46   46   22 1
    47   47   23 1
    48   48   25 1
    49   49   26 1
    50   50   27 1
    51   51   27 1
    52   52   27 1
    53   53   29 1
    54   54   30 1
    55   55   32 1
    56   56   33 1
    57   57   34 1
    58   58   34 1
    59   59   34 1
    60   60   37 1
    61   61   39 1
    62   25   26 ar
    63   32   33 ar
    64   39   40 ar
@<TRIPOS>SUBSTRUCTURE
     1 RES1 1

@<TRIPOS>CRYSIN
  17.8660    8.3680   33.9200  90.0000  90.0000  90.0000  60 1

