# MOL2 file generated by ConQuest
# Please check atom types

@<TRIPOS>MOLECULE
FUGVEJ
    24    24     1
SMALL
NO_CHARGES
****
Generated from CSD

@<TRIPOS>ATOM
      1 C1         3.6475    4.1553    3.1316 C.3       1 RES1    0.0000
      2 H1         3.7075    3.8604    4.0542 H         1 RES1    0.0000
      3 H2         2.9919    4.8685    3.0834 H         1 RES1    0.0000
      4 C2         5.9648    3.6113    2.6250 C.3       1 RES1    0.0000
      5 H3         6.7548    3.9650    2.1866 H         1 RES1    0.0000
      6 H4         6.2142    3.3493    3.5250 H         1 RES1    0.0000
      7 C3         4.1785    1.9708    2.2712 C.3       1 RES1    0.0000
      8 H5         3.8883    1.2999    1.6341 H         1 RES1    0.0000
      9 H6         4.2185    1.5564    3.1476 H         1 RES1    0.0000
     10 C4         2.0737    2.9649    1.5868 C.2       1 RES1    0.0000
     11 C5         1.1203    4.1039    1.6682 C.3       1 RES1    0.0000
     12 H7         0.3507    3.9157    1.1264 H         1 RES1    0.0000
     13 H8         1.5486    4.9027    1.3520 H         1 RES1    0.0000
     14 H9         0.8467    4.2266    2.5805 H         1 RES1    0.0000
     15 N1         3.2307    3.0546    2.2948 N.am      1 RES1    0.0000
     16 N2         4.9427    4.6488    2.6887 N.3       1 RES1    0.0000
     17 N3         5.4940    2.4524    1.9024 N.3       1 RES1    0.0000
     18 N4         4.9006    5.5013    1.5818 N.pl3     1 RES1    0.0000
     19 N5         6.0365    2.1136    0.6963 N.pl3     1 RES1    0.0000
     20 O1         5.9041    5.5775    0.8909 O.2       1 RES1    0.0000
     21 O2         1.8370    1.9657    0.9311 O.2       1 RES1    0.0000
     22 O3         5.4713    1.2531    0.0653 O.2       1 RES1    0.0000
     23 O4         7.0873    2.6363    0.3822 O.2       1 RES1    0.0000
     24 O5         3.8959    6.1579    1.4379 O.2       1 RES1    0.0000
@<TRIPOS>BOND
     1    1    2 1
     2    3    1 1
     3    4    5 1
     4    6    4 1
     5    7    8 1
     6    9    7 1
     7   10   11 1
     8   11   12 1
     9   13   11 1
    10   14   11 1
    11   15    1 1
    12   16    1 1
    13   17    4 1
    14   18   16 1
    15   19   17 1
    16   20   18 2
    17   21   10 2
    18   22   19 2
    19   23   19 2
    20   24   18 2
    21    4   16 1
    22    7   15 1
    23    7   17 1
    24   10   15 1
@<TRIPOS>SUBSTRUCTURE
     1 RES1 1

@<TRIPOS>CRYSIN
   8.8972   10.0610    9.8900  90.0000 100.4200  90.0000 231 1

