# MOL2 file generated by ConQuest
# Please check atom types

@<TRIPOS>MOLECULE
FUGZEN
    67    68     1
SMALL
NO_CHARGES
****
Generated from CSD

@<TRIPOS>ATOM
      1 N1         1.1573   -1.6256    6.9908 N.2       1 RES1    0.0000
      2 N2        10.3116    9.4684   10.0360 N.2       1 RES1    0.0000
      3 O1         2.3444   -0.9073    6.8590 O.3       1 RES1    0.0000
      4 O2         9.8844    8.3007    9.3739 O.3       1 RES1    0.0000
      5 O3        -1.1804   -2.2477    7.8966 O.3       1 RES1    0.0000
      6 H1        -0.4895   -1.8111    7.8317 H         1 RES1    0.0000
      7 O4        -3.2099   -6.1792    6.1799 O.3       1 RES1    0.0000
      8 O5        10.4407   11.6004   11.6266 O.3       1 RES1    0.0000
      9 H2        10.1123   10.9228   11.3026 H         1 RES1    0.0000
     10 O6        14.3830   14.2503   11.3138 O.3       1 RES1    0.0000
     11 C1         2.2726    0.2625    7.7003 C.3       1 RES1    0.0000
     12 H3         2.0992    0.0086    8.6202 H         1 RES1    0.0000
     13 H4         1.5615    0.8512    7.4029 H         1 RES1    0.0000
     14 C2         3.5803    0.9386    7.5908 C.3       1 RES1    0.0000
     15 H5         3.7309    1.1645    6.6594 H         1 RES1    0.0000
     16 H6         4.2723    0.3111    7.8536 H         1 RES1    0.0000
     17 C3         3.7349    2.1942    8.4196 C.3       1 RES1    0.0000
     18 H7         3.0363    2.8239    8.1810 H         1 RES1    0.0000
     19 H8         3.6297    1.9741    9.3591 H         1 RES1    0.0000
     20 C4         5.0804    2.8436    8.2098 C.3       1 RES1    0.0000
     21 H9         5.7699    2.2080    8.4576 H         1 RES1    0.0000
     22 H10        5.1861    3.0333    7.2645 H         1 RES1    0.0000
     23 C5         5.3112    4.1166    8.9775 C.3       1 RES1    0.0000
     24 H11        5.2633    3.9239    9.9274 H         1 RES1    0.0000
     25 H12        4.6017    4.7439    8.7666 H         1 RES1    0.0000
     26 C6         6.6440    4.7636    8.6755 C.3       1 RES1    0.0000
     27 H13        7.3476    4.1224    8.8634 H         1 RES1    0.0000
     28 H14        6.6801    4.9660    7.7268 H         1 RES1    0.0000
     29 C7         6.9303    6.0306    9.4478 C.3       1 RES1    0.0000
     30 H15        6.9041    5.8343   10.3965 H         1 RES1    0.0000
     31 H16        6.2343    6.6795    9.2588 H         1 RES1    0.0000
     32 C8         8.2732    6.6314    9.1043 C.3       1 RES1    0.0000
     33 H17        8.9577    5.9628    9.2622 H         1 RES1    0.0000
     34 H18        8.2827    6.8406    8.1568 H         1 RES1    0.0000
     35 C9         8.6349    7.8711    9.8686 C.3       1 RES1    0.0000
     36 H19        7.9648    8.5593    9.7349 H         1 RES1    0.0000
     37 H20        8.6958    7.6778   10.8173 H         1 RES1    0.0000
     38 C10        1.1294   -2.6662    6.2467 C.2       1 RES1    0.0000
     39 H21        1.8549   -2.8607    5.6980 H         1 RES1    0.0000
     40 C11       -0.0168   -3.5407    6.2524 C.ar      1 RES1    0.0000
     41 C12       -1.1232   -3.3102    7.0605 C.ar      1 RES1    0.0000
     42 C13       -2.2120   -4.1554    7.0501 C.ar      1 RES1    0.0000
     43 H22       -2.9526   -3.9746    7.5827 H         1 RES1    0.0000
     44 C14       -2.1915   -5.2706    6.2409 C.ar      1 RES1    0.0000
     45 C15       -1.1034   -5.5255    5.4375 C.ar      1 RES1    0.0000
     46 H23       -1.0913   -6.2774    4.8911 H         1 RES1    0.0000
     47 C16       -0.0457   -4.6722    5.4478 C.ar      1 RES1    0.0000
     48 H24        0.6819   -4.8525    4.8968 H         1 RES1    0.0000
     49 C17       -4.3144   -6.0088    7.0398 C.3       1 RES1    0.0000
     50 H25       -4.0103   -5.9883    7.9504 H         1 RES1    0.0000
     51 H26       -4.9271   -6.7398    6.9233 H         1 RES1    0.0000
     52 H27       -4.7583   -5.1831    6.8323 H         1 RES1    0.0000
     53 C18       11.4750    9.7836    9.6473 C.2       1 RES1    0.0000
     54 H28       11.8966    9.2357    9.0248 H         1 RES1    0.0000
     55 C19       12.1818   10.9527   10.1222 C.ar      1 RES1    0.0000
     56 C20       11.6568   11.8148   11.0836 C.ar      1 RES1    0.0000
     57 C21       12.3702   12.9231   11.5055 C.ar      1 RES1    0.0000
     58 H29       12.0103   13.4940   12.1464 H         1 RES1    0.0000
     59 C22       13.6055   13.1759   10.9775 C.ar      1 RES1    0.0000
     60 C23       14.1598   12.3297   10.0346 C.ar      1 RES1    0.0000
     61 H30       15.0074   12.4960    9.6887 H         1 RES1    0.0000
     62 C24       13.4402   11.2447    9.6230 C.ar      1 RES1    0.0000
     63 H31       13.8095   10.6809    8.9821 H         1 RES1    0.0000
     64 C25       13.9335   15.0943   12.3504 C.3       1 RES1    0.0000
     65 H32       13.0914   15.4829   12.1026 H         1 RES1    0.0000
     66 H33       14.5762   15.7897   12.4980 H         1 RES1    0.0000
     67 H34       13.8246   14.5822   13.1550 H         1 RES1    0.0000
@<TRIPOS>BOND
     1    1    3 1
     2    2    4 1
     3    3   11 1
     4    4   35 1
     5    5    6 1
     6    7   44 1
     7    8    9 1
     8   10   59 1
     9   11   12 1
    10   13   11 1
    11   14   11 1
    12   15   14 1
    13   16   14 1
    14   17   14 1
    15   18   17 1
    16   19   17 1
    17   20   17 1
    18   21   20 1
    19   22   20 1
    20   23   20 1
    21   24   23 1
    22   25   23 1
    23   26   23 1
    24   27   26 1
    25   28   26 1
    26   29   26 1
    27   30   29 1
    28   31   29 1
    29   32   29 1
    30   33   32 1
    31   34   32 1
    32   35   32 1
    33   36   35 1
    34   37   35 1
    35   38    1 2
    36   39   38 1
    37   40   38 1
    38   41    5 1
    39   42   41 ar
    40   43   42 1
    41   44   42 ar
    42   45   44 ar
    43   46   45 1
    44   47   40 ar
    45   48   47 1
    46   49    7 1
    47   50   49 1
    48   51   49 1
    49   52   49 1
    50   53    2 2
    51   54   53 1
    52   55   53 1
    53   56    8 1
    54   57   56 ar
    55   58   57 1
    56   59   57 ar
    57   60   59 ar
    58   61   60 1
    59   62   55 ar
    60   63   62 1
    61   64   10 1
    62   65   64 1
    63   66   64 1
    64   67   64 1
    65   40   41 ar
    66   45   47 ar
    67   55   56 ar
    68   60   62 ar
@<TRIPOS>SUBSTRUCTURE
     1 RES1 1

@<TRIPOS>CRYSIN
  10.4701   11.1249   12.7602  65.5440  86.6640  67.0850   2 1

