# MOL2 file generated by ConQuest
# Please check atom types

@<TRIPOS>MOLECULE
FUHDES
    30    22     2
SMALL
NO_CHARGES
****
Generated from CSD

@<TRIPOS>ATOM
      1 O1        -1.0624    1.3174    5.8552 O.3       1 RES1    0.0000
      2 O2        -0.1990   -0.6726    6.3588 O.2       1 RES1    0.0000
      3 O3         4.9623   -1.0209    4.5469 O.2       1 RES1    0.0000
      4 O4         5.6892    0.8856    5.0146 O.2       1 RES1    0.0000
      5 O5         2.7955    3.5527    1.6827 O.2       1 RES1    0.0000
      6 O6         0.7407    3.9865    2.4220 O.2       1 RES1    0.0000
      7 N1         4.7739    0.1649    4.7369 N.pl3     1 RES1    0.0000
      8 N2         1.8787    3.2801    2.3835 N.pl3     1 RES1    0.0000
      9 C1         1.1270    0.8698    5.1257 C.ar      1 RES1    0.0000
     10 C2         2.3806    0.2736    5.3721 C.ar      1 RES1    0.0000
     11 C3         3.4180    0.7253    4.5478 C.ar      1 RES1    0.0000
     12 C4         3.2965    1.6686    3.5593 C.ar      1 RES1    0.0000
     13 C5         2.0511    2.2332    3.3940 C.ar      1 RES1    0.0000
     14 C6         0.9756    1.8626    4.1715 C.ar      1 RES1    0.0000
     15 C7        -0.1238    0.4640    5.8506 C.2       1 RES1    0.0000
     16 C8         2.6441   -0.7202    6.4641 C.3       1 RES1    0.0000
     17 H1         2.3004   -0.3822    7.2943 H         1 RES1    0.0000
     18 H2         3.5897   -0.8644    6.5442 H         1 RES1    0.0000
     19 H3         2.2106   -1.5504    6.2527 H         1 RES1    0.0000
     20 H4        -1.7449    1.0668    6.2498 H         1 RES1    0.0000
     21 H5         4.0186    1.9144    3.0274 H         1 RES1    0.0000
     22 H6         0.1514    2.2772    4.0559 H         1 RES1    0.0000
     23 H7        -0.8909   -0.8626    6.6933 Du        2 SUP2    0.0000
     24 H8         3.3031   -0.3670    7.0663 Du        2 SUP2    0.0000
     25 H9         2.9672   -1.5389    6.0807 Du        2 SUP2    0.0000
     26 H10        1.8306   -0.8912    6.9445 Du        2 SUP2    0.0000
     27 O7         5.0316   -0.7759    4.0832 Du        2 SUP2    0.0000
     28 O8         5.4474    0.7606    5.5536 Du        2 SUP2    0.0000
     29 O9         0.9937    3.8283    2.3574 Du        2 SUP2    0.0000
     30 O10        2.7796    3.3434    1.4852 Du        2 SUP2    0.0000
@<TRIPOS>BOND
     1    1   15 1
     2    2   15 2
     3    3    7 2
     4    4    7 2
     5    5    8 2
     6    6    8 2
     7    7   11 1
     8    8   13 1
     9    9   10 ar
    10   10   11 ar
    11   11   12 ar
    12   12   13 ar
    13   13   14 ar
    14   14    9 ar
    15   15    9 1
    16   16   10 1
    17   17   16 1
    18   18   16 1
    19   19   16 1
    20   20    1 1
    21   21   12 1
    22   22   14 1
@<TRIPOS>SUBSTRUCTURE
     1 RES1 1
     2 SUP2 23

@<TRIPOS>CRYSIN
  26.8441    5.1044   13.8853  90.0000 104.5440  90.0000  15 1

