# MOL2 file generated by ConQuest
# Please check atom types

@<TRIPOS>MOLECULE
FUHNEC
    58    62     1
SMALL
NO_CHARGES
****
Generated from CSD

@<TRIPOS>ATOM
      1 O1         3.6299    5.8474    1.3368 O.2       1 RES1    0.0000
      2 O2         5.7146    4.0178    3.4649 O.3       1 RES1    0.0000
      3 N1         4.6569    4.2401    2.5484 N.am      1 RES1    0.0000
      4 C1         4.5883    5.4920    2.0108 C.2       1 RES1    0.0000
      5 C2         5.8669    6.2602    2.2361 C.3       1 RES1    0.0000
      6 H1         5.9627    6.4258    3.1975 H         1 RES1    0.0000
      7 C3         5.9656    7.5932    1.5078 C.3       1 RES1    0.0000
      8 H2         5.9691    7.3886    0.5487 H         1 RES1    0.0000
      9 C4         7.3493    8.2538    1.8311 C.3       1 RES1    0.0000
     10 H3         7.4885    8.9563    1.1626 H         1 RES1    0.0000
     11 C5         8.4693    7.2651    1.6576 C.2       1 RES1    0.0000
     12 H4         9.3303    7.5980    1.5437 H         1 RES1    0.0000
     13 C6         8.3086    5.9607    1.6563 C.2       1 RES1    0.0000
     14 H5         9.0628    5.4256    1.5629 H         1 RES1    0.0000
     15 C7         6.9783    5.2863    1.7962 C.3       1 RES1    0.0000
     16 H6         6.7323    4.9416    0.9132 H         1 RES1    0.0000
     17 C8         6.9935    4.0973    2.7631 C.3       1 RES1    0.0000
     18 H7         7.6864    4.2729    3.4341 H         1 RES1    0.0000
     19 C9         3.5386    3.3461    2.7154 C.3       1 RES1    0.0000
     20 H8         3.8716    2.4353    2.7115 H         1 RES1    0.0000
     21 H9         2.9508    3.4450    1.9505 H         1 RES1    0.0000
     22 C10        2.7264    3.5509    3.9704 C.ar      1 RES1    0.0000
     23 C11        2.0851    2.4713    4.5455 C.ar      1 RES1    0.0000
     24 H10        2.2197    1.6179    4.2028 H         1 RES1    0.0000
     25 C12        1.2388    2.6522    5.6378 C.ar      1 RES1    0.0000
     26 H11        0.7925    1.9224    6.0036 H         1 RES1    0.0000
     27 C13        1.0601    3.8963    6.1737 C.ar      1 RES1    0.0000
     28 H12        0.5028    4.0138    6.9091 H         1 RES1    0.0000
     29 C14        1.7057    4.9691    5.6224 C.ar      1 RES1    0.0000
     30 H13        1.5915    5.8160    5.9895 H         1 RES1    0.0000
     31 C15        2.5280    4.7999    4.5217 C.ar      1 RES1    0.0000
     32 H14        2.9515    5.5381    4.1478 H         1 RES1    0.0000
     33 C16        4.8225    8.5572    1.7398 C.ar      1 RES1    0.0000
     34 C17        4.1458    8.6496    2.9464 C.ar      1 RES1    0.0000
     35 H15        4.3824    8.0831    3.6451 H         1 RES1    0.0000
     36 C18        3.1256    9.5674    3.1348 C.ar      1 RES1    0.0000
     37 H16        2.6859    9.6143    3.9533 H         1 RES1    0.0000
     38 C19        2.7665   10.4072    2.1142 C.ar      1 RES1    0.0000
     39 H17        2.0789   11.0220    2.2357 H         1 RES1    0.0000
     40 C20        3.4225   10.3380    0.9170 C.ar      1 RES1    0.0000
     41 H18        3.1817   10.9099    0.2238 H         1 RES1    0.0000
     42 C21        4.4434    9.4206    0.7308 C.ar      1 RES1    0.0000
     43 H19        4.8820    9.3857   -0.0883 H         1 RES1    0.0000
     44 C22        7.4215    8.9309    3.1972 C.ar      1 RES1    0.0000
     45 C23        7.8008    8.2422    4.3312 C.ar      1 RES1    0.0000
     46 H20        7.9911    7.3337    4.2731 H         1 RES1    0.0000
     47 C24        7.9017    8.8851    5.5559 C.ar      1 RES1    0.0000
     48 H21        8.1475    8.4049    6.3131 H         1 RES1    0.0000
     49 C25        7.6397   10.2275    5.6518 C.ar      1 RES1    0.0000
     50 H22        7.7255   10.6639    6.4691 H         1 RES1    0.0000
     51 C26        7.2525   10.9225    4.5404 C.ar      1 RES1    0.0000
     52 H23        7.0623   11.8309    4.6044 H         1 RES1    0.0000
     53 C27        7.1435   10.2829    3.3279 C.ar      1 RES1    0.0000
     54 H24        6.8784   10.7669    2.5797 H         1 RES1    0.0000
     55 C28        7.3309    2.7955    2.0988 C.3       1 RES1    0.0000
     56 H25        7.3586    2.0978    2.7575 H         1 RES1    0.0000
     57 H26        8.1882    2.8668    1.6729 H         1 RES1    0.0000
     58 H27        6.6627    2.5889    1.4414 H         1 RES1    0.0000
@<TRIPOS>BOND
     1    1    4 2
     2    2    3 1
     3    3    4 1
     4    4    5 1
     5    5    6 1
     6    7    5 1
     7    8    7 1
     8    9    7 1
     9   10    9 1
    10   11    9 1
    11   12   11 1
    12   13   11 2
    13   14   13 1
    14   15    5 1
    15   16   15 1
    16   17    2 1
    17   18   17 1
    18   19    3 1
    19   20   19 1
    20   21   19 1
    21   22   19 1
    22   23   22 ar
    23   24   23 1
    24   25   23 ar
    25   26   25 1
    26   27   25 ar
    27   28   27 1
    28   29   27 ar
    29   30   29 1
    30   31   22 ar
    31   32   31 1
    32   33    7 1
    33   34   33 ar
    34   35   34 1
    35   36   34 ar
    36   37   36 1
    37   38   36 ar
    38   39   38 1
    39   40   38 ar
    40   41   40 1
    41   42   33 ar
    42   43   42 1
    43   44    9 1
    44   45   44 ar
    45   46   45 1
    46   47   45 ar
    47   48   47 1
    48   49   47 ar
    49   50   49 1
    50   51   49 ar
    51   52   51 1
    52   53   44 ar
    53   54   53 1
    54   55   17 1
    55   56   55 1
    56   57   55 1
    57   58   55 1
    58   13   15 1
    59   15   17 1
    60   29   31 ar
    61   40   42 ar
    62   51   53 ar
@<TRIPOS>SUBSTRUCTURE
     1 RES1 1

@<TRIPOS>CRYSIN
   7.9721   11.0649   13.5780  78.1680  73.1780  82.8190   2 1

