# MOL2 file generated by ConQuest
# Please check atom types

@<TRIPOS>MOLECULE
FUHTOR
    52    55     1
SMALL
NO_CHARGES
****
Generated from CSD

@<TRIPOS>ATOM
      1 O1        -3.4660    1.7322    5.1522 O.2       1 RES1    0.0000
      2 O2        -3.8439    3.8802    5.5923 O.3       1 RES1    0.0000
      3 O3        -4.2008    3.6323   -0.6315 O.2       1 RES1    0.0000
      4 O4        -2.3717    3.3256    0.4645 O.2       1 RES1    0.0000
      5 N1        -2.4705    4.5826    3.2405 N.pl3     1 RES1    0.0000
      6 N2        -3.4846    3.7826    0.3365 N.pl3     1 RES1    0.0000
      7 C1        -3.0510    5.4270    2.1896 C.3       1 RES1    0.0000
      8 C2        -4.0898    4.5092    1.5179 C.3       1 RES1    0.0000
      9 C3        -4.4804    3.5087    2.6127 C.3       1 RES1    0.0000
     10 C4        -3.1628    3.3011    3.3844 C.3       1 RES1    0.0000
     11 C5        -3.4808    2.8795    4.8108 C.2       1 RES1    0.0000
     12 C6        -4.2386    3.5450    6.9504 C.3       1 RES1    0.0000
     13 C7        -1.2062    4.8015    3.7197 C.ar      1 RES1    0.0000
     14 C8        -0.4942    3.8173    4.4512 C.ar      1 RES1    0.0000
     15 C9         0.7428    4.0881    4.9827 C.ar      1 RES1    0.0000
     16 C10        1.4030    5.2914    4.7608 C.ar      1 RES1    0.0000
     17 C11        0.7272    6.2658    4.0196 C.ar      1 RES1    0.0000
     18 C12       -0.5160    6.0178    3.4819 C.ar      1 RES1    0.0000
     19 C13       -3.7160    6.6927    2.7102 C.ar      1 RES1    0.0000
     20 C14       -3.8154    6.9702    4.0561 C.ar      1 RES1    0.0000
     21 C15       -4.4135    8.1259    4.4829 C.ar      1 RES1    0.0000
     22 C16       -4.9392    9.0266    3.5904 C.ar      1 RES1    0.0000
     23 C17       -4.8351    8.7573    2.2481 C.ar      1 RES1    0.0000
     24 C18       -4.2368    7.6133    1.8044 C.ar      1 RES1    0.0000
     25 C19       -5.2629    2.2688    2.1872 C.ar      1 RES1    0.0000
     26 C20       -6.6160    2.3325    2.0506 C.ar      1 RES1    0.0000
     27 C21       -7.3665    1.2019    1.6824 C.ar      1 RES1    0.0000
     28 C22       -6.7595    0.0272    1.4142 C.ar      1 RES1    0.0000
     29 C23       -5.4031   -0.0407    1.5276 C.ar      1 RES1    0.0000
     30 C24       -4.6422    1.0743    1.8982 C.ar      1 RES1    0.0000
     31 H1        -2.3446    5.7498    1.5605 H         1 RES1    0.0000
     32 H2        -4.7585    4.9955    1.1460 H         1 RES1    0.0000
     33 H3        -5.1056    4.0591    3.2064 H         1 RES1    0.0000
     34 H4        -2.5017    2.5843    2.9504 H         1 RES1    0.0000
     35 H5        -3.3528    3.1633    7.4003 H         1 RES1    0.0000
     36 H6        -4.4198    4.3478    7.4125 H         1 RES1    0.0000
     37 H7        -4.8545    2.8398    7.0346 H         1 RES1    0.0000
     38 H8        -0.9392    2.9365    4.6572 H         1 RES1    0.0000
     39 H9         1.4279    3.4173    5.3765 H         1 RES1    0.0000
     40 H10        2.1949    5.4551    5.1571 H         1 RES1    0.0000
     41 H11        1.3120    7.0324    3.7306 H         1 RES1    0.0000
     42 H12       -0.9906    6.7079    2.9869 H         1 RES1    0.0000
     43 H13       -3.2820    6.3957    4.5719 H         1 RES1    0.0000
     44 H14       -4.5917    8.3453    5.4131 H         1 RES1    0.0000
     45 H15       -5.3033    9.8481    3.9379 H         1 RES1    0.0000
     46 H16       -5.0959    9.3292    1.7678 H         1 RES1    0.0000
     47 H17       -4.1968    7.3969    0.8778 H         1 RES1    0.0000
     48 H18       -7.1590    3.1150    2.2433 H         1 RES1    0.0000
     49 H19       -8.1089    1.3574    1.6215 H         1 RES1    0.0000
     50 H20       -7.3412   -0.8325    1.2070 H         1 RES1    0.0000
     51 H21       -4.8723   -0.7984    1.1826 H         1 RES1    0.0000
     52 H22       -3.6008    0.9485    1.8775 H         1 RES1    0.0000
@<TRIPOS>BOND
     1    1   11 2
     2    2   11 1
     3    3    6 2
     4    4    6 2
     5    5    7 1
     6    6    8 1
     7    7    8 1
     8    8    9 1
     9    9   10 1
    10   10    5 1
    11   11   10 1
    12   12    2 1
    13   13    5 1
    14   14   13 ar
    15   15   14 ar
    16   16   15 ar
    17   17   16 ar
    18   18   13 ar
    19   19    7 1
    20   20   19 ar
    21   21   20 ar
    22   22   21 ar
    23   23   22 ar
    24   24   19 ar
    25   25    9 1
    26   26   25 ar
    27   27   26 ar
    28   28   27 ar
    29   29   28 ar
    30   30   25 ar
    31   31    7 1
    32   32    8 1
    33   33    9 1
    34   34   10 1
    35   35   12 1
    36   36   12 1
    37   37   12 1
    38   38   14 1
    39   39   15 1
    40   40   16 1
    41   41   17 1
    42   42   18 1
    43   43   20 1
    44   44   21 1
    45   45   22 1
    46   46   23 1
    47   47   24 1
    48   48   26 1
    49   49   27 1
    50   50   28 1
    51   51   29 1
    52   52   30 1
    53   17   18 ar
    54   23   24 ar
    55   29   30 ar
@<TRIPOS>SUBSTRUCTURE
     1 RES1 1

@<TRIPOS>CRYSIN
   8.3940   10.6430   12.8820  72.3600 101.2500 106.9200   2 1

