# MOL2 file generated by ConQuest
# Please check atom types

@<TRIPOS>MOLECULE
FUJBOC
    58    62     1
SMALL
NO_CHARGES
****
Generated from CSD

@<TRIPOS>ATOM
      1 O1        -2.3514    2.9375    7.4993 O.2       1 RES1    0.0000
      2 O2         2.2202    4.0317    7.4712 O.2       1 RES1    0.0000
      3 O3         0.5326    5.8527    5.7852 O.3       1 RES1    0.0000
      4 O4         1.3846    4.3255    1.7091 O.3       1 RES1    0.0000
      5 O5         3.6027    3.9946    1.2404 O.3       1 RES1    0.0000
      6 N1        -0.9538    4.0159    6.0427 N.am      1 RES1    0.0000
      7 N2         1.1175    6.1909    4.5271 N.2       1 RES1    0.0000
      8 C1        -4.0993    4.9210    5.7978 C.ar      1 RES1    0.0000
      9 H1        -4.1627    4.1815    6.3582 H         1 RES1    0.0000
     10 C2        -5.1166    5.8713    5.7896 C.ar      1 RES1    0.0000
     11 H2        -5.8499    5.7713    6.3526 H         1 RES1    0.0000
     12 C3        -5.0383    6.9646    4.9436 C.ar      1 RES1    0.0000
     13 H3        -5.7187    7.5987    4.9401 H         1 RES1    0.0000
     14 C4        -3.9452    7.1154    4.1007 C.ar      1 RES1    0.0000
     15 H4        -3.8983    7.8441    3.5239 H         1 RES1    0.0000
     16 C5        -2.9206    6.1765    4.1198 C.ar      1 RES1    0.0000
     17 H5        -2.1855    6.2856    3.5609 H         1 RES1    0.0000
     18 C6        -2.9838    5.0705    4.9695 C.ar      1 RES1    0.0000
     19 C7        -1.8997    4.0178    4.9170 C.3       1 RES1    0.0000
     20 H6        -2.3226    3.1461    4.8735 H         1 RES1    0.0000
     21 H7        -1.3971    4.1391    4.0970 H         1 RES1    0.0000
     22 C8        -1.2591    3.4117    7.2312 C.2       1 RES1    0.0000
     23 C9        -0.0308    3.3667    8.1281 C.3       1 RES1    0.0000
     24 C10        1.0393    3.9545    7.2373 C.2       1 RES1    0.0000
     25 C11        0.4245    4.4063    5.8996 C.3       1 RES1    0.0000
     26 C12        1.1750    3.8647    4.6822 C.3       1 RES1    0.0000
     27 H8         1.9871    3.4027    4.9419 H         1 RES1    0.0000
     28 H9         0.6186    3.2655    4.1599 H         1 RES1    0.0000
     29 C13        1.4780    5.1204    3.9325 C.2       1 RES1    0.0000
     30 C14        2.1426    5.1578    2.5908 C.3       1 RES1    0.0000
     31 H10        2.1766    6.0758    2.2500 H         1 RES1    0.0000
     32 C15        3.5374    4.5222    2.5614 C.3       1 RES1    0.0000
     33 H11        4.2298    5.1844    2.7104 H         1 RES1    0.0000
     34 H12        3.6191    3.8200    3.2262 H         1 RES1    0.0000
     35 C16        2.2937    3.5142    0.9313 C.3       1 RES1    0.0000
     36 C17        2.1288    2.0519    1.3177 C.3       1 RES1    0.0000
     37 H13        1.1948    1.8029    1.2387 H         1 RES1    0.0000
     38 H14        2.3927    1.9334    2.2445 H         1 RES1    0.0000
     39 C18        2.9689    1.1394    0.4345 C.3       1 RES1    0.0000
     40 H15        2.7666    0.2153    0.6471 H         1 RES1    0.0000
     41 H16        3.9082    1.2897    0.6231 H         1 RES1    0.0000
     42 C19        2.7082    1.3825   -1.0537 C.3       1 RES1    0.0000
     43 H17        3.3102    0.8345   -1.5808 H         1 RES1    0.0000
     44 H18        1.7987    1.1235   -1.2702 H         1 RES1    0.0000
     45 C20        2.9159    2.8523   -1.4064 C.3       1 RES1    0.0000
     46 H19        3.8470    3.0881   -1.2702 H         1 RES1    0.0000
     47 H20        2.7044    2.9922   -2.3425 H         1 RES1    0.0000
     48 C21        2.0356    3.7484   -0.5484 C.3       1 RES1    0.0000
     49 H21        2.2141    4.6768   -0.7636 H         1 RES1    0.0000
     50 H22        1.1031    3.5678   -0.7451 H         1 RES1    0.0000
     51 C22       -0.2086    4.1976    9.4026 C.3       1 RES1    0.0000
     52 H23        0.5742    4.1123    9.9523 H         1 RES1    0.0000
     53 H24       -0.9748    3.8813    9.8857 H         1 RES1    0.0000
     54 H25       -0.3365    5.1197    9.1684 H         1 RES1    0.0000
     55 C23        0.2893    1.9123    8.4780 C.3       1 RES1    0.0000
     56 H26        1.1031    1.8765    8.9854 H         1 RES1    0.0000
     57 H27        0.3937    1.4046    7.6708 H         1 RES1    0.0000
     58 H28       -0.4282    1.5429    8.9983 H         1 RES1    0.0000
@<TRIPOS>BOND
     1    1   22 2
     2    2   24 2
     3    3    7 1
     4    4   30 1
     5    5   32 1
     6    6   19 1
     7    7   29 2
     8    8    9 1
     9   10    8 ar
    10   11   10 1
    11   12   10 ar
    12   13   12 1
    13   14   12 ar
    14   15   14 1
    15   16   14 ar
    16   17   16 1
    17   18    8 ar
    18   19   18 1
    19   20   19 1
    20   21   19 1
    21   22    6 1
    22   23   22 1
    23   24   23 1
    24   25    3 1
    25   26   25 1
    26   27   26 1
    27   28   26 1
    28   29   26 1
    29   30   29 1
    30   31   30 1
    31   32   30 1
    32   33   32 1
    33   34   32 1
    34   35    4 1
    35   36   35 1
    36   37   36 1
    37   38   36 1
    38   39   36 1
    39   40   39 1
    40   41   39 1
    41   42   39 1
    42   43   42 1
    43   44   42 1
    44   45   42 1
    45   46   45 1
    46   47   45 1
    47   48   35 1
    48   49   48 1
    49   50   48 1
    50   51   23 1
    51   52   51 1
    52   53   51 1
    53   54   51 1
    54   55   23 1
    55   56   55 1
    56   57   55 1
    57   58   55 1
    58    5   35 1
    59    6   25 1
    60   16   18 ar
    61   24   25 1
    62   45   48 1
@<TRIPOS>SUBSTRUCTURE
     1 RES1 1

@<TRIPOS>CRYSIN
   9.8666   11.1565   18.4884  90.0000  90.0000  90.0000  19 1

