# MOL2 file generated by ConQuest
# Please check atom types

@<TRIPOS>MOLECULE
FUJCUJ
    40    42     1
SMALL
NO_CHARGES
****
Generated from CSD

@<TRIPOS>ATOM
      1 C1         3.9451    6.1511   17.6915 C.ar      1 RES1    0.0000
      2 C2         4.8651    5.2690   18.5244 C.3       1 RES1    0.0000
      3 H1         4.9616    4.4188   18.0074 H         1 RES1    0.0000
      4 C3         7.7725    3.8419   18.4458 C.ar      1 RES1    0.0000
      5 C4         7.2481    4.9174   19.4030 C.3       1 RES1    0.0000
      6 H2         8.0276    5.4674   19.7024 H         1 RES1    0.0000
      7 O1         5.7513    7.3353   20.3844 O.2       1 RES1    0.0000
      8 C5         6.2819    5.8462   18.6337 C.3       1 RES1    0.0000
      9 H3         6.6390    5.9552   17.7051 H         1 RES1    0.0000
     10 C6         3.8172    5.9069   16.3255 C.ar      1 RES1    0.0000
     11 H4         4.3282    5.2139   15.9245 H         1 RES1    0.0000
     12 C7         2.2025    7.6758   16.1153 C.ar      1 RES1    0.0000
     13 H5         1.5974    8.1799   15.5847 H         1 RES1    0.0000
     14 C8         7.2811    2.5378   18.4594 C.ar      1 RES1    0.0000
     15 H6         6.5990    2.2958   19.0748 H         1 RES1    0.0000
     16 C9         5.2748    4.3055   20.8201 C.2       1 RES1    0.0000
     17 H7         4.9522    3.8965   21.6143 H         1 RES1    0.0000
     18 C10        7.7842    1.5892   17.5737 C.ar      1 RES1    0.0000
     19 H8         7.4459    0.7019   17.5883 H         1 RES1    0.0000
     20 N1         6.2795    7.2124   19.2902 N.pl3     1 RES1    0.0000
     21 C11        8.7615    4.1788   17.5130 C.ar      1 RES1    0.0000
     22 H9         9.0967    5.0670   17.4841 H         1 RES1    0.0000
     23 C12        2.3391    7.9482   17.4645 C.ar      1 RES1    0.0000
     24 H10        1.8368    8.6514   17.8593 H         1 RES1    0.0000
     25 C13        6.5919    4.3367   20.6344 C.2       1 RES1    0.0000
     26 C14        8.7764    1.9319   16.6714 C.ar      1 RES1    0.0000
     27 H11        9.1273    1.2780   16.0788 H         1 RES1    0.0000
     28 C15        4.2732    4.8605   19.8800 C.3       1 RES1    0.0000
     29 H12        3.8486    5.6517   20.2966 H         1 RES1    0.0000
     30 H13        3.5668    4.1836   19.7295 H         1 RES1    0.0000
     31 C16        2.9545    6.6619   15.5424 C.ar      1 RES1    0.0000
     32 H14        2.8792    6.4833   14.6131 H         1 RES1    0.0000
     33 C17        9.2560    3.2301   16.6340 C.ar      1 RES1    0.0000
     34 H15        9.9248    3.4711   16.0038 H         1 RES1    0.0000
     35 C18        3.2080    7.1977   18.2446 C.ar      1 RES1    0.0000
     36 H16        3.3015    7.4003   19.1687 H         1 RES1    0.0000
     37 C19        7.4585    3.7505   21.6641 C.2       1 RES1    0.0000
     38 H17        7.0409    3.3972   22.4399 H         1 RES1    0.0000
     39 O2         6.8251    8.1154   18.7052 O.2       1 RES1    0.0000
     40 O3         8.6626    3.6828   21.5976 O.2       1 RES1    0.0000
@<TRIPOS>BOND
     1    1    2 1
     2    2    3 1
     3    4    5 1
     4    5    6 1
     5    7   20 2
     6    8    2 1
     7    9    8 1
     8   10    1 ar
     9   11   10 1
    10   12   13 1
    11   14    4 ar
    12   15   14 1
    13   16   17 1
    14   18   14 ar
    15   19   18 1
    16   20    8 1
    17   21    4 ar
    18   22   21 1
    19   23   12 ar
    20   24   23 1
    21   25    5 1
    22   26   18 ar
    23   27   26 1
    24   28    2 1
    25   29   28 1
    26   30   28 1
    27   31   10 ar
    28   32   31 1
    29   33   21 ar
    30   34   33 1
    31   35    1 ar
    32   36   35 1
    33   37   25 1
    34   38   37 1
    35   39   20 2
    36   40   37 2
    37    5    8 1
    38   12   31 ar
    39   16   25 2
    40   16   28 1
    41   23   35 ar
    42   26   33 ar
@<TRIPOS>SUBSTRUCTURE
     1 RES1 1

@<TRIPOS>CRYSIN
   7.8494    9.6020   20.8491  90.0000  90.0000  90.0000  19 1

