# MOL2 file generated by ConQuest
# Please check atom types

@<TRIPOS>MOLECULE
FUJXEO01
    16    14     2
SMALL
NO_CHARGES
****
Generated from CSD

@<TRIPOS>ATOM
      1 C1         5.3695    5.7605    1.2151 C.2       1 RES1    0.0000
      2 C2         4.2751    5.7605    0.2247 C.2       1 RES1    0.0000
      3 N1         5.8420    4.5497    1.6590 N.pl3     1 RES1    0.0000
      4 N2         3.0374    5.7605    0.6008 N.3       1 RES1    0.0000
      5 N3         4.6137    5.7605   -1.0268 N.3       1 RES1    0.0000
      6 N4         3.6189    5.7605   -2.0170 N.3       1 RES1    0.0000
      7 O1         6.7553    4.4550    2.5001 O.2       1 RES1    0.0000
      8 O2         5.3023    3.5308    1.1712 O.2       1 RES1    0.0000
      9 H1         2.8949    5.7605    1.4360 H         1 RES1    0.0000
     10 H2         2.4591    5.7605   -0.0244 H         1 RES1    0.0000
     11 H3         3.7104    5.0769   -2.4666 H         1 RES1    0.0000
     12 H4         5.4100    5.4994   -1.1967 Du        2 SUP2    0.0000
     13 N1G        5.8420    6.9713    1.6590 N.pl3     1 RES1    0.0000
     14 O1G        6.7553    7.0661    2.5001 O.2       1 RES1    0.0000
     15 O2G        5.3023    7.9902    1.1712 O.2       1 RES1    0.0000
     16 H3G        3.7104    6.4441   -2.4666 H         1 RES1    0.0000
@<TRIPOS>BOND
     1    1    2 2
     2    2    4 1
     3    3    1 1
     4    4    9 1
     5    5    2 1
     6    6    5 1
     7    7    3 2
     8    8    3 2
     9   10    4 1
    10   11    6 1
    11   13    1 1
    12   14   13 2
    13   15   13 2
    14   16    6 1
@<TRIPOS>SUBSTRUCTURE
     1 RES1 1
     2 SUP2 12

@<TRIPOS>CRYSIN
   6.2255    7.6807   12.2111  90.0000  90.0000  90.0000  62 1

