# MOL2 file generated by ConQuest
# Please check atom types

@<TRIPOS>MOLECULE
FULJOL
    55    57     1
SMALL
NO_CHARGES
****
Generated from CSD

@<TRIPOS>ATOM
      1 N1         6.8666    2.5913    7.9995 N.pl3     1 RES1    0.0000
      2 O1         5.2005    3.7343    5.9640 O.3       1 RES1    0.0000
      3 O2         3.5995    2.3689    5.1681 O.2       1 RES1    0.0000
      4 O3         5.0806    2.1124    2.8691 O.3       1 RES1    0.0000
      5 O4         6.6519    4.0174   10.4760 O.3       1 RES1    0.0000
      6 O5         5.1897    1.7389    0.6695 O.2       1 RES1    0.0000
      7 O6         6.4112    1.5058    8.2415 O.2       1 RES1    0.0000
      8 O7         7.9508    2.7978    7.5451 O.2       1 RES1    0.0000
      9 O8         6.1799    2.3317   11.8446 O.2       1 RES1    0.0000
     10 C1         4.5970    3.0394    5.0121 C.2       1 RES1    0.0000
     11 C2         5.4861    3.7407    9.6827 C.3       1 RES1    0.0000
     12 C3         6.7654    3.6076    3.6488 C.3       1 RES1    0.0000
     13 C4         5.9342    3.8396    8.2119 C.3       1 RES1    0.0000
     14 C5         5.2475    2.5073    1.5569 C.2       1 RES1    0.0000
     15 C6         5.2620    3.3309    3.6757 C.3       1 RES1    0.0000
     16 C7         4.6259    4.4196    2.7938 C.3       1 RES1    0.0000
     17 C8         3.1153    4.2249    2.5329 C.3       1 RES1    0.0000
     18 C9         4.6982    3.5874    7.3192 C.3       1 RES1    0.0000
     19 C10        3.5779    4.5899    7.6015 C.3       1 RES1    0.0000
     20 C11        6.8955    3.2245   11.5542 C.2       1 RES1    0.0000
     21 C12        5.5077    3.9982    1.5865 C.3       1 RES1    0.0000
     22 C13        6.9533    4.0833    2.1699 C.3       1 RES1    0.0000
     23 C14        4.8428    5.8403    3.3154 C.3       1 RES1    0.0000
     24 C15        5.3198    4.6910    0.2420 C.3       1 RES1    0.0000
     25 C16        3.1731    4.4909    9.0750 C.3       1 RES1    0.0000
     26 C17        4.3657    4.7421   10.0054 C.3       1 RES1    0.0000
     27 C18        8.1676    3.6502   12.2211 C.3       1 RES1    0.0000
     28 C19        6.6642    5.1529    7.8946 C.3       1 RES1    0.0000
     29 H1         5.0668    2.7648    9.8790 H         1 RES1    0.0000
     30 H2         7.0184    4.3951    4.3426 H         1 RES1    0.0000
     31 H3         7.3581    2.7350    3.8666 H         1 RES1    0.0000
     32 H4         2.9563    3.2245    2.1565 H         1 RES1    0.0000
     33 H5         2.7900    4.9485    1.7962 H         1 RES1    0.0000
     34 H6         2.5587    4.3632    3.4445 H         1 RES1    0.0000
     35 H7         4.2284    2.6307    7.5074 H         1 RES1    0.0000
     36 H8         3.9682    5.5817    7.4241 H         1 RES1    0.0000
     37 H9         2.7394    4.4111    6.9508 H         1 RES1    0.0000
     38 H10        7.6328    3.4299    1.6375 H         1 RES1    0.0000
     39 H11        7.3220    5.0986    2.1162 H         1 RES1    0.0000
     40 H12        5.8908    6.0000    3.5198 H         1 RES1    0.0000
     41 H13        4.2790    5.9702    4.2243 H         1 RES1    0.0000
     42 H14        4.5103    6.5533    2.5760 H         1 RES1    0.0000
     43 H15        5.5222    5.7467    0.3496 H         1 RES1    0.0000
     44 H16        4.3079    4.5526   -0.1076 H         1 RES1    0.0000
     45 H17        6.0065    4.2653   -0.4732 H         1 RES1    0.0000
     46 H18        2.7828    3.5012    9.2498 H         1 RES1    0.0000
     47 H19        2.4069    5.2252    9.2928 H         1 RES1    0.0000
     48 H20        4.0766    4.6516   11.0433 H         1 RES1    0.0000
     49 H21        4.7488    5.7350    9.8252 H         1 RES1    0.0000
     50 H22        8.3267    3.0117   13.0734 H         1 RES1    0.0000
     51 H23        8.1170    4.6825   12.5491 H         1 RES1    0.0000
     52 H24        8.9916    3.5331   11.5300 H         1 RES1    0.0000
     53 H25        5.9920    5.9893    8.0452 H         1 RES1    0.0000
     54 H26        6.9967    5.1443    6.8675 H         1 RES1    0.0000
     55 H27        7.5099    5.2465    8.5507 H         1 RES1    0.0000
@<TRIPOS>BOND
     1    1    7 2
     2    2   10 1
     3    3   10 2
     4    4   14 1
     5    5   11 1
     6    6   14 2
     7    8    1 2
     8    9   20 2
     9   10   15 1
    10   11   13 1
    11   12   15 1
    12   13    1 1
    13   14   21 1
    14   15    4 1
    15   16   15 1
    16   17   16 1
    17   18    2 1
    18   19   18 1
    19   20    5 1
    20   21   16 1
    21   22   12 1
    22   23   16 1
    23   24   21 1
    24   25   19 1
    25   26   11 1
    26   27   20 1
    27   28   13 1
    28   29   11 1
    29   30   12 1
    30   31   12 1
    31   32   17 1
    32   33   17 1
    33   34   17 1
    34   35   18 1
    35   36   19 1
    36   37   19 1
    37   38   22 1
    38   39   22 1
    39   40   23 1
    40   41   23 1
    41   42   23 1
    42   43   24 1
    43   44   24 1
    44   45   24 1
    45   46   25 1
    46   47   25 1
    47   48   26 1
    48   49   26 1
    49   50   27 1
    50   51   27 1
    51   52   27 1
    52   53   28 1
    53   54   28 1
    54   55   28 1
    55   13   18 1
    56   21   22 1
    57   25   26 1
@<TRIPOS>SUBSTRUCTURE
     1 RES1 1

@<TRIPOS>CRYSIN
   7.2280   10.6420   26.8890  90.0000  90.0000  90.0000  19 1

