# MOL2 file generated by ConQuest
# Please check atom types

@<TRIPOS>MOLECULE
FULKED
   108   114     1
SMALL
NO_CHARGES
****
Generated from CSD

@<TRIPOS>ATOM
      1 O1         7.3395   10.5412    5.8093 O.3       1 RES1    0.0000
      2 O2         6.3419    9.9145   12.8085 O.2       1 RES1    0.0000
      3 O3         5.6288    6.3820   17.6538 O.2       1 RES1    0.0000
      4 O4         4.4336    5.0397   18.9985 O.3       1 RES1    0.0000
      5 N1         5.9393   10.8115    6.1175 N.3       1 RES1    0.0000
      6 H1         5.9839   11.7315    6.2884 H         1 RES1    0.0000
      7 C1         6.2665    9.9117    9.8518 C.3       1 RES1    0.0000
      8 H2         6.8569   10.2674   10.5623 H         1 RES1    0.0000
      9 H3         6.4944    8.9568    9.7162 H         1 RES1    0.0000
     10 C2         6.5237   10.6808    8.5516 C.3       1 RES1    0.0000
     11 H4         6.3344   11.6414    8.6970 H         1 RES1    0.0000
     12 H5         7.4776   10.5930    8.3028 H         1 RES1    0.0000
     13 C3         5.6582   10.1654    7.4146 C.3       1 RES1    0.0000
     14 H6         5.8759    9.1964    7.3052 H         1 RES1    0.0000
     15 C4         4.1411   10.2481    7.7201 C.3       1 RES1    0.0000
     16 C5         3.8974    9.5742    9.1121 C.3       1 RES1    0.0000
     17 H7         4.1336    8.6128    8.9686 H         1 RES1    0.0000
     18 C6         2.4251    9.5488    9.5157 C.3       1 RES1    0.0000
     19 H8         1.8688    9.3377    8.7234 H         1 RES1    0.0000
     20 H9         2.1584   10.4414    9.8484 H         1 RES1    0.0000
     21 C7         2.1823    8.5039   10.6037 C.3       1 RES1    0.0000
     22 H10        2.3824    7.6074   10.2378 H         1 RES1    0.0000
     23 H11        1.2251    8.5206   10.8556 H         1 RES1    0.0000
     24 C8         3.0334    8.7277   11.8640 C.3       1 RES1    0.0000
     25 C9         4.5279    8.9857   11.4681 C.3       1 RES1    0.0000
     26 H12        4.8481    8.1111   11.1032 H         1 RES1    0.0000
     27 C10        4.7933   10.0225   10.3109 C.3       1 RES1    0.0000
     28 C11        5.3512    9.1997   12.7491 C.2       1 RES1    0.0000
     29 C12        4.9214    8.4688   13.9498 C.2       1 RES1    0.0000
     30 H13        5.4569    8.5555   14.7305 H         1 RES1    0.0000
     31 C13        3.8317    7.6889   14.0322 C.2       1 RES1    0.0000
     32 C14        2.9660    7.4444   12.7976 C.3       1 RES1    0.0000
     33 C15        1.4934    7.1030   13.1606 C.3       1 RES1    0.0000
     34 H14        0.9966    7.9493   13.2931 H         1 RES1    0.0000
     35 H15        1.0799    6.6306   12.3940 H         1 RES1    0.0000
     36 C16        1.3310    6.2335   14.4190 C.3       1 RES1    0.0000
     37 H16        1.7103    5.3364   14.2450 H         1 RES1    0.0000
     38 H17        0.3669    6.1248   14.6176 H         1 RES1    0.0000
     39 C17        2.0329    6.8530   15.6430 C.3       1 RES1    0.0000
     40 C18        3.5427    6.9762   15.3433 C.3       1 RES1    0.0000
     41 H18        3.9416    7.5316   16.0719 H         1 RES1    0.0000
     42 C19        4.2758    5.6124   15.3582 C.3       1 RES1    0.0000
     43 H19        3.9557    5.0682   14.5959 H         1 RES1    0.0000
     44 H20        5.2448    5.7685   15.2305 H         1 RES1    0.0000
     45 C20        4.0675    4.8194   16.6558 C.3       1 RES1    0.0000
     46 C21        2.5583    4.6566   16.9077 C.3       1 RES1    0.0000
     47 H21        2.1718    4.0771   16.2041 H         1 RES1    0.0000
     48 H22        2.4203    4.2102   17.7810 H         1 RES1    0.0000
     49 C22        1.8275    5.9978   16.9098 C.3       1 RES1    0.0000
     50 H23        2.1301    6.5200   17.6944 H         1 RES1    0.0000
     51 H24        0.8581    5.8279   17.0214 H         1 RES1    0.0000
     52 C23        3.4057    9.4452    6.6292 C.3       1 RES1    0.0000
     53 H25        3.6722    9.7759    5.7451 H         1 RES1    0.0000
     54 H26        2.4382    9.5527    6.7403 H         1 RES1    0.0000
     55 H27        3.6402    8.4961    6.7090 H         1 RES1    0.0000
     56 C24        3.6272   11.6998    7.6470 C.3       1 RES1    0.0000
     57 H28        3.7883   12.0591    6.7499 H         1 RES1    0.0000
     58 H29        4.1009   12.2475    8.3076 H         1 RES1    0.0000
     59 H30        2.6659   11.7151    7.8388 H         1 RES1    0.0000
     60 C25        4.5549   11.4749   10.7888 C.3       1 RES1    0.0000
     61 H31        5.0520   12.0940   10.2138 H         1 RES1    0.0000
     62 H32        4.8637   11.5697   11.7138 H         1 RES1    0.0000
     63 H33        3.5985   11.6824   10.7402 H         1 RES1    0.0000
     64 C26        2.4508    9.9510   12.6121 C.3       1 RES1    0.0000
     65 H34        2.3965   10.7138   11.9998 H         1 RES1    0.0000
     66 H35        3.0329   10.1793   13.3676 H         1 RES1    0.0000
     67 H36        1.5548    9.7350   12.9445 H         1 RES1    0.0000
     68 C27        3.5527    6.1801   12.0993 C.3       1 RES1    0.0000
     69 H37        3.3000    5.3794   12.6056 H         1 RES1    0.0000
     70 H38        4.5296    6.2497   12.0647 H         1 RES1    0.0000
     71 H39        3.1973    6.1146   11.1897 H         1 RES1    0.0000
     72 C28        1.4466    8.2401   15.9413 C.3       1 RES1    0.0000
     73 H40        0.4793    8.1643   16.0767 H         1 RES1    0.0000
     74 H41        1.6240    8.8380   15.1873 H         1 RES1    0.0000
     75 H42        1.8629    8.6026   16.7497 H         1 RES1    0.0000
     76 C29        4.7904    5.5328   17.7971 C.2       1 RES1    0.0000
     77 C30        4.7342    3.4394   16.5356 C.3       1 RES1    0.0000
     78 H43        5.6951    3.5528   16.3796 H         1 RES1    0.0000
     79 H44        4.3375    2.9487   15.7858 H         1 RES1    0.0000
     80 H45        4.5951    2.9365   17.3651 H         1 RES1    0.0000
     81 C31        7.3667    9.5943    4.7533 C.3       1 RES1    0.0000
     82 H46        8.2963    9.3561    4.5528 H         1 RES1    0.0000
     83 H47        6.9484    9.9827    3.9567 H         1 RES1    0.0000
     84 H48        6.8747    8.7909    5.0216 H         1 RES1    0.0000
     85 C32        5.2611    5.4525   20.1391 C.3       1 RES1    0.0000
     86 H49        5.7874    6.2579   19.8699 H         1 RES1    0.0000
     87 C33        4.3413    5.8438   21.2732 C.ar      1 RES1    0.0000
     88 C34        3.0597    6.3017   21.0326 C.ar      1 RES1    0.0000
     89 H50        2.7255    6.3173   20.1439 H         1 RES1    0.0000
     90 C35        2.2559    6.7377   22.0771 C.ar      1 RES1    0.0000
     91 H51        1.3679    7.0258   21.9011 H         1 RES1    0.0000
     92 C36        2.7404    6.7557   23.3696 C.ar      1 RES1    0.0000
     93 H52        2.1956    7.0729   24.0790 H         1 RES1    0.0000
     94 C37        4.0168    6.3111   23.6222 C.ar      1 RES1    0.0000
     95 H53        4.3532    6.3214   24.5117 H         1 RES1    0.0000
     96 C38        4.8183    5.8469   22.5855 C.ar      1 RES1    0.0000
     97 H54        5.6943    5.5309   22.7713 H         1 RES1    0.0000
     98 C39        6.2272    4.3347   20.4403 C.ar      1 RES1    0.0000
     99 C40        5.7866    3.1183   20.9785 C.ar      1 RES1    0.0000
    100 H55        4.8645    2.9917   21.1704 H         1 RES1    0.0000
    101 C41        6.6857    2.1026   21.2317 C.ar      1 RES1    0.0000
    102 H56        6.3776    1.2798   21.5934 H         1 RES1    0.0000
    103 C42        8.0350    2.2714   20.9624 C.ar      1 RES1    0.0000
    104 H57        8.6483    1.5706   21.1463 H         1 RES1    0.0000
    105 C43        8.4861    3.4697   20.4235 C.ar      1 RES1    0.0000
    106 H58        9.4097    3.5917   20.2377 H         1 RES1    0.0000
    107 C44        7.5751    4.4950   20.1574 C.ar      1 RES1    0.0000
    108 H59        7.8817    5.3098   19.7785 H         1 RES1    0.0000
@<TRIPOS>BOND
     1    1    5 1
     2    2   28 2
     3    3   76 2
     4    4   76 1
     5    5    6 1
     6    7    8 1
     7    9    7 1
     8   10    7 1
     9   11   10 1
    10   12   10 1
    11   13    5 1
    12   14   13 1
    13   15   13 1
    14   16   15 1
    15   17   16 1
    16   18   16 1
    17   19   18 1
    18   20   18 1
    19   21   18 1
    20   22   21 1
    21   23   21 1
    22   24   21 1
    23   25   24 1
    24   26   25 1
    25   27    7 1
    26   28   25 1
    27   29   28 1
    28   30   29 1
    29   31   29 2
    30   32   24 1
    31   33   32 1
    32   34   33 1
    33   35   33 1
    34   36   33 1
    35   37   36 1
    36   38   36 1
    37   39   36 1
    38   40   31 1
    39   41   40 1
    40   42   40 1
    41   43   42 1
    42   44   42 1
    43   45   42 1
    44   46   45 1
    45   47   46 1
    46   48   46 1
    47   49   39 1
    48   50   49 1
    49   51   49 1
    50   52   15 1
    51   53   52 1
    52   54   52 1
    53   55   52 1
    54   56   15 1
    55   57   56 1
    56   58   56 1
    57   59   56 1
    58   60   27 1
    59   61   60 1
    60   62   60 1
    61   63   60 1
    62   64   24 1
    63   65   64 1
    64   66   64 1
    65   67   64 1
    66   68   32 1
    67   69   68 1
    68   70   68 1
    69   71   68 1
    70   72   39 1
    71   73   72 1
    72   74   72 1
    73   75   72 1
    74   76   45 1
    75   77   45 1
    76   78   77 1
    77   79   77 1
    78   80   77 1
    79   81    1 1
    80   82   81 1
    81   83   81 1
    82   84   81 1
    83   85    4 1
    84   86   85 1
    85   87   85 1
    86   88   87 ar
    87   89   88 1
    88   90   88 ar
    89   91   90 1
    90   92   90 ar
    91   93   92 1
    92   94   92 ar
    93   95   94 1
    94   96   87 ar
    95   97   96 1
    96   98   85 1
    97   99   98 ar
    98  100   99 1
    99  101   99 ar
   100  102  101 1
   101  103  101 ar
   102  104  103 1
   103  105  103 ar
   104  106  105 1
   105  107   98 ar
   106  108  107 1
   107   10   13 1
   108   16   27 1
   109   25   27 1
   110   31   32 1
   111   39   40 1
   112   46   49 1
   113   94   96 ar
   114  105  107 ar
@<TRIPOS>SUBSTRUCTURE
     1 RES1 1

@<TRIPOS>CRYSIN
   7.4426   20.4774   24.0381  90.0000  90.0000  90.0000  19 1

