# MOL2 file generated by ConQuest
# Please check atom types

@<TRIPOS>MOLECULE
FULKUS01
    17    18     1
SMALL
NO_CHARGES
****
Generated from CSD

@<TRIPOS>ATOM
      1 C1        -2.3425    8.0090   13.3037 C.ar      1 RES1    0.0000
      2 N1        -3.3357    8.7547   13.8322 N.pl3     1 RES1    0.0000
      3 H1        -3.7286    8.6989   14.6424 H         1 RES1    0.0000
      4 N2        -3.7599    9.7173   12.9633 N.2       1 RES1    0.0000
      5 C2        -3.0367    9.5798   11.8750 C.2       1 RES1    0.0000
      6 H2        -3.1949   10.1575   11.0827 H         1 RES1    0.0000
      7 C3        -2.1078    8.5158   12.0071 C.ar      1 RES1    0.0000
      8 C4        -1.1138    7.9554   11.1980 C.ar      1 RES1    0.0000
      9 H3        -0.9792    8.3162   10.3345 H         1 RES1    0.0000
     10 C5        -0.3727    6.9052   11.6892 C.ar      1 RES1    0.0000
     11 H4         0.3355    6.5008   11.1358 H         1 RES1    0.0000
     12 C6        -0.5931    6.3981   12.9665 C.ar      1 RES1    0.0000
     13 H5        -0.0604    5.7074   13.2538 H         1 RES1    0.0000
     14 C7        -1.5735    6.9390   13.7752 C.ar      1 RES1    0.0000
     15 N3        -1.8078    6.4008   15.0933 N.pl3     1 RES1    0.0000
     16 O1        -2.7303    6.8749   15.7409 O.2       1 RES1    0.0000
     17 O2        -1.0894    5.4925   15.5088 O.2       1 RES1    0.0000
@<TRIPOS>BOND
     1    1    2 1
     2    2    3 1
     3    4    2 1
     4    5    4 2
     5    6    5 1
     6    7    1 ar
     7    8    7 ar
     8    9    8 1
     9   10    8 ar
    10   11   10 1
    11   12   10 ar
    12   13   12 1
    13   14    1 ar
    14   15   14 1
    15   16   15 2
    16   17   15 2
    17    5    7 1
    18   12   14 ar
@<TRIPOS>SUBSTRUCTURE
     1 RES1 1

@<TRIPOS>CRYSIN
   5.0186    9.6408   14.5082  90.0000  98.2100  90.0000 231 1

