# MOL2 file generated by ConQuest
# Please check atom types

@<TRIPOS>MOLECULE
FULNIJ
    31    33     1
SMALL
NO_CHARGES
****
Generated from CSD

@<TRIPOS>ATOM
      1 C1         6.9083   -1.5428    0.2386 C.3       1 RES1    0.0000
      2 C2         6.5838   -2.6439   -0.7262 C.3       1 RES1    0.0000
      3 C3         0.3390    1.6255   -1.6549 C.3       1 RES1    0.0000
      4 C4         0.6996    3.0213   -2.0223 C.3       1 RES1    0.0000
      5 C5         4.0524    3.7475    1.2978 C.3       1 RES1    0.0000
      6 C6         3.0153    4.8268    0.9957 C.3       1 RES1    0.0000
      7 O1         6.0579   -1.3776    2.5579 O.2       1 RES1    0.0000
      8 O2         5.3851   -1.0723    0.5047 O.3       1 RES1    0.0000
      9 O3        -0.1353    2.0577    0.9201 O.2       1 RES1    0.0000
     10 C7         1.9038    1.5141    2.8926 C.2       1 RES1    0.0000
     11 C8         1.9997    1.1758    1.5639 C.2       1 RES1    0.0000
     12 C9         3.2760    0.5470    1.0077 C.3       1 RES1    0.0000
     13 C10        4.2366    0.1383    2.1253 C.2       1 RES1    0.0000
     14 C11        4.0834    0.5583    3.4007 C.2       1 RES1    0.0000
     15 C12        0.7354    2.1751    3.5570 C.3       1 RES1    0.0000
     16 C13        5.0053    0.3496    4.5578 C.3       1 RES1    0.0000
     17 C14        5.3620   -0.7549    1.8042 C.2       1 RES1    0.0000
     18 C15        0.9061    1.4968    0.6592 C.2       1 RES1    0.0000
     19 O4         1.1966    1.1245   -0.6026 O.3       1 RES1    0.0000
     20 C16        3.9072    1.4750   -0.0103 C.2       1 RES1    0.0000
     21 C17        4.2071    2.7900    0.1854 C.2       1 RES1    0.0000
     22 C18        4.2981    1.2271   -1.3665 C.2       1 RES1    0.0000
     23 C19        3.2215   -0.9027   -2.1441 C.ar      1 RES1    0.0000
     24 C20        4.2650    0.0052   -2.1991 C.ar      1 RES1    0.0000
     25 C21        5.3137   -0.2287   -3.0849 C.ar      1 RES1    0.0000
     26 C22        4.2797   -2.2360   -3.8385 C.ar      1 RES1    0.0000
     27 C23        5.3121   -1.3385   -3.8849 C.ar      1 RES1    0.0000
     28 C24        3.2300   -2.0351   -2.9544 C.ar      1 RES1    0.0000
     29 N1         2.9702    1.2767    3.7372 N.pl3     1 RES1    0.0000
     30 N2         4.7753    2.3125   -1.9347 N.2       1 RES1    0.0000
     31 O5         4.7279    3.3214   -0.9596 O.3       1 RES1    0.0000
@<TRIPOS>BOND
     1    1    2 1
     2    3    4 1
     3    5    6 1
     4    7   17 2
     5    8    1 1
     6    9   18 2
     7   10   11 2
     8   11   12 1
     9   12   13 1
    10   13   14 2
    11   14   16 1
    12   15   10 1
    13   17    8 1
    14   18   11 1
    15   19    3 1
    16   20   12 1
    17   21    5 1
    18   22   20 1
    19   23   24 ar
    20   24   22 1
    21   25   24 ar
    22   26   27 ar
    23   27   25 ar
    24   28   23 ar
    25   29   10 1
    26   30   22 2
    27   31   21 1
    28   13   17 1
    29   14   29 1
    30   18   19 1
    31   20   21 2
    32   26   28 ar
    33   30   31 1
@<TRIPOS>SUBSTRUCTURE
     1 RES1 1

@<TRIPOS>CRYSIN
  14.8290    8.6970   17.7510  90.0000 104.7400  90.0000  14 1

