# MOL2 file generated by ConQuest
# Please check atom types

@<TRIPOS>MOLECULE
FULNOP
    32    34     1
SMALL
NO_CHARGES
****
Generated from CSD

@<TRIPOS>ATOM
      1 N1         4.3730    3.8155    0.4368 N.pl3     1 RES1    0.0000
      2 C1         5.5567    3.2999    0.9119 C.2       1 RES1    0.0000
      3 C2         5.5345    2.2814    1.8017 C.2       1 RES1    0.0000
      4 C3         4.2251    1.8149    2.4002 C.3       1 RES1    0.0000
      5 C4         3.0419    2.2304    1.5604 C.2       1 RES1    0.0000
      6 C5         3.1485    3.2345    0.6559 C.2       1 RES1    0.0000
      7 C6         1.8309    1.4783    1.8325 C.2       1 RES1    0.0000
      8 O1         1.7153    0.6867    2.7267 O.2       1 RES1    0.0000
      9 O2         0.7504    1.8851    1.2016 O.3       1 RES1    0.0000
     10 C7         6.7752    1.5995    2.1840 C.2       1 RES1    0.0000
     11 O3         7.8985    1.9996    2.0546 O.2       1 RES1    0.0000
     12 O4         6.5281    0.3905    2.7238 O.3       1 RES1    0.0000
     13 C8         4.0838    2.2679    3.8489 C.2       1 RES1    0.0000
     14 C9         4.1719    1.5014    4.9681 C.2       1 RES1    0.0000
     15 O5         3.9574    2.2631    6.0638 O.3       1 RES1    0.0000
     16 N2         3.7195    3.5866    5.6579 N.2       1 RES1    0.0000
     17 C10        3.8057    3.5664    4.3387 C.2       1 RES1    0.0000
     18 C11        3.5793    4.8417    3.6136 C.ar      1 RES1    0.0000
     19 C12        2.3356    5.2495    3.3312 C.ar      1 RES1    0.0000
     20 C13        2.1420    6.4893    2.6179 C.ar      1 RES1    0.0000
     21 C14        3.2245    7.1885    2.2532 C.ar      1 RES1    0.0000
     22 C15        4.4612    6.8124    2.5105 C.ar      1 RES1    0.0000
     23 C16        4.6485    5.6160    3.2194 C.ar      1 RES1    0.0000
     24 C17        4.4280    0.0577    5.2123 C.3       1 RES1    0.0000
     25 C18        3.1742   -0.6752    5.6770 C.3       1 RES1    0.0000
     26 C19        5.5710   -0.1356    6.1991 C.3       1 RES1    0.0000
     27 C20        6.7602    3.9617    0.3089 C.3       1 RES1    0.0000
     28 C21        2.0838    3.8308   -0.1971 C.3       1 RES1    0.0000
     29 C22       -0.5053    1.2128    1.5001 C.3       1 RES1    0.0000
     30 C23       -1.3782    2.3497    1.9414 C.3       1 RES1    0.0000
     31 C24        7.6715   -0.3838    3.1665 C.3       1 RES1    0.0000
     32 C25        8.2558   -1.2176    2.0796 C.3       1 RES1    0.0000
@<TRIPOS>BOND
     1    1    2 1
     2    2    3 2
     3    3    4 1
     4    4    5 1
     5    5    6 2
     6    6    1 1
     7    7    5 1
     8    8    7 2
     9    9    7 1
    10   10    3 1
    11   11   10 2
    12   12   10 1
    13   13    4 1
    14   14   13 2
    15   15   14 1
    16   16   15 1
    17   17   13 1
    18   18   17 1
    19   19   18 ar
    20   20   19 ar
    21   21   20 ar
    22   22   21 ar
    23   23   18 ar
    24   24   14 1
    25   25   24 1
    26   26   24 1
    27   27    2 1
    28   28    6 1
    29   29    9 1
    30   30   29 1
    31   31   12 1
    32   32   31 1
    33   16   17 2
    34   22   23 ar
@<TRIPOS>SUBSTRUCTURE
     1 RES1 1

@<TRIPOS>CRYSIN
  34.3500    9.6180   14.8370  90.0000  97.5800  90.0000  15 1

