# MOL2 file generated by ConQuest
# Please check atom types

@<TRIPOS>MOLECULE
FULQIN
    34    34     1
SMALL
NO_CHARGES
****
Generated from CSD

@<TRIPOS>ATOM
      1 O1         4.6041    1.3184   -1.1728 O.2       1 RES1    0.0000
      2 O2         5.8916   -0.5241   -1.0155 O.3       1 RES1    0.0000
      3 O3         2.2847    5.8368    7.9175 O.2       1 RES1    0.0000
      4 O4         2.5975    3.7717    8.4734 O.2       1 RES1    0.0000
      5 N1         5.0453    3.8514    2.6721 N.pl3     1 RES1    0.0000
      6 H1         5.0207    4.4931    2.1124 H         1 RES1    0.0000
      7 N2         5.3529    2.5878    2.2253 N.2       1 RES1    0.0000
      8 N3         2.6851    4.6968    7.6648 N.pl3     1 RES1    0.0000
      9 C1         5.9132    2.5069    1.0666 C.2       1 RES1    0.0000
     10 C2         6.2401    1.1188    0.6074 C.3       1 RES1    0.0000
     11 H2         6.0458    0.4861    1.3430 H         1 RES1    0.0000
     12 H3         7.2100    1.0669    0.4154 H         1 RES1    0.0000
     13 C3         5.4768    0.6832   -0.6225 C.2       1 RES1    0.0000
     14 C4         4.4406    4.0076    3.8946 C.ar      1 RES1    0.0000
     15 C5         4.0064    5.2904    4.2596 C.ar      1 RES1    0.0000
     16 H4         4.1150    6.0138    3.6534 H         1 RES1    0.0000
     17 C6         3.4258    5.5119    5.4845 C.ar      1 RES1    0.0000
     18 H5         3.1262    6.3809    5.7238 H         1 RES1    0.0000
     19 C7         3.2814    4.4467    6.3709 C.ar      1 RES1    0.0000
     20 C8         3.7024    3.1649    6.0361 C.ar      1 RES1    0.0000
     21 H6         3.5954    2.4489    6.6514 H         1 RES1    0.0000
     22 C9         4.2796    2.9406    4.7970 C.ar      1 RES1    0.0000
     23 H7         4.5666    2.0676    4.5573 H         1 RES1    0.0000
     24 C10        6.3101    3.6735    0.2097 C.3       1 RES1    0.0000
     25 H8         5.5262    4.2371    0.0420 H         1 RES1    0.0000
     26 H9         6.6663    3.3463   -0.6424 H         1 RES1    0.0000
     27 H10        6.9976    4.1981    0.6704 H         1 RES1    0.0000
     28 C11        5.3249   -1.0977   -2.2317 C.3       1 RES1    0.0000
     29 H11        4.4827   -0.6311   -2.4611 H         1 RES1    0.0000
     30 H12        5.1187   -2.0547   -2.0855 H         1 RES1    0.0000
     31 C12        6.3120   -0.9557   -3.3662 C.3       1 RES1    0.0000
     32 H13        6.4766   -0.0049   -3.5393 H         1 RES1    0.0000
     33 H14        5.9460   -1.3758   -4.1721 H         1 RES1    0.0000
     34 H15        7.1546   -1.3938   -3.1229 H         1 RES1    0.0000
@<TRIPOS>BOND
     1    1   13 2
     2    2   13 1
     3    3    8 2
     4    4    8 2
     5    5    6 1
     6    7    5 1
     7    8   19 1
     8    9    7 2
     9   10    9 1
    10   11   10 1
    11   12   10 1
    12   13   10 1
    13   14    5 1
    14   15   14 ar
    15   16   15 1
    16   17   15 ar
    17   18   17 1
    18   19   17 ar
    19   20   19 ar
    20   21   20 1
    21   22   14 ar
    22   23   22 1
    23   24    9 1
    24   25   24 1
    25   26   24 1
    26   27   24 1
    27   28    2 1
    28   29   28 1
    29   30   28 1
    30   31   28 1
    31   32   31 1
    32   33   31 1
    33   34   31 1
    34   20   22 ar
@<TRIPOS>SUBSTRUCTURE
     1 RES1 1

@<TRIPOS>CRYSIN
   7.7027    7.8103   11.1761  77.0540  79.4250  81.0970   2 1

