# MOL2 file generated by ConQuest
# Please check atom types

@<TRIPOS>MOLECULE
FULQAF
    31    31     1
SMALL
NO_CHARGES
****
Generated from CSD

@<TRIPOS>ATOM
      1 N1        -0.0657    5.3978    7.7144 N.2       1 RES1    0.0000
      2 N2         0.5622    4.2224    8.0406 N.pl3     1 RES1    0.0000
      3 H1         1.2642    3.9133    7.6324 H         1 RES1    0.0000
      4 N3        -1.8292    0.7059   11.6775 N.pl3     1 RES1    0.0000
      5 O1        -0.6102    6.5742    4.3846 O.2       1 RES1    0.0000
      6 O2        -1.4722    8.5600    4.9559 O.3       1 RES1    0.0000
      7 O3        -1.2452   -0.3552   11.9389 O.2       1 RES1    0.0000
      8 O4        -2.8965    1.0280   12.2085 O.2       1 RES1    0.0000
      9 C1         0.5478    6.1937    6.9140 C.2       1 RES1    0.0000
     10 C2        -0.1934    7.4606    6.5968 C.3       1 RES1    0.0000
     11 H2         0.4073    8.2151    6.6994 H         1 RES1    0.0000
     12 H3        -0.9208    7.5708    7.2299 H         1 RES1    0.0000
     13 C3        -0.7532    7.4599    5.1929 C.2       1 RES1    0.0000
     14 C4        -0.0681    3.3585    8.9108 C.ar      1 RES1    0.0000
     15 C5         0.5644    2.1469    9.2340 C.ar      1 RES1    0.0000
     16 H4         1.3772    1.9315    8.8367 H         1 RES1    0.0000
     17 C6        -0.0066    1.2724   10.1361 C.ar      1 RES1    0.0000
     18 H5         0.4147    0.4725   10.3531 H         1 RES1    0.0000
     19 C7        -1.2239    1.6111   10.7141 C.ar      1 RES1    0.0000
     20 C8        -1.8748    2.7974   10.4001 C.ar      1 RES1    0.0000
     21 H6        -2.6922    2.9998   10.7943 H         1 RES1    0.0000
     22 C9        -1.3023    3.6758    9.4988 C.ar      1 RES1    0.0000
     23 H7        -1.7324    4.4723    9.2833 H         1 RES1    0.0000
     24 C10        1.9077    5.9627    6.3203 C.3       1 RES1    0.0000
     25 H8         2.5513    5.8609    7.0255 H         1 RES1    0.0000
     26 H9         2.1490    6.7132    5.7728 H         1 RES1    0.0000
     27 H10        1.8916    5.1670    5.7846 H         1 RES1    0.0000
     28 C11       -2.1398    8.6157    3.6665 C.3       1 RES1    0.0000
     29 H11       -1.4827    8.6290    2.9671 H         1 RES1    0.0000
     30 H12       -2.6758    9.4107    3.6182 H         1 RES1    0.0000
     31 H13       -2.7016    7.8444    3.5633 H         1 RES1    0.0000
@<TRIPOS>BOND
     1    1    2 1
     2    2    3 1
     3    4    7 2
     4    5   13 2
     5    6   13 1
     6    8    4 2
     7    9    1 2
     8   10    9 1
     9   11   10 1
    10   12   10 1
    11   13   10 1
    12   14    2 1
    13   15   14 ar
    14   16   15 1
    15   17   15 ar
    16   18   17 1
    17   19    4 1
    18   20   19 ar
    19   21   20 1
    20   22   14 ar
    21   23   22 1
    22   24    9 1
    23   25   24 1
    24   26   24 1
    25   27   24 1
    26   28    6 1
    27   29   28 1
    28   30   28 1
    29   31   28 1
    30   17   19 ar
    31   20   22 ar
@<TRIPOS>SUBSTRUCTURE
     1 RES1 1

@<TRIPOS>CRYSIN
   5.6323    9.9695   11.0286  91.8590 102.0340  98.8980   2 1

