# MOL2 file generated by ConQuest
# Please check atom types

@<TRIPOS>MOLECULE
FULRAG
    63    68     1
SMALL
NO_CHARGES
****
Generated from CSD

@<TRIPOS>ATOM
      1 O1        10.5239    4.3327    6.4605 O.2       1 RES1    0.0000
      2 O2         9.5626    1.3419    6.5648 O.3       1 RES1    0.0000
      3 O3        15.4734   -2.3914    7.2805 O.3       1 RES1    0.0000
      4 O4        13.4613    1.9475   -0.0600 O.3       1 RES1    0.0000
      5 N1        10.6666    1.5022    8.5971 N.3       1 RES1    0.0000
      6 N2         9.9186    1.3218    5.1856 N.2       1 RES1    0.0000
      7 C1         9.3555    1.5303    9.2567 C.3       1 RES1    0.0000
      8 H1         9.4681    1.2787   10.1861 H         1 RES1    0.0000
      9 H2         8.7822    0.8668    8.8396 H         1 RES1    0.0000
     10 C2         8.6626    2.8745    9.1967 C.ar      1 RES1    0.0000
     11 C3         7.6254    3.1984   10.0532 C.ar      1 RES1    0.0000
     12 H3         7.3659    2.5850   10.7024 H         1 RES1    0.0000
     13 C4         6.9648    4.4013    9.9698 C.ar      1 RES1    0.0000
     14 H4         6.2650    4.5857   10.5551 H         1 RES1    0.0000
     15 C5         7.3352    5.3336    9.0260 C.ar      1 RES1    0.0000
     16 H5         6.8859    6.1470    8.9764 H         1 RES1    0.0000
     17 C6         8.3713    5.0596    8.1539 C.ar      1 RES1    0.0000
     18 H6         8.6317    5.6938    7.5242 H         1 RES1    0.0000
     19 C7         9.0294    3.8206    8.2204 C.ar      1 RES1    0.0000
     20 C8        10.1029    3.5138    7.2609 C.2       1 RES1    0.0000
     21 C9        10.6216    2.0731    7.2700 C.3       1 RES1    0.0000
     22 C10       11.7723    1.8629    9.4222 C.ar      1 RES1    0.0000
     23 C11       12.1239    0.9633   10.4286 C.ar      1 RES1    0.0000
     24 H7        11.6244    0.1878   10.5564 H         1 RES1    0.0000
     25 C12       13.2091    1.2270   11.2316 C.ar      1 RES1    0.0000
     26 H8        13.4241    0.6342   11.9147 H         1 RES1    0.0000
     27 C13       13.9811    2.3575   11.0439 C.ar      1 RES1    0.0000
     28 H9        14.7296    2.5108   11.5731 H         1 RES1    0.0000
     29 C14       13.6243    3.2519   10.0597 C.ar      1 RES1    0.0000
     30 H10       14.1320    4.0187    9.9293 H         1 RES1    0.0000
     31 C15       12.5147    3.0192    9.2606 C.ar      1 RES1    0.0000
     32 H11       12.2671    3.6413    8.6153 H         1 RES1    0.0000
     33 C16       11.8497    1.8887    6.3823 C.3       1 RES1    0.0000
     34 H12       12.3658    2.7211    6.3432 H         1 RES1    0.0000
     35 C17       12.7775    0.7152    6.6965 C.ar      1 RES1    0.0000
     36 C18       14.0487    0.9289    7.2075 C.ar      1 RES1    0.0000
     37 H13       14.3235    1.7922    7.4121 H         1 RES1    0.0000
     38 C19       14.9055   -0.1258    7.4147 C.ar      1 RES1    0.0000
     39 H14       15.7506    0.0276    7.7732 H         1 RES1    0.0000
     40 C20       14.5188   -1.4183    7.0915 C.ar      1 RES1    0.0000
     41 C21       13.2452   -1.6509    6.6261 C.ar      1 RES1    0.0000
     42 H15       12.9679   -2.5177    6.4358 H         1 RES1    0.0000
     43 C22       12.3780   -0.5859    6.4423 C.ar      1 RES1    0.0000
     44 H16       11.5144   -0.7479    6.1411 H         1 RES1    0.0000
     45 C23       15.3598   -3.5500    6.4423 C.3       1 RES1    0.0000
     46 H17       14.6049   -4.0739    6.7212 H         1 RES1    0.0000
     47 H18       16.1594   -4.0756    6.5140 H         1 RES1    0.0000
     48 H19       15.2379   -3.2743    5.5311 H         1 RES1    0.0000
     49 C24       11.1512    1.6526    5.0696 C.2       1 RES1    0.0000
     50 C25       11.7571    1.7233    3.7308 C.ar      1 RES1    0.0000
     51 C26       13.1157    1.9870    3.5418 C.ar      1 RES1    0.0000
     52 H20       13.6633    2.1179    4.2822 H         1 RES1    0.0000
     53 C27       13.6592    2.0576    2.2813 C.ar      1 RES1    0.0000
     54 H21       14.5641    2.2403    2.1718 H         1 RES1    0.0000
     55 C28       12.8445    1.8543    1.1602 C.ar      1 RES1    0.0000
     56 C29       11.4965    1.6096    1.3323 C.ar      1 RES1    0.0000
     57 H22       10.9476    1.4907    0.5905 H         1 RES1    0.0000
     58 C30       10.9604    1.5406    2.6019 C.ar      1 RES1    0.0000
     59 H23       10.0514    1.3700    2.7075 H         1 RES1    0.0000
     60 C31       12.6402    1.7629   -1.2162 C.3       1 RES1    0.0000
     61 H24       12.2266    0.8978   -1.1797 H         1 RES1    0.0000
     62 H25       13.1814    1.8267   -2.0062 H         1 RES1    0.0000
     63 H26       11.9622    2.4419   -1.2371 H         1 RES1    0.0000
@<TRIPOS>BOND
     1    1   20 2
     2    2    6 1
     3    3   40 1
     4    4   55 1
     5    5    7 1
     6    6   49 2
     7    7    8 1
     8    9    7 1
     9   10    7 1
    10   11   10 ar
    11   12   11 1
    12   13   11 ar
    13   14   13 1
    14   15   13 ar
    15   16   15 1
    16   17   15 ar
    17   18   17 1
    18   19   10 ar
    19   20   19 1
    20   21    2 1
    21   22    5 1
    22   23   22 ar
    23   24   23 1
    24   25   23 ar
    25   26   25 1
    26   27   25 ar
    27   28   27 1
    28   29   27 ar
    29   30   29 1
    30   31   22 ar
    31   32   31 1
    32   33   21 1
    33   34   33 1
    34   35   33 1
    35   36   35 ar
    36   37   36 1
    37   38   36 ar
    38   39   38 1
    39   40   38 ar
    40   41   40 ar
    41   42   41 1
    42   43   35 ar
    43   44   43 1
    44   45    3 1
    45   46   45 1
    46   47   45 1
    47   48   45 1
    48   49   33 1
    49   50   49 1
    50   51   50 ar
    51   52   51 1
    52   53   51 ar
    53   54   53 1
    54   55   53 ar
    55   56   55 ar
    56   57   56 1
    57   58   50 ar
    58   59   58 1
    59   60    4 1
    60   61   60 1
    61   62   60 1
    62   63   60 1
    63    5   21 1
    64   17   19 ar
    65   20   21 1
    66   29   31 ar
    67   41   43 ar
    68   56   58 ar
@<TRIPOS>SUBSTRUCTURE
     1 RES1 1

@<TRIPOS>CRYSIN
  21.9410   17.2330   15.4040  90.0000 122.1930  90.0000  15 1

