# MOL2 file generated by ConQuest
# Please check atom types

@<TRIPOS>MOLECULE
FULYEQ10
    28    28     1
SMALL
NO_CHARGES
****
Generated from CSD

@<TRIPOS>ATOM
      1 O1         4.7346    9.3887    3.4276 O.2       1 RES1    0.0000
      2 O2         6.2106    7.8750    3.0464 O.2       1 RES1    0.0000
      3 O3         3.7542    6.3118    2.4655 O.2       1 RES1    0.0000
      4 O4         5.1213    5.3009    1.1496 O.2       1 RES1    0.0000
      5 N1         5.3348    8.6493    2.6856 N.pl3     1 RES1    0.0000
      6 N2         4.4665    6.2683    1.4823 N.pl3     1 RES1    0.0000
      7 C1         4.9716    8.6598    1.2623 C.ar      1 RES1    0.0000
      8 C2         4.5645    7.4842    0.6550 C.ar      1 RES1    0.0000
      9 C3         4.2066    7.4330   -0.6769 C.ar      1 RES1    0.0000
     10 C4         4.3076    8.6229   -1.4135 C.ar      1 RES1    0.0000
     11 C5         4.7225    9.8144   -0.8055 C.ar      1 RES1    0.0000
     12 C6         5.0942    9.8474    0.5529 C.ar      1 RES1    0.0000
     13 C7         3.6540    6.1644   -1.2971 C.3       1 RES1    0.0000
     14 C8         3.9650    8.5841   -2.8860 C.3       1 RES1    0.0000
     15 C9         4.8102   11.0905   -1.6132 C.3       1 RES1    0.0000
     16 C10        5.6546   11.0987    1.1783 C.3       1 RES1    0.0000
     17 H1         3.1611    6.6020   -2.1532 H         1 RES1    0.0000
     18 H2         2.9124    5.7721   -0.6187 H         1 RES1    0.0000
     19 H3         4.3036    5.3650   -1.6238 H         1 RES1    0.0000
     20 H4         4.3675    9.4403   -3.4071 H         1 RES1    0.0000
     21 H5         2.8857    8.5936   -2.9556 H         1 RES1    0.0000
     22 H6         4.3467    7.6784   -3.3338 H         1 RES1    0.0000
     23 H7         4.3427   11.0596   -2.5790 H         1 RES1    0.0000
     24 H8         5.8381   11.4063   -1.7176 H         1 RES1    0.0000
     25 H9         4.2808   11.7913   -0.9839 H         1 RES1    0.0000
     26 H10        6.0988   11.8456    0.5370 H         1 RES1    0.0000
     27 H11        6.3979   10.7329    1.8726 H         1 RES1    0.0000
     28 H12        4.8357   11.5382    1.7266 H         1 RES1    0.0000
@<TRIPOS>BOND
     1    1    5 2
     2    2    5 2
     3    3    6 2
     4    4    6 2
     5    5    7 1
     6    6    8 1
     7    7    8 ar
     8    8    9 ar
     9    9   10 ar
    10   10   11 ar
    11   11   12 ar
    12   12    7 ar
    13   13    9 1
    14   14   10 1
    15   15   11 1
    16   16   12 1
    17   17   13 1
    18   18   13 1
    19   19   13 1
    20   20   14 1
    21   21   14 1
    22   22   14 1
    23   23   15 1
    24   24   15 1
    25   25   15 1
    26   26   16 1
    27   27   16 1
    28   28   16 1
@<TRIPOS>SUBSTRUCTURE
     1 RES1 1

@<TRIPOS>CRYSIN
   8.3270    8.7340    8.4530  63.6000  97.0000 100.4000   2 1

