# MOL2 file generated by ConQuest
# Please check atom types

@<TRIPOS>MOLECULE
FUMBOE
    36    37     1
SMALL
NO_CHARGES
****
Generated from CSD

@<TRIPOS>ATOM
      1 O1         4.2247    4.1064    6.4666 O.3       1 RES1    0.0000
      2 O2         5.7329    5.7781    6.5699 O.2       1 RES1    0.0000
      3 O3         1.6146    8.9099   11.1122 O.2       1 RES1    0.0000
      4 O4         0.0893    7.4531   10.7616 O.2       1 RES1    0.0000
      5 N1         1.1938    7.9157   10.5606 N.pl3     1 RES1    0.0000
      6 C1         4.6819    5.2793    6.8941 C.2       1 RES1    0.0000
      7 C2         5.0258    3.3061    5.5018 C.3       1 RES1    0.0000
      8 C3         6.3294    2.9093    6.1457 C.3       1 RES1    0.0000
      9 C4         4.1465    2.0883    5.2906 C.3       1 RES1    0.0000
     10 C5         5.1602    4.0899    4.2078 C.ar      1 RES1    0.0000
     11 C6         6.3392    4.1338    3.5065 C.ar      1 RES1    0.0000
     12 C7         6.4253    4.8211    2.3069 C.ar      1 RES1    0.0000
     13 C8         5.3522    5.4657    1.7922 C.ar      1 RES1    0.0000
     14 C9         4.1789    5.4350    2.4730 C.ar      1 RES1    0.0000
     15 C10        4.0635    4.7422    3.6665 C.ar      1 RES1    0.0000
     16 C11        3.7373    5.9272    7.8518 C.ar      1 RES1    0.0000
     17 C12        4.1501    7.0880    8.4752 C.ar      1 RES1    0.0000
     18 C13        3.3200    7.7479    9.3569 C.ar      1 RES1    0.0000
     19 C14        2.0813    7.2240    9.6030 C.ar      1 RES1    0.0000
     20 C15        1.6402    6.0740    9.0042 C.ar      1 RES1    0.0000
     21 C16        2.4798    5.4251    8.1266 C.ar      1 RES1    0.0000
     22 H1         7.1561    3.7052    3.8756 H         1 RES1    0.0000
     23 H2         7.3379    4.8233    1.8455 H         1 RES1    0.0000
     24 H3         5.4902    5.9962    0.9638 H         1 RES1    0.0000
     25 H4         3.4383    5.8318    2.2147 H         1 RES1    0.0000
     26 H5         3.2904    4.7027    4.1832 H         1 RES1    0.0000
     27 H6         4.9096    7.4322    8.2434 H         1 RES1    0.0000
     28 H7         3.5995    8.5613    9.8019 H         1 RES1    0.0000
     29 H8         0.7942    5.7879    9.1867 H         1 RES1    0.0000
     30 H9         2.2553    4.6040    7.7308 H         1 RES1    0.0000
     31 H10        6.7646    2.2143    5.6187 H         1 RES1    0.0000
     32 H11        6.2037    2.5103    7.0131 H         1 RES1    0.0000
     33 H12        6.9897    3.6942    6.2544 H         1 RES1    0.0000
     34 H13        4.6106    1.5018    4.6754 H         1 RES1    0.0000
     35 H14        4.0158    1.6553    6.1313 H         1 RES1    0.0000
     36 H15        3.2424    2.3349    4.9420 H         1 RES1    0.0000
@<TRIPOS>BOND
     1    1    6 1
     2    2    6 2
     3    3    5 2
     4    4    5 2
     5    5   19 1
     6    6   16 1
     7    7    1 1
     8    8    7 1
     9    9    7 1
    10   10    7 1
    11   11   10 ar
    12   12   11 ar
    13   13   12 ar
    14   14   13 ar
    15   15   10 ar
    16   16   17 ar
    17   17   18 ar
    18   18   19 ar
    19   19   20 ar
    20   20   21 ar
    21   21   16 ar
    22   22   11 1
    23   23   12 1
    24   24   13 1
    25   25   14 1
    26   26   15 1
    27   27   17 1
    28   28   18 1
    29   29   20 1
    30   30   21 1
    31   31    8 1
    32   32    8 1
    33   33    8 1
    34   34    9 1
    35   35    9 1
    36   36    9 1
    37   14   15 ar
@<TRIPOS>SUBSTRUCTURE
     1 RES1 1

@<TRIPOS>CRYSIN
   6.4170   10.9620   20.5150  90.0000  91.6900  90.0000  14 1

