# MOL2 file generated by ConQuest
# Please check atom types

@<TRIPOS>MOLECULE
FUMTOW
    44    46     1
SMALL
NO_CHARGES
****
Generated from CSD

@<TRIPOS>ATOM
      1 O1         8.5555    7.1418   -1.6608 O.2       1 RES1    0.0000
      2 O2         7.3521    8.7433   -2.6488 O.3       1 RES1    0.0000
      3 O3         2.5852   10.0054    0.7578 O.2       1 RES1    0.0000
      4 O4         3.8478   11.1846   -0.5418 O.2       1 RES1    0.0000
      5 O5         7.7355   11.4744    3.0492 O.3       1 RES1    0.0000
      6 N1         5.8855    7.7115    1.6608 N.3       1 RES1    0.0000
      7 N2         3.6895   10.2246    0.2332 N.pl3     1 RES1    0.0000
      8 N3         7.0533   10.6445    2.1615 N.2       1 RES1    0.0000
      9 N4         8.3645   12.5161    2.4042 N.2       1 RES1    0.0000
     10 C1         6.8295    7.4948    0.6565 C.2       1 RES1    0.0000
     11 C2         6.8254    8.2887   -0.4376 C.2       1 RES1    0.0000
     12 C3         5.9450    9.5224   -0.5122 C.3       1 RES1    0.0000
     13 C4         4.7979    9.3873    0.4720 C.2       1 RES1    0.0000
     14 C5         4.8373    8.5488    1.5432 C.2       1 RES1    0.0000
     15 C6         6.7690   10.7783   -0.3134 C.2       1 RES1    0.0000
     16 C7         7.2583   11.1957    0.9775 C.2       1 RES1    0.0000
     17 C8         8.0742   12.3340    1.1218 C.2       1 RES1    0.0000
     18 C9         8.4817   13.1341    0.0105 C.2       1 RES1    0.0000
     19 C10        8.0133   12.7204   -1.2088 C.2       1 RES1    0.0000
     20 C11        7.1524   11.5722   -1.3454 C.2       1 RES1    0.0000
     21 C12        7.7022    6.3181    0.9451 C.3       1 RES1    0.0000
     22 C13        7.6895    7.9766   -1.5958 C.2       1 RES1    0.0000
     23 C14        8.1597    8.5996   -3.8719 C.3       1 RES1    0.0000
     24 C15        7.2382    8.9402   -5.0043 C.3       1 RES1    0.0000
     25 C16        9.3202    9.4431   -3.7592 C.3       1 RES1    0.0000
     26 C17        3.8819    8.4869    2.7052 C.3       1 RES1    0.0000
     27 H1         5.8519    7.1343    2.2647 H         1 RES1    0.0000
     28 H2         5.4416    9.5868   -1.4620 H         1 RES1    0.0000
     29 H3         9.1954   13.9219    0.0573 H         1 RES1    0.0000
     30 H4         8.3141   13.2902   -2.0067 H         1 RES1    0.0000
     31 H5         6.8344   11.3084   -2.2265 H         1 RES1    0.0000
     32 H6         7.6587    6.0815    1.7678 H         1 RES1    0.0000
     33 H7         7.4109    5.4251    0.5256 H         1 RES1    0.0000
     34 H8         8.4322    6.2425    0.5160 H         1 RES1    0.0000
     35 H9         8.2582    7.6298   -4.0707 H         1 RES1    0.0000
     36 H10        6.3886    8.2615   -4.9976 H         1 RES1    0.0000
     37 H11        6.8855    9.9583   -4.8734 H         1 RES1    0.0000
     38 H12        7.7491    8.8560   -5.9436 H         1 RES1    0.0000
     39 H13        9.9129    9.1037   -2.9240 H         1 RES1    0.0000
     40 H14        9.9008    9.3762   -4.6727 H         1 RES1    0.0000
     41 H15        9.0297   10.4662   -3.5929 H         1 RES1    0.0000
     42 H16        3.8549    7.5059    3.1725 H         1 RES1    0.0000
     43 H17        3.5141    9.2895    2.8667 H         1 RES1    0.0000
     44 H18        3.0467    7.8651    2.3889 H         1 RES1    0.0000
@<TRIPOS>BOND
     1    1   22 2
     2    2   22 1
     3    3    7 2
     4    4    7 2
     5    5    8 1
     6    6   10 1
     7    7   13 1
     8    8   16 2
     9    9    5 1
    10   10   11 2
    11   11   12 1
    12   12   13 1
    13   13   14 2
    14   14    6 1
    15   15   12 1
    16   16   15 1
    17   17    9 2
    18   18   17 1
    19   19   18 2
    20   20   15 2
    21   21   10 1
    22   22   11 1
    23   23    2 1
    24   24   23 1
    25   25   23 1
    26   26   14 1
    27   27    6 1
    28   28   12 1
    29   29   18 1
    30   30   19 1
    31   31   20 1
    32   32   21 1
    33   33   21 1
    34   34   21 1
    35   35   23 1
    36   36   24 1
    37   37   24 1
    38   38   24 1
    39   39   25 1
    40   40   25 1
    41   41   25 1
    42   42   26 1
    43   43   26 1
    44   44   26 1
    45   16   17 1
    46   19   20 1
@<TRIPOS>SUBSTRUCTURE
     1 RES1 1

@<TRIPOS>CRYSIN
  14.4830   12.3860   12.1180  90.0000 127.9500  90.0000   9 1

