# MOL2 file generated by ConQuest
# Please check atom types

@<TRIPOS>MOLECULE
FUPGOM
    63    67     1
SMALL
NO_CHARGES
****
Generated from CSD

@<TRIPOS>ATOM
      1 C1         6.0332   11.1836    3.9588 C.2       1 RES1    0.0000
      2 C2         6.6168   12.5375    3.7551 C.3       1 RES1    0.0000
      3 C3         5.5905   13.5526    4.2773 C.3       1 RES1    0.0000
      4 C4         5.0896   13.2226    5.6697 C.3       1 RES1    0.0000
      5 C5         4.5137   11.7962    5.7966 C.3       1 RES1    0.0000
      6 C6         3.2487   11.6260    4.9775 C.3       1 RES1    0.0000
      7 C7         2.6337   10.2321    5.0828 C.3       1 RES1    0.0000
      8 C8         3.5853    9.1727    5.5874 C.3       1 RES1    0.0000
      9 C9         4.9754    9.3650    4.9910 C.3       1 RES1    0.0000
     10 C10        5.5794   10.7574    5.3324 C.3       1 RES1    0.0000
     11 N1         5.6371   10.4452    3.0062 N.2       1 RES1    0.0000
     12 O1         4.8841    9.3487    3.5486 O.3       1 RES1    0.0000
     13 O2         6.2064   13.3898    6.5481 O.3       1 RES1    0.0000
     14 C11        5.8435   13.6665    7.9042 C.3       1 RES1    0.0000
     15 C12        7.0787   13.8145    8.7286 C.ar      1 RES1    0.0000
     16 C13        8.2896   14.1829    8.1767 C.ar      1 RES1    0.0000
     17 C14        9.3966   14.3768    8.9782 C.ar      1 RES1    0.0000
     18 C15        9.3205   14.2036   10.3221 C.ar      1 RES1    0.0000
     19 C16        8.1405   13.8263   10.8753 C.ar      1 RES1    0.0000
     20 C17        7.0291   13.6221   10.0900 C.ar      1 RES1    0.0000
     21 O3         2.2323   12.4975    5.4606 O.3       1 RES1    0.0000
     22 C18        1.0953   11.7385    5.8681 C.3       1 RES1    0.0000
     23 C19        0.6273   12.2386    7.1985 C.3       1 RES1    0.0000
     24 C20        0.0420   11.8021    4.8008 C.3       1 RES1    0.0000
     25 O4         1.5871   10.4023    6.0381 O.3       1 RES1    0.0000
     26 O5         3.1687    7.8631    5.2487 O.3       1 RES1    0.0000
     27 C21        5.8344    8.1813    5.4673 C.2       1 RES1    0.0000
     28 O6         5.9245    7.8927    6.6412 O.2       1 RES1    0.0000
     29 O7         6.4177    7.5228    4.4931 O.3       1 RES1    0.0000
     30 C22        7.1885    6.3627    4.9114 C.3       1 RES1    0.0000
     31 C23        6.7756   10.6213    6.2742 C.2       1 RES1    0.0000
     32 O8         7.8904   10.4541    5.8910 O.2       1 RES1    0.0000
     33 O9         6.4114   10.6287    7.5560 O.3       1 RES1    0.0000
     34 C24        7.4733   10.3446    8.5032 C.3       1 RES1    0.0000
     35 H1         7.4497   12.5922    4.2908 H         1 RES1    0.0000
     36 H2         6.8414   12.7106    2.8065 H         1 RES1    0.0000
     37 H3         6.0150   14.4123    4.3042 H         1 RES1    0.0000
     38 H4         4.8413   13.5836    3.6566 H         1 RES1    0.0000
     39 H5         4.3656   13.8500    5.8964 H         1 RES1    0.0000
     40 H6         4.3187   11.6452    6.6790 H         1 RES1    0.0000
     41 H7         3.4144   11.8524    4.0209 H         1 RES1    0.0000
     42 H8         2.2336    9.9584    4.2098 H         1 RES1    0.0000
     43 H9         3.6069    9.2481    6.5845 H         1 RES1    0.0000
     44 H10        5.3054   14.4419    7.9069 H         1 RES1    0.0000
     45 H11        5.2668   12.9770    8.2577 H         1 RES1    0.0000
     46 H12        8.3592   14.2199    7.2052 H         1 RES1    0.0000
     47 H13       10.1439   14.5307    8.5815 H         1 RES1    0.0000
     48 H14       10.1054   14.3087   10.8348 H         1 RES1    0.0000
     49 H15        8.0706   13.7168   11.7523 H         1 RES1    0.0000
     50 H16        6.2093   13.2433   10.4300 H         1 RES1    0.0000
     51 H17        1.3475   12.1335    7.8529 H         1 RES1    0.0000
     52 H18       -0.1533   11.7784    7.5156 H         1 RES1    0.0000
     53 H19        0.3293   13.2433    7.0568 H         1 RES1    0.0000
     54 H20        0.4308   11.4381    3.9399 H         1 RES1    0.0000
     55 H21       -0.1792   12.7254    4.6011 H         1 RES1    0.0000
     56 H22       -0.7268   11.3049    5.0464 H         1 RES1    0.0000
     57 H23        2.6072    7.6944    5.7345 H         1 RES1    0.0000
     58 H24        7.6164    6.0668    4.0074 H         1 RES1    0.0000
     59 H25        6.6710    5.7412    5.3432 H         1 RES1    0.0000
     60 H26        7.9224    6.6143    5.4916 H         1 RES1    0.0000
     61 H27        7.0578   10.5799    9.3776 H         1 RES1    0.0000
     62 H28        8.2387   10.9498    8.2712 H         1 RES1    0.0000
     63 H29        7.8343    9.3813    8.3656 H         1 RES1    0.0000
@<TRIPOS>BOND
     1    1    2 1
     2    2    3 1
     3    3    4 1
     4    4    5 1
     5    5    6 1
     6    6    7 1
     7    7    8 1
     8    8    9 1
     9    9   10 1
    10   10    1 1
    11   11    1 2
    12   12    9 1
    13   13    4 1
    14   14   13 1
    15   15   14 1
    16   16   15 ar
    17   17   16 ar
    18   18   17 ar
    19   19   18 ar
    20   20   15 ar
    21   21    6 1
    22   22   21 1
    23   23   22 1
    24   24   22 1
    25   25    7 1
    26   26    8 1
    27   27    9 1
    28   28   27 2
    29   29   27 1
    30   30   29 1
    31   31   10 1
    32   32   31 2
    33   33   31 1
    34   34   33 1
    35   35    2 1
    36   36    2 1
    37   37    3 1
    38   38    3 1
    39   39    4 1
    40   40    5 1
    41   41    6 1
    42   42    7 1
    43   43    8 1
    44   44   14 1
    45   45   14 1
    46   46   16 1
    47   47   17 1
    48   48   18 1
    49   49   19 1
    50   50   20 1
    51   51   23 1
    52   52   23 1
    53   53   23 1
    54   54   24 1
    55   55   24 1
    56   56   24 1
    57   57   26 1
    58   58   30 1
    59   59   30 1
    60   60   30 1
    61   61   34 1
    62   62   34 1
    63   63   34 1
    64    5   10 1
    65   11   12 1
    66   19   20 ar
    67   22   25 1
@<TRIPOS>SUBSTRUCTURE
     1 RES1 1

@<TRIPOS>CRYSIN
  11.6270   14.7970   14.2610  90.0000 108.8900  90.0000  14 1

