# MOL2 file generated by ConQuest
# Please check atom types

@<TRIPOS>MOLECULE
FUPJUV
    30    31     1
SMALL
NO_CHARGES
****
Generated from CSD

@<TRIPOS>ATOM
      1 N1         0.6421    1.7115    6.3871 N.pl3     1 RES1    0.0000
      2 O1         1.2386    1.7115    7.5126 O.2       1 RES1    0.0000
      3 N2         1.2954    1.7115    5.2554 N.2       1 RES1    0.0000
      4 N3         0.3106    1.7115    4.2929 N.am      1 RES1    0.0000
      5 C1        -0.9526    1.7115    4.8618 C.ar      1 RES1    0.0000
      6 C2        -2.2366    1.7115    4.3298 C.ar      1 RES1    0.0000
      7 C3        -3.2793    1.7115    5.2349 C.ar      1 RES1    0.0000
      8 C4        -3.0535    1.7115    6.6126 C.ar      1 RES1    0.0000
      9 C5        -1.7848    1.7115    7.1426 C.ar      1 RES1    0.0000
     10 C6        -0.7424    1.7115    6.2180 C.ar      1 RES1    0.0000
     11 C7         0.5850    1.7115    2.9152 C.2       1 RES1    0.0000
     12 O2        -0.3093    1.7115    2.1249 O.2       1 RES1    0.0000
     13 O3         1.8834    1.7115    2.7051 O.3       1 RES1    0.0000
     14 C8         2.3932    1.7115    1.2834 C.3       1 RES1    0.0000
     15 C9         3.8935    1.7115    1.4935 C.3       1 RES1    0.0000
     16 C10        1.9610    0.4512    0.5986 C.3       1 RES1    0.0000
     17 H1        -2.5643    1.7115    3.4032 H         1 RES1    0.0000
     18 H2        -4.2963    1.7115    4.8444 H         1 RES1    0.0000
     19 H3        -3.8779    1.7115    7.4070 H         1 RES1    0.0000
     20 H4        -1.6494    1.7115    8.2681 H         1 RES1    0.0000
     21 H5         2.1484    0.2807   -0.2798 H         1 RES1    0.0000
     22 H6         2.1498   -0.2807    1.1204 H         1 RES1    0.0000
     23 H7         0.9044    0.5744    0.5597 H         1 RES1    0.0000
     24 H8         4.0214    2.5673    1.9814 H         1 RES1    0.0000
     25 H9         4.3664    1.7115    0.5597 H         1 RES1    0.0000
     26 C10C       1.9610    2.9718    0.5986 C.3       1 RES1    0.0000
     27 H8C        4.0214    0.8558    1.9814 H         1 RES1    0.0000
     28 H5C        2.1484    3.1423   -0.2798 H         1 RES1    0.0000
     29 H6C        2.1498    3.7037    1.1204 H         1 RES1    0.0000
     30 H7C        0.9044    2.8486    0.5597 H         1 RES1    0.0000
@<TRIPOS>BOND
     1    1    2 1
     2    3    1 2
     3    4    3 1
     4    5    4 1
     5    6    5 ar
     6    7    6 ar
     7    8    7 ar
     8    9    8 ar
     9   10    1 1
    10   11    4 1
    11   12   11 2
    12   13   11 1
    13   14   13 1
    14   15   14 1
    15   16   14 1
    16   17    6 1
    17   18    7 1
    18   19    8 1
    19   20    9 1
    20   21   16 1
    21   22   16 1
    22   23   16 1
    23   24   15 1
    24   25   15 1
    25   26   14 1
    26   27   15 1
    27   28   26 1
    28   29   26 1
    29   30   26 1
    30    5   10 ar
    31    9   10 ar
@<TRIPOS>SUBSTRUCTURE
     1 RES1 1

@<TRIPOS>CRYSIN
   8.3220    6.8460   10.5480  90.0000 103.6400  90.0000  11 1

