# MOL2 file generated by ConQuest
# Please check atom types

@<TRIPOS>MOLECULE
FUPKAC
    31    33     1
SMALL
NO_CHARGES
****
Generated from CSD

@<TRIPOS>ATOM
      1 N1         4.2881   11.0867    3.7016 N.pl3     1 RES1    0.0000
      2 O1         4.8066   11.5337    4.7656 O.2       1 RES1    0.0000
      3 N2         4.9148   10.2790    2.8926 N.2       1 RES1    0.0000
      4 N3         4.0145    9.9956    1.8925 N.am      1 RES1    0.0000
      5 C1         1.6127   10.6957    1.4049 C.ar      1 RES1    0.0000
      6 C2         0.6147   11.4731    1.9658 C.ar      1 RES1    0.0000
      7 C3         0.8011   12.2065    3.1263 C.ar      1 RES1    0.0000
      8 C4         1.9960   12.1823    3.8205 C.ar      1 RES1    0.0000
      9 C5         2.9895   11.3670    3.2602 C.ar      1 RES1    0.0000
     10 C6         2.8196   10.6639    2.0935 C.ar      1 RES1    0.0000
     11 C7         4.3331    9.1530    0.8218 C.2       1 RES1    0.0000
     12 O2         3.5170    8.8014    0.0344 O.2       1 RES1    0.0000
     13 O3         5.6167    8.8408    0.8763 O.3       1 RES1    0.0000
     14 C8         6.0841    7.9665   -0.2166 C.3       1 RES1    0.0000
     15 C9         7.3903    7.3936    0.2032 C.ar      1 RES1    0.0000
     16 C10        7.4714    6.6753    1.3105 C.ar      1 RES1    0.0000
     17 C11        8.5866    6.0828    1.7270 C.ar      1 RES1    0.0000
     18 C12        9.7034    6.2450    0.9940 C.ar      1 RES1    0.0000
     19 C13        9.7755    6.9724   -0.1388 C.ar      1 RES1    0.0000
     20 C14        8.4814    7.5906   -0.5997 C.ar      1 RES1    0.0000
     21 H1         1.4790   10.2123    0.5964 H         1 RES1    0.0000
     22 H2        -0.2360   11.5004    1.5515 H         1 RES1    0.0000
     23 H3         0.0902   12.7536    3.4473 H         1 RES1    0.0000
     24 H4         2.1328   12.6748    4.6179 H         1 RES1    0.0000
     25 H5         5.4559    7.2694   -0.3559 H         1 RES1    0.0000
     26 H6         6.1924    8.4696   -1.0073 H         1 RES1    0.0000
     27 H7         6.6884    6.5738    1.8358 H         1 RES1    0.0000
     28 H8         8.5911    5.5812    2.5266 H         1 RES1    0.0000
     29 H9        10.4879    5.7949    1.2794 H         1 RES1    0.0000
     30 H10       10.5886    7.0996   -0.6008 H         1 RES1    0.0000
     31 H11        8.4198    8.0892   -1.4049 H         1 RES1    0.0000
@<TRIPOS>BOND
     1    1    2 1
     2    3    1 2
     3    4    3 1
     4    5    6 ar
     5    6    7 ar
     6    7    8 ar
     7    8    9 ar
     8    9    1 1
     9   10    4 1
    10   11    4 1
    11   12   11 2
    12   13   11 1
    13   14   13 1
    14   15   14 1
    15   16   15 ar
    16   17   16 ar
    17   18   17 ar
    18   19   18 ar
    19   20   15 ar
    20   21    5 1
    21   22    6 1
    22   23    7 1
    23   24    8 1
    24   25   14 1
    25   26   14 1
    26   27   16 1
    27   28   17 1
    28   29   18 1
    29   30   19 1
    30   31   20 1
    31    5   10 ar
    32    9   10 ar
    33   19   20 ar
@<TRIPOS>SUBSTRUCTURE
     1 RES1 1

@<TRIPOS>CRYSIN
  15.0300   15.1540    5.5530  90.0000  90.0000  90.0000  19 1

