# MOL2 file generated by ConQuest
# Please check atom types

@<TRIPOS>MOLECULE
FUPLAF
    54    56     2
SMALL
NO_CHARGES
****
Generated from CSD

@<TRIPOS>ATOM
      1 C1        -4.0875    6.4482    7.2581 C.ar      1 RES1    0.0000
      2 H1        -4.9924    6.4591    7.5508 H         1 RES1    0.0000
      3 C2        -3.0729    6.5036    8.1934 C.ar      1 RES1    0.0000
      4 H2        -3.2774    6.5565    9.1209 H         1 RES1    0.0000
      5 C3        -1.7536    6.4811    7.7675 C.ar      1 RES1    0.0000
      6 C4         3.6346    6.5011    7.3497 C.ar      1 RES1    0.0000
      7 C5         4.7028    7.3211    6.9626 C.ar      1 RES1    0.0000
      8 H3         4.6559    7.8085    6.1491 H         1 RES1    0.0000
      9 C6         5.8203    7.4197    7.7613 C.ar      1 RES1    0.0000
     10 H4         6.5277    8.0070    7.5186 H         1 RES1    0.0000
     11 C7         5.9134    6.6667    8.9104 C.ar      1 RES1    0.0000
     12 H5         6.7091    6.6874    9.4304 H         1 RES1    0.0000
     13 C8         4.8500    5.8841    9.3066 C.ar      1 RES1    0.0000
     14 H6         4.9046    5.3915   10.1164 H         1 RES1    0.0000
     15 C9         3.7088    5.8093    8.5339 C.ar      1 RES1    0.0000
     16 C10       -0.8717    6.3876    9.9740 C.ar      1 RES1    0.0000
     17 C11       -1.2911    5.1543   10.4443 C.ar      1 RES1    0.0000
     18 H7        -1.5106    4.4593    9.8341 H         1 RES1    0.0000
     19 C12       -1.3854    4.9435   11.7954 C.ar      1 RES1    0.0000
     20 H8        -1.6843    4.1054   12.1298 H         1 RES1    0.0000
     21 C13       -1.0456    5.9492   12.6597 C.ar      1 RES1    0.0000
     22 H9        -1.0971    5.7951   13.5958 H         1 RES1    0.0000
     23 C14       -0.6343    7.1780   12.2016 C.ar      1 RES1    0.0000
     24 H10       -0.4102    7.8659   12.8158 H         1 RES1    0.0000
     25 C15       -0.5417    7.4133   10.8269 C.ar      1 RES1    0.0000
     26 H11       -0.2606    8.2572   10.4928 H         1 RES1    0.0000
     27 C16        2.9628    2.1629   11.1243 C.ar      1 RES1    0.0000
     28 H12        3.2873    1.2700   11.1194 H         1 RES1    0.0000
     29 N1         1.8075    6.5804    3.1169 N.pl3     1 RES1    0.0000
     30 N2         0.1918    6.4624    4.8106 N.2       1 RES1    0.0000
     31 N3        -0.0990    6.3831    6.0532 N.pl3     1 RES1    0.0000
     32 H13        0.5261    6.3160    6.6691 H         1 RES1    0.0000
     33 O1         2.9433    6.9356    2.7771 O.2       1 RES1    0.0000
     34 O2         0.9452    6.3334    2.3227 O.2       1 RES1    0.0000
     35 O3         2.5089    5.2155    8.9648 O.3       1 RES1    0.0000
     36 O4        -0.6775    6.5758    8.5986 O.3       1 RES1    0.0000
     37 N4         2.6020    6.5275    5.3036 N.2       1 RES1    0.0000
     38 N5         2.4494    6.4018    6.5840 N.2       1 RES1    0.0000
     39 C17       -1.4540    6.4082    6.3928 C.ar      1 RES1    0.0000
     40 C18       -2.4886    6.3586    5.4735 C.ar      1 RES1    0.0000
     41 H14       -2.2899    6.3115    4.5468 H         1 RES1    0.0000
     42 C19       -3.8135    6.3766    5.8933 C.ar      1 RES1    0.0000
     43 H15       -4.5211    6.3412    5.2600 H         1 RES1    0.0000
     44 C20        1.5242    6.5036    4.5480 C.2       1 RES1    0.0000
     45 C21        2.6230    4.2459    9.9884 C.ar      1 RES1    0.0000
     46 C22        2.0451    4.6869   11.1293 C.ar      1 RES1    0.0000
     47 H16        1.6818    5.5624   11.1862 H         1 RES1    0.0000
     48 C23        3.1271    2.9656    9.9455 C.ar      1 RES1    0.0000
     49 H17        3.5616    2.6278    9.1729 H         1 RES1    0.0000
     50 C24        2.0015    3.8037   12.2338 C.ar      1 RES1    0.0000
     51 H18        1.6557    4.1047   13.0634 H         1 RES1    0.0000
     52 C25        2.4315    2.5826   12.1174 C.ar      1 RES1    0.0000
     53 H19        2.3198    1.9927   12.8554 H         1 RES1    0.0000
     54 O5         2.7647    4.8029    8.7197 Du        2 SUP2    0.0000
@<TRIPOS>BOND
     1    1    2 1
     2    3    1 ar
     3    4    3 1
     4    5    3 ar
     5    6    7 ar
     6    7    8 1
     7    9    7 ar
     8   10    9 1
     9   11    9 ar
    10   12   11 1
    11   13   11 ar
    12   14   13 1
    13   15    6 ar
    14   16   17 ar
    15   17   18 1
    16   19   17 ar
    17   20   19 1
    18   21   19 ar
    19   22   21 1
    20   23   21 ar
    21   24   23 1
    22   25   16 ar
    23   26   25 1
    24   27   28 1
    25   29   33 2
    26   30   31 1
    27   31   32 1
    28   34   29 2
    29   35   15 1
    30   36    5 1
    31   37   38 2
    32   38    6 1
    33   39    5 ar
    34   40   39 ar
    35   41   40 1
    36   42    1 ar
    37   43   42 1
    38   44   29 1
    39   45   35 1
    40   46   45 ar
    41   47   46 1
    42   48   27 ar
    43   49   48 1
    44   50   46 ar
    45   51   50 1
    46   52   27 ar
    47   53   52 1
    48   13   15 ar
    49   16   36 1
    50   23   25 ar
    51   30   44 2
    52   31   39 1
    53   37   44 1
    54   40   42 ar
    55   45   48 ar
    56   50   52 ar
@<TRIPOS>SUBSTRUCTURE
     1 RES1 1
     2 SUP2 54

@<TRIPOS>CRYSIN
  13.7010    6.4469   25.3670  90.0000 102.5100  90.0000  14 1

