# MOL2 file generated by ConQuest
# Please check atom types

@<TRIPOS>MOLECULE
FUPSUE
    52    54     1
SMALL
NO_CHARGES
****
Generated from CSD

@<TRIPOS>ATOM
      1 C1         4.4267    2.2126   11.9821 C.2       1 RES1    0.0000
      2 N1         4.8971    3.4781   12.0886 N.2       1 RES1    0.0000
      3 C2         4.0422    4.4440   11.3187 C.3       1 RES1    0.0000
      4 C3         3.3750    3.4792   10.3100 C.3       1 RES1    0.0000
      5 N2         3.4666    2.1901   11.0598 N.2       1 RES1    0.0000
      6 O1         5.8136    3.8755   12.8842 O.2       1 RES1    0.0000
      7 C4         3.0852    5.0455   12.3178 C.3       1 RES1    0.0000
      8 C5         4.9028    5.5479   10.7227 C.3       1 RES1    0.0000
      9 C6         4.1762    3.2646    9.0317 C.3       1 RES1    0.0000
     10 C7         1.9271    3.7776    9.9905 C.3       1 RES1    0.0000
     11 O2         2.8006    1.1688   10.6862 O.2       1 RES1    0.0000
     12 C8         4.8889    1.0709   12.7642 C.2       1 RES1    0.0000
     13 C9         6.2261    0.9671   13.1377 C.2       1 RES1    0.0000
     14 N3         3.9805    0.1120   13.1053 N.2       1 RES1    0.0000
     15 H1         2.5176    5.6682   11.8796 H         1 RES1    0.0000
     16 H2         2.5589    4.3555   12.7062 H         1 RES1    0.0000
     17 H3         3.5763    5.4901   12.9988 H         1 RES1    0.0000
     18 H4         4.3524    6.1518   10.2386 H         1 RES1    0.0000
     19 H5         5.3477    6.0138   11.4198 H         1 RES1    0.0000
     20 H6         5.5461    5.1658   10.1361 H         1 RES1    0.0000
     21 H7         4.1553    4.0571    8.5085 H         1 RES1    0.0000
     22 H8         5.0756    3.0558    9.2542 H         1 RES1    0.0000
     23 H9         3.7968    2.5475    8.5369 H         1 RES1    0.0000
     24 H10        1.8698    4.5973    9.5131 H         1 RES1    0.0000
     25 H11        1.5700    3.0759    9.4578 H         1 RES1    0.0000
     26 H12        1.4322    3.8460   10.7982 H         1 RES1    0.0000
     27 N3B        6.6406   -0.1120   13.8631 N.2       1 RES1    0.0000
     28 C8B        5.7322   -1.0709   14.2043 C.2       1 RES1    0.0000
     29 C1B        6.1944   -2.2126   14.9864 C.2       1 RES1    0.0000
     30 N1B        5.7240   -3.4781   14.8798 N.2       1 RES1    0.0000
     31 C2B        6.5789   -4.4440   15.6498 C.3       1 RES1    0.0000
     32 C3B        7.2461   -3.4792   16.6584 C.3       1 RES1    0.0000
     33 N2B        7.1546   -2.1901   15.9087 N.2       1 RES1    0.0000
     34 O2B        7.8206   -1.1688   16.2822 O.2       1 RES1    0.0000
     35 C6B        6.4449   -3.2646   17.9367 C.3       1 RES1    0.0000
     36 H7B        6.4658   -4.0571   18.4599 H         1 RES1    0.0000
     37 H8B        5.5455   -3.0558   17.7142 H         1 RES1    0.0000
     38 H9B        6.8243   -2.5475   18.4316 H         1 RES1    0.0000
     39 C7B        8.6940   -3.7776   16.9780 C.3       1 RES1    0.0000
     40 H10B       8.7513   -4.5973   17.4553 H         1 RES1    0.0000
     41 H11B       9.0511   -3.0759   17.5106 H         1 RES1    0.0000
     42 H12B       9.1889   -3.8460   16.1703 H         1 RES1    0.0000
     43 C4B        7.5359   -5.0455   14.6506 C.3       1 RES1    0.0000
     44 H1B        8.1035   -5.6682   15.0888 H         1 RES1    0.0000
     45 H2B        8.0622   -4.3555   14.2623 H         1 RES1    0.0000
     46 H3B        7.0448   -5.4901   13.9697 H         1 RES1    0.0000
     47 C5B        5.7183   -5.5479   16.2458 C.3       1 RES1    0.0000
     48 H4B        6.2687   -6.1518   16.7299 H         1 RES1    0.0000
     49 H5B        5.2734   -6.0138   15.5487 H         1 RES1    0.0000
     50 H6B        5.0750   -5.1658   16.8324 H         1 RES1    0.0000
     51 O1B        4.8076   -3.8755   14.0843 O.2       1 RES1    0.0000
     52 C9B        4.3950   -0.9671   13.8308 C.2       1 RES1    0.0000
@<TRIPOS>BOND
     1    1    2 1
     2    2    3 1
     3    3    4 1
     4    4    5 1
     5    5    1 1
     6    6    2 1
     7    7    3 1
     8    8    3 1
     9    9    4 1
    10   10    4 1
    11   11    5 1
    12   12    1 1
    13   13   12 1
    14   14   12 1
    15   15    7 1
    16   16    7 1
    17   17    7 1
    18   18    8 1
    19   19    8 1
    20   20    8 1
    21   21    9 1
    22   22    9 1
    23   23    9 1
    24   24   10 1
    25   25   10 1
    26   26   10 1
    27   27   13 1
    28   28   27 1
    29   29   28 1
    30   30   29 1
    31   31   30 1
    32   32   31 1
    33   33   29 1
    34   34   33 1
    35   35   32 1
    36   36   35 1
    37   37   35 1
    38   38   35 1
    39   39   32 1
    40   40   39 1
    41   41   39 1
    42   42   39 1
    43   43   31 1
    44   44   43 1
    45   45   43 1
    46   46   43 1
    47   47   31 1
    48   48   47 1
    49   49   47 1
    50   50   47 1
    51   51   30 1
    52   52   14 1
    53   28   52 1
    54   32   33 1
@<TRIPOS>SUBSTRUCTURE
     1 RES1 1

@<TRIPOS>CRYSIN
   6.1920   11.7940   13.5130  90.0000  93.7400  90.0000  14 1

