# MOL2 file generated by ConQuest
# Please check atom types

@<TRIPOS>MOLECULE
FUPVUH
    45    48     1
SMALL
NO_CHARGES
****
Generated from CSD

@<TRIPOS>ATOM
      1 C1        -4.7438    0.7534    9.0048 C.3       1 RES1    0.0000
      2 C2        -5.8893   -0.0427    8.3824 C.3       1 RES1    0.0000
      3 C3        -7.2740    0.4545    8.6901 C.2       1 RES1    0.0000
      4 O1        -7.4889    1.6145    8.1410 O.3       1 RES1    0.0000
      5 O2        -8.0748   -0.0907    9.3647 O.2       1 RES1    0.0000
      6 C4        -8.7959    2.2033    8.2963 C.3       1 RES1    0.0000
      7 O3        -5.7878   -1.3832    8.9215 O.3       1 RES1    0.0000
      8 N1        -4.4098   -1.6118    9.2956 N.3       1 RES1    0.0000
      9 C5        -3.6516   -1.9783    8.0719 C.3       1 RES1    0.0000
     10 C6        -4.3676   -3.1764    7.4861 C.2       1 RES1    0.0000
     11 O4        -4.9879   -2.8482    6.3542 O.3       1 RES1    0.0000
     12 O5        -4.3707   -4.2679    7.9688 O.2       1 RES1    0.0000
     13 C7        -5.9171   -3.8151    5.8023 C.3       1 RES1    0.0000
     14 C8        -7.2652   -3.6007    6.3683 C.3       1 RES1    0.0000
     15 C9        -2.2235   -2.2825    8.4868 C.3       1 RES1    0.0000
     16 C10       -1.6836   -1.1146    9.2476 C.2       1 RES1    0.0000
     17 C11       -0.3593   -0.6867    9.5299 C.ar      1 RES1    0.0000
     18 C12        0.9213   -1.1519    9.1855 C.ar      1 RES1    0.0000
     19 C13        2.0251   -0.4563    9.6258 C.ar      1 RES1    0.0000
     20 C14        1.8861    0.6760   10.4092 C.ar      1 RES1    0.0000
     21 C15        0.6527    1.1715   10.7634 C.ar      1 RES1    0.0000
     22 C16       -0.4580    0.4821   10.3019 C.ar      1 RES1    0.0000
     23 N2        -1.7935    0.7401   10.4910 N.pl3     1 RES1    0.0000
     24 C17       -2.5273   -0.2259    9.8488 C.2       1 RES1    0.0000
     25 C18       -4.0114   -0.2909    9.8474 C.3       1 RES1    0.0000
     26 H1        -4.1501    1.1030    8.2991 H         1 RES1    0.0000
     27 H2        -5.0231    1.4677    9.5411 H         1 RES1    0.0000
     28 H3        -5.8168   -0.1423    7.3817 H         1 RES1    0.0000
     29 H4        -8.8316    3.1675    7.8108 H         1 RES1    0.0000
     30 H5        -9.0047    2.3243    9.3492 H         1 RES1    0.0000
     31 H6        -9.5358    1.5513    7.8559 H         1 RES1    0.0000
     32 H7        -3.6691   -1.2008    7.4240 H         1 RES1    0.0000
     33 H8        -5.8794   -3.6265    4.7395 H         1 RES1    0.0000
     34 H9        -5.5016   -4.7909    6.0084 H         1 RES1    0.0000
     35 H10       -8.0399   -4.2358    5.9674 H         1 RES1    0.0000
     36 H11       -7.4995   -2.5680    6.1538 H         1 RES1    0.0000
     37 H12       -7.1989   -3.7404    7.4367 H         1 RES1    0.0000
     38 H13       -1.6983   -2.4728    7.7063 H         1 RES1    0.0000
     39 H14       -2.2488   -3.0421    9.0048 H         1 RES1    0.0000
     40 H15        0.9803   -1.9213    8.6096 H         1 RES1    0.0000
     41 H16        2.8981   -0.8272    9.3435 H         1 RES1    0.0000
     42 H17        2.6012    1.1119   10.6985 H         1 RES1    0.0000
     43 H18        0.5299    1.9124   11.2348 H         1 RES1    0.0000
     44 H19       -2.1715    1.3610   10.8820 H         1 RES1    0.0000
     45 H20       -4.3438   -0.2580   10.7267 H         1 RES1    0.0000
@<TRIPOS>BOND
     1    1    2 1
     2    2    3 1
     3    3    4 1
     4    4    6 1
     5    5    3 2
     6    6   29 1
     7    7    2 1
     8    8    7 1
     9    9    8 1
    10   10    9 1
    11   11   10 1
    12   12   10 2
    13   13   11 1
    14   14   13 1
    15   15    9 1
    16   16   15 1
    17   17   16 1
    18   18   17 ar
    19   19   18 ar
    20   20   19 ar
    21   21   20 ar
    22   22   17 ar
    23   23   22 1
    24   24   16 2
    25   25    1 1
    26   26    1 1
    27   27    1 1
    28   28    2 1
    29   30    6 1
    30   31    6 1
    31   32    9 1
    32   33   13 1
    33   34   13 1
    34   35   14 1
    35   36   14 1
    36   37   14 1
    37   38   15 1
    38   39   15 1
    39   40   18 1
    40   41   19 1
    41   42   20 1
    42   43   21 1
    43   44   23 1
    44   45   25 1
    45    8   25 1
    46   21   22 ar
    47   23   24 1
    48   24   25 1
@<TRIPOS>SUBSTRUCTURE
     1 RES1 1

@<TRIPOS>CRYSIN
  13.7850    8.8951   15.1603  90.0000 111.4100  90.0000  14 1

