# MOL2 file generated by ConQuest
# Please check atom types

@<TRIPOS>MOLECULE
FUQBOI
    27    28     1
SMALL
NO_CHARGES
****
Generated from CSD

@<TRIPOS>ATOM
      1 O1         3.5683    1.2019    3.8696 O.3       1 RES1    0.0000
      2 O2         6.3584   -2.0115   -0.6617 O.2       1 RES1    0.0000
      3 O3         4.4437   -2.9823   -0.6814 O.2       1 RES1    0.0000
      4 N1        -1.3719    0.8009    6.4093 N.3       1 RES1    0.0000
      5 N2         5.2126   -2.1456   -0.2515 N.pl3     1 RES1    0.0000
      6 C1        -0.1253    0.8651    5.7723 C.ar      1 RES1    0.0000
      7 C2         0.9084    0.0108    6.0992 C.ar      1 RES1    0.0000
      8 H1         0.7814   -0.6335    6.7585 H         1 RES1    0.0000
      9 C3         2.1312    0.1019    5.4586 C.ar      1 RES1    0.0000
     10 H2         2.8241   -0.4751    5.6841 H         1 RES1    0.0000
     11 C4         2.3105    1.0534    4.4851 C.ar      1 RES1    0.0000
     12 C5         1.3083    1.9236    4.1664 C.ar      1 RES1    0.0000
     13 H3         1.4423    2.5728    3.5135 H         1 RES1    0.0000
     14 C6         0.1062    1.8343    4.8123 C.ar      1 RES1    0.0000
     15 H4        -0.5692    2.4378    4.6014 H         1 RES1    0.0000
     16 C7         3.8854    0.3731    2.8238 C.ar      1 RES1    0.0000
     17 C8         5.1702    0.5027    2.3274 C.ar      1 RES1    0.0000
     18 H5         5.7420    1.1465    2.6791 H         1 RES1    0.0000
     19 C9         5.6005   -0.3157    1.3199 C.ar      1 RES1    0.0000
     20 H6         6.4652   -0.2385    0.9882 H         1 RES1    0.0000
     21 C10        4.7397   -1.2518    0.8051 C.ar      1 RES1    0.0000
     22 C11        3.4584   -1.3637    1.2541 C.ar      1 RES1    0.0000
     23 H7         2.8827   -1.9870    0.8733 H         1 RES1    0.0000
     24 C12        3.0172   -0.5479    2.2784 C.ar      1 RES1    0.0000
     25 H8         2.1458   -0.6191    2.5963 H         1 RES1    0.0000
     26 H9        -1.3855    0.0630    6.9375 H         1 RES1    0.0000
     27 H10       -2.0538    1.0529    5.9747 H         1 RES1    0.0000
@<TRIPOS>BOND
     1    1   11 1
     2    2    5 2
     3    3    5 2
     4    4    6 1
     5    5   21 1
     6    6    7 ar
     7    7    8 1
     8    9    7 ar
     9   10    9 1
    10   11    9 ar
    11   12   11 ar
    12   13   12 1
    13   14    6 ar
    14   15   14 1
    15   16    1 1
    16   17   16 ar
    17   18   17 1
    18   19   17 ar
    19   20   19 1
    20   21   19 ar
    21   22   21 ar
    22   23   22 1
    23   24   16 ar
    24   25   24 1
    25   26    4 1
    26   27    4 1
    27   12   14 ar
    28   22   24 ar
@<TRIPOS>SUBSTRUCTURE
     1 RES1 1

@<TRIPOS>CRYSIN
   7.2340    8.9990   16.9070  90.0000  92.4200  90.0000  14 1

