# MOL2 file generated by ConQuest
# Please check atom types

@<TRIPOS>MOLECULE
FUQFEC
    46    49     1
SMALL
NO_CHARGES
****
Generated from CSD

@<TRIPOS>ATOM
      1 N1        10.0146    2.0746    4.5154 N.pl3     1 RES1    0.0000
      2 N2        10.4635    3.1510    3.7776 N.2       1 RES1    0.0000
      3 N3        10.9464    4.0515    4.5119 N.2       1 RES1    0.0000
      4 C1        10.8110    3.7005    5.9402 C.3       1 RES1    0.0000
      5 C2        10.4395    2.1700    5.9397 C.3       1 RES1    0.0000
      6 N4         9.4258    1.7180    6.8633 N.pl3     1 RES1    0.0000
      7 C3         8.0023    1.9804    6.7184 C.3       1 RES1    0.0000
      8 H1         7.8743    2.7605    6.1737 H         1 RES1    0.0000
      9 H2         7.6144    2.1276    7.5841 H         1 RES1    0.0000
     10 H3         7.5786    1.2263    6.3019 H         1 RES1    0.0000
     11 C4         9.8845    0.6342    7.6137 C.ar      1 RES1    0.0000
     12 C5         9.2496   -0.1497    8.5473 C.ar      1 RES1    0.0000
     13 H4         8.3270   -0.0053    8.7699 H         1 RES1    0.0000
     14 C6         9.9819   -1.1526    9.1583 C.ar      1 RES1    0.0000
     15 H5         9.5607   -1.7134    9.8139 H         1 RES1    0.0000
     16 C7        11.2936   -1.3571    8.8412 C.ar      1 RES1    0.0000
     17 H6        11.7826   -2.0441    9.3000 H         1 RES1    0.0000
     18 C8        11.9439   -0.5954    7.8723 C.ar      1 RES1    0.0000
     19 H7        12.8622   -0.7555    7.6428 H         1 RES1    0.0000
     20 C9        11.2105    0.3998    7.2551 C.ar      1 RES1    0.0000
     21 N5        11.5621    1.3070    6.2722 N.pl3     1 RES1    0.0000
     22 C10       12.6615    1.0667    5.3639 C.3       1 RES1    0.0000
     23 H8        12.7461    1.8085    4.7605 H         1 RES1    0.0000
     24 H9        12.4930    0.2649    4.8635 H         1 RES1    0.0000
     25 H10       13.4749    0.9667    5.8640 H         1 RES1    0.0000
     26 C11        9.4046    1.0134    3.8307 C.ar      1 RES1    0.0000
     27 C12        8.6177    1.2444    2.6972 C.ar      1 RES1    0.0000
     28 N6         8.2359    2.6025    2.2715 N.pl3     1 RES1    0.0000
     29 O1         7.8003    3.3800    3.1317 O.2       1 RES1    0.0000
     30 O2         8.3380    2.8792    1.0950 O.2       1 RES1    0.0000
     31 C13        8.0855    0.1975    1.9594 C.ar      1 RES1    0.0000
     32 H11        7.5940    0.3777    1.1548 H         1 RES1    0.0000
     33 C14        8.2632   -1.0971    2.3813 C.ar      1 RES1    0.0000
     34 H12        7.8837   -1.8229    1.8805 H         1 RES1    0.0000
     35 C15        8.9867   -1.3499    3.5243 C.ar      1 RES1    0.0000
     36 H13        9.0962   -2.2533    3.8302 H         1 RES1    0.0000
     37 C16        9.5572   -0.3097    4.2332 C.ar      1 RES1    0.0000
     38 H14       10.0691   -0.5038    5.0217 H         1 RES1    0.0000
     39 C17       12.1172    4.0263    6.6440 C.3       1 RES1    0.0000
     40 H15       12.0443    3.8033    7.5749 H         1 RES1    0.0000
     41 H16       12.3041    4.9636    6.5532 H         1 RES1    0.0000
     42 H17       12.8290    3.5183    6.2481 H         1 RES1    0.0000
     43 C18        9.6957    4.5774    6.5053 C.3       1 RES1    0.0000
     44 H18        9.5739    4.3804    7.4369 H         1 RES1    0.0000
     45 H19        8.8795    4.4012    6.0317 H         1 RES1    0.0000
     46 H20        9.9323    5.5021    6.4020 H         1 RES1    0.0000
@<TRIPOS>BOND
     1    1    2 1
     2    2    3 2
     3    3    4 1
     4    4    5 1
     5    5    1 1
     6    6    5 1
     7    7    6 1
     8    8    7 1
     9    9    7 1
    10   10    7 1
    11   11    6 1
    12   12   11 ar
    13   13   12 1
    14   14   12 ar
    15   15   14 1
    16   16   14 ar
    17   17   16 1
    18   18   16 ar
    19   19   18 1
    20   20   11 ar
    21   21    5 1
    22   22   21 1
    23   23   22 1
    24   24   22 1
    25   25   22 1
    26   26    1 1
    27   27   26 ar
    28   28   27 1
    29   29   28 2
    30   30   28 2
    31   31   27 ar
    32   32   31 1
    33   33   31 ar
    34   34   33 1
    35   35   33 ar
    36   36   35 1
    37   37   26 ar
    38   38   37 1
    39   39    4 1
    40   40   39 1
    41   41   39 1
    42   42   39 1
    43   43    4 1
    44   44   43 1
    45   45   43 1
    46   46   43 1
    47   18   20 ar
    48   20   21 1
    49   35   37 ar
@<TRIPOS>SUBSTRUCTURE
     1 RES1 1

@<TRIPOS>CRYSIN
  16.5197    8.3458   13.1604  90.0000  99.2360  90.0000 231 1

