# MOL2 file generated by ConQuest
# Please check atom types

@<TRIPOS>MOLECULE
FURALA10
    39    41     1
SMALL
NO_CHARGES
****
Generated from CSD

@<TRIPOS>ATOM
      1 C1         0.6558   10.3392    9.4700 C.2       1 RES1    0.0000
      2 C2        -0.6884   10.4367    9.3666 C.2       1 RES1    0.0000
      3 C3        -0.9171   11.3237    8.3367 C.2       1 RES1    0.0000
      4 C4         0.2988   11.7434    7.8929 C.2       1 RES1    0.0000
      5 O1         1.2844   11.1213    8.5880 O.3       1 RES1    0.0000
      6 N1         1.5031    9.5472   10.3367 N.pl3     1 RES1    0.0000
      7 O2         2.6299    9.6971   10.2447 O.2       1 RES1    0.0000
      8 O3         0.9218    8.9200   11.1305 O.2       1 RES1    0.0000
      9 C5         0.6609   12.6679    6.8431 C.2       1 RES1    0.0000
     10 N2         1.8795   12.9228    6.5956 N.2       1 RES1    0.0000
     11 N3         2.1266   13.8472    5.6416 N.am      1 RES1    0.0000
     12 C6         1.1699   14.6693    4.9559 C.3       1 RES1    0.0000
     13 C7         2.0911   15.5263    4.1148 C.3       1 RES1    0.0000
     14 O4         3.4126   15.1815    4.4713 O.3       1 RES1    0.0000
     15 C8         3.4039   14.1771    5.3704 C.2       1 RES1    0.0000
     16 O5         4.3835   13.6798    5.7819 O.2       1 RES1    0.0000
     17 C9         1.7853   16.6657    3.6065 C.3       1 RES1    0.0000
     18 N4         2.4980   17.5602    2.8402 N.3       1 RES1    0.0000
     19 C10        3.7187   17.4527    2.4789 C.3       1 RES1    0.0000
     20 C11        4.4247   18.4572    1.7136 C.3       1 RES1    0.0000
     21 O6         3.7623   19.5191    1.2233 O.3       1 RES1    0.0000
     22 C12        2.6792   19.7065    1.7933 C.3       1 RES1    0.0000
     23 C13        1.9200   18.6496    2.3756 C.3       1 RES1    0.0000
     24 H1        -1.3701    9.9694    9.9289 H         1 RES1    0.0000
     25 H2        -1.7902   11.6185    7.9659 H         1 RES1    0.0000
     26 H3        -0.0627   13.1177    6.3158 H         1 RES1    0.0000
     27 H4         0.6355   15.2165    5.5951 H         1 RES1    0.0000
     28 H5         0.5390   14.1171    4.3907 H         1 RES1    0.0000
     29 H6         1.9047   15.3414    3.1390 H         1 RES1    0.0000
     30 H7         1.5155   17.2154    4.4287 H         1 RES1    0.0000
     31 H8         0.9552   16.4908    3.0536 H         1 RES1    0.0000
     32 H9         3.7607   16.5907    1.9346 H         1 RES1    0.0000
     33 H10        4.2486   17.3403    3.3571 H         1 RES1    0.0000
     34 H11        4.8311   17.9649    0.9104 H         1 RES1    0.0000
     35 H12        5.1461   18.8145    2.3234 H         1 RES1    0.0000
     36 H13        2.0673   20.1387    1.0906 H         1 RES1    0.0000
     37 H14        2.8758   20.3636    2.5700 H         1 RES1    0.0000
     38 H15        1.2788   18.3397    1.6501 H         1 RES1    0.0000
     39 H16        1.4137   19.0643    3.1769 H         1 RES1    0.0000
@<TRIPOS>BOND
     1    1    2 2
     2    2    3 1
     3    3    4 2
     4    4    5 1
     5    5    1 1
     6    6    1 1
     7    7    6 2
     8    8    6 2
     9    9    4 1
    10   10    9 2
    11   11   10 1
    12   12   11 1
    13   13   12 1
    14   14   13 1
    15   15   11 1
    16   16   15 2
    17   17   13 1
    18   18   17 1
    19   19   18 1
    20   20   19 1
    21   21   20 1
    22   22   21 1
    23   23   18 1
    24   24    2 1
    25   25    3 1
    26   26    9 1
    27   27   12 1
    28   28   12 1
    29   29   13 1
    30   30   17 1
    31   31   17 1
    32   32   19 1
    33   33   19 1
    34   34   20 1
    35   35   20 1
    36   36   22 1
    37   37   22 1
    38   38   23 1
    39   39   23 1
    40   14   15 1
    41   22   23 1
@<TRIPOS>SUBSTRUCTURE
     1 RES1 1

@<TRIPOS>CRYSIN
   6.4650   24.9860    9.6060  90.0000  99.1700  90.0000 231 1

