# MOL2 file generated by ConQuest
# Please check atom types

@<TRIPOS>MOLECULE
FURBUP
    55    60     1
SMALL
NO_CHARGES
****
Generated from CSD

@<TRIPOS>ATOM
      1 O1         2.1137    1.9314   16.6720 O.3       1 RES1    0.0000
      2 O2         6.8218   -4.7795   17.5641 O.2       1 RES1    0.0000
      3 O3         6.9710   -5.0460   15.4592 O.2       1 RES1    0.0000
      4 N1         0.3240    2.9376   15.5827 N.pl3     1 RES1    0.0000
      5 N2         6.5425   -4.4608   16.4251 N.pl3     1 RES1    0.0000
      6 C1         1.8184    1.4848   14.2684 C.2       1 RES1    0.0000
      7 C2         2.5454    0.3912   14.3739 C.2       1 RES1    0.0000
      8 C3         3.1423    0.0320   15.6464 C.ar      1 RES1    0.0000
      9 C4         3.9705   -1.1224   15.8276 C.ar      1 RES1    0.0000
     10 C5         4.3968   -1.4784   17.1280 C.ar      1 RES1    0.0000
     11 C6         3.9897   -0.6971   18.2372 C.ar      1 RES1    0.0000
     12 C7         3.2329    0.4125   18.0441 C.ar      1 RES1    0.0000
     13 C8         4.4309   -1.9346   14.7164 C.ar      1 RES1    0.0000
     14 C9         5.2592   -2.9909   14.9216 C.ar      1 RES1    0.0000
     15 C10        5.6557   -3.3032   16.2180 C.ar      1 RES1    0.0000
     16 C11        5.2496   -2.5944   17.3073 C.ar      1 RES1    0.0000
     17 C12        2.8449    0.7738   16.7536 C.ar      1 RES1    0.0000
     18 C13        2.4782    3.8085   15.1466 C.3       1 RES1    0.0000
     19 C14        1.6148    4.7955   15.9133 C.ar      1 RES1    0.0000
     20 C15        1.8888    6.0820   16.3414 C.ar      1 RES1    0.0000
     21 C16        0.9007    6.8292   16.9568 C.ar      1 RES1    0.0000
     22 C17       -0.3496    6.2845   17.1599 C.ar      1 RES1    0.0000
     23 C18       -0.6545    4.9692   16.7298 C.ar      1 RES1    0.0000
     24 C19        1.6905    2.4899   15.3915 C.3       1 RES1    0.0000
     25 C20        0.3549    4.2572   16.0945 C.ar      1 RES1    0.0000
     26 C21        2.4654    4.2188   13.6670 C.3       1 RES1    0.0000
     27 C22        3.9204    3.7147   15.6325 C.3       1 RES1    0.0000
     28 C23       -0.7845    2.0668   15.5966 C.ar      1 RES1    0.0000
     29 C24       -0.6395    0.7152   15.9571 C.ar      1 RES1    0.0000
     30 C25       -1.7683   -0.1300   15.9212 C.ar      1 RES1    0.0000
     31 C26       -2.9984    0.3954   15.5648 C.ar      1 RES1    0.0000
     32 C27       -3.1348    1.7033   15.2362 C.ar      1 RES1    0.0000
     33 C28       -2.0444    2.5475   15.2322 C.ar      1 RES1    0.0000
     34 H1         1.3004    1.7801   13.4220 H         1 RES1    0.0000
     35 H2         2.6541    0.2558   13.5614 H         1 RES1    0.0000
     36 H3         4.4235   -0.9593   19.2170 H         1 RES1    0.0000
     37 H4         2.9525    1.1192   18.8586 H         1 RES1    0.0000
     38 H5         5.6066   -3.5175   14.0991 H         1 RES1    0.0000
     39 H6         5.6066   -2.8033   18.2213 H         1 RES1    0.0000
     40 H7         4.2636   -1.5242   13.7407 H         1 RES1    0.0000
     41 H8         2.8033    6.4807   16.1901 H         1 RES1    0.0000
     42 H9         1.0446    7.8237   17.3252 H         1 RES1    0.0000
     43 H10       -1.1085    6.8111   17.7035 H         1 RES1    0.0000
     44 H11       -1.7801    4.5088   16.7278 H         1 RES1    0.0000
     45 H12        2.8353    3.6241   13.0437 H         1 RES1    0.0000
     46 H13        3.0591    5.2549   13.7008 H         1 RES1    0.0000
     47 H14        1.5562    4.4768   13.2428 H         1 RES1    0.0000
     48 H15        3.9438    3.3576   16.5485 H         1 RES1    0.0000
     49 H16        4.3702    4.5514   15.6723 H         1 RES1    0.0000
     50 H17        4.3702    2.8779   15.1346 H         1 RES1    0.0000
     51 H18        0.2985    0.3411   16.3096 H         1 RES1    0.0000
     52 H19       -1.4923   -1.1192   16.0706 H         1 RES1    0.0000
     53 H20       -3.8479   -0.2558   15.6524 H         1 RES1    0.0000
     54 H21       -4.0184    2.0252   14.6368 H         1 RES1    0.0000
     55 H22       -2.1318    3.4535   14.8359 H         1 RES1    0.0000
@<TRIPOS>BOND
     1    1   17 1
     2    2    5 2
     3    3    5 2
     4    4   24 1
     5    5   15 1
     6    6    7 2
     7    7    8 1
     8    8    9 ar
     9    9   10 ar
    10   10   11 ar
    11   11   12 ar
    12   12   17 ar
    13   13    9 ar
    14   14   13 ar
    15   15   14 ar
    16   16   10 ar
    17   17    8 ar
    18   18   19 1
    19   19   20 ar
    20   20   21 ar
    21   21   22 ar
    22   22   23 ar
    23   23   25 ar
    24   24    1 1
    25   25    4 1
    26   26   18 1
    27   27   18 1
    28   28    4 1
    29   29   28 ar
    30   30   29 ar
    31   31   30 ar
    32   32   31 ar
    33   33   28 ar
    34   34    6 1
    35   35    7 1
    36   36   11 1
    37   37   12 1
    38   38   14 1
    39   39   16 1
    40   40   13 1
    41   41   20 1
    42   42   21 1
    43   43   22 1
    44   44   23 1
    45   45   26 1
    46   46   26 1
    47   47   26 1
    48   48   27 1
    49   49   27 1
    50   50   27 1
    51   51   29 1
    52   52   30 1
    53   53   31 1
    54   54   32 1
    55   55   33 1
    56    6   24 1
    57   15   16 ar
    58   18   24 1
    59   19   25 ar
    60   32   33 ar
@<TRIPOS>SUBSTRUCTURE
     1 RES1 1

@<TRIPOS>CRYSIN
  10.6590   10.6590   19.9140  90.0000  90.0000  90.0000  76 1

