# MOL2 file generated by ConQuest
# Please check atom types

@<TRIPOS>MOLECULE
FURJEH
    58    60     1
SMALL
NO_CHARGES
****
Generated from CSD

@<TRIPOS>ATOM
      1 O1         0.3091   -1.8765    5.3709 O.2       1 RES1    0.0000
      2 O2        -0.5359   -3.1394    6.9074 O.2       1 RES1    0.0000
      3 N1        -1.4388   -0.2150    2.2618 N.2       1 RES1    0.0000
      4 N2        -1.0923   -0.9676    3.3852 N.3       1 RES1    0.0000
      5 N3        -0.6164   -2.4656    5.8834 N.pl3     1 RES1    0.0000
      6 C1        -0.4480    0.3813    1.7228 C.2       1 RES1    0.0000
      7 C2         1.0034    0.3039    2.1257 C.3       1 RES1    0.0000
      8 C3         2.0736    0.2982    1.0420 C.3       1 RES1    0.0000
      9 C4         2.1073   -0.9533    0.1967 C.3       1 RES1    0.0000
     10 C5        -0.8207    1.2815    0.5730 C.3       1 RES1    0.0000
     11 C6        -2.0762   -1.7087    3.9516 C.ar      1 RES1    0.0000
     12 C7        -1.8457   -2.4699    5.1269 C.ar      1 RES1    0.0000
     13 C8        -2.8379   -3.2354    5.7132 C.ar      1 RES1    0.0000
     14 C9        -4.0982   -3.2870    5.1439 C.ar      1 RES1    0.0000
     15 C10       -4.3800   -2.5430    3.9771 C.ar      1 RES1    0.0000
     16 C11       -3.3650   -1.7718    3.4428 C.ar      1 RES1    0.0000
     17 H1         1.1851    1.1052    2.6599 H         1 RES1    0.0000
     18 H2         1.1269   -0.4602    2.6429 H         1 RES1    0.0000
     19 H3         1.9190    1.0522    0.4614 H         1 RES1    0.0000
     20 H4         2.9253    0.4042    1.4742 H         1 RES1    0.0000
     21 H5         2.8189   -0.8372   -0.4482 H         1 RES1    0.0000
     22 H6         2.3257   -1.6844    0.7754 H         1 RES1    0.0000
     23 H7        -0.9160    2.1847    0.9125 H         1 RES1    0.0000
     24 H8        -0.0970    1.2729   -0.0643 H         1 RES1    0.0000
     25 H9        -0.2086   -0.9533    3.7312 H         1 RES1    0.0000
     26 H10       -2.6986   -3.7916    6.4791 H         1 RES1    0.0000
     27 H11       -4.8125   -3.8217    5.4891 H         1 RES1    0.0000
     28 H12       -5.2785   -2.5588    3.5043 H         1 RES1    0.0000
     29 H13       -3.5558   -1.2314    2.6712 H         1 RES1    0.0000
     30 C5B        0.8207   -1.2815   -0.5730 C.3       1 RES1    0.0000
     31 C4B       -2.1073    0.9533   -0.1967 C.3       1 RES1    0.0000
     32 C1B        0.4480   -0.3813   -1.7228 C.2       1 RES1    0.0000
     33 H7B        0.9160   -2.1847   -0.9125 H         1 RES1    0.0000
     34 H8B        0.0970   -1.2729    0.0643 H         1 RES1    0.0000
     35 C3B       -2.0736   -0.2982   -1.0420 C.3       1 RES1    0.0000
     36 H5B       -2.8189    0.8372    0.4482 H         1 RES1    0.0000
     37 H6B       -2.3257    1.6844   -0.7754 H         1 RES1    0.0000
     38 N1B        1.4388    0.2150   -2.2618 N.2       1 RES1    0.0000
     39 C2B       -1.0034   -0.3039   -2.1257 C.3       1 RES1    0.0000
     40 H3B       -1.9190   -1.0522   -0.4614 H         1 RES1    0.0000
     41 H4B       -2.9253   -0.4042   -1.4742 H         1 RES1    0.0000
     42 N2B        1.0923    0.9676   -3.3852 N.3       1 RES1    0.0000
     43 H1B       -1.1851   -1.1052   -2.6599 H         1 RES1    0.0000
     44 H2B       -1.1269    0.4602   -2.6429 H         1 RES1    0.0000
     45 C6B        2.0762    1.7087   -3.9516 C.ar      1 RES1    0.0000
     46 H9B        0.2086    0.9533   -3.7312 H         1 RES1    0.0000
     47 C7B        1.8457    2.4699   -5.1269 C.ar      1 RES1    0.0000
     48 C11B       3.3650    1.7718   -3.4428 C.ar      1 RES1    0.0000
     49 N3B        0.6164    2.4656   -5.8834 N.pl3     1 RES1    0.0000
     50 C8B        2.8379    3.2354   -5.7132 C.ar      1 RES1    0.0000
     51 C10B       4.3800    2.5430   -3.9771 C.ar      1 RES1    0.0000
     52 H13B       3.5558    1.2314   -2.6712 H         1 RES1    0.0000
     53 O1B       -0.3091    1.8765   -5.3709 O.2       1 RES1    0.0000
     54 O2B        0.5359    3.1394   -6.9074 O.2       1 RES1    0.0000
     55 C9B        4.0982    3.2870   -5.1439 C.ar      1 RES1    0.0000
     56 H10B       2.6986    3.7916   -6.4791 H         1 RES1    0.0000
     57 H12B       5.2785    2.5588   -3.5043 H         1 RES1    0.0000
     58 H11B       4.8125    3.8217   -5.4891 H         1 RES1    0.0000
@<TRIPOS>BOND
     1    1    5 2
     2    2    5 2
     3    3    4 1
     4    4   11 1
     5    5   12 1
     6    6    3 2
     7    7    6 1
     8    8    7 1
     9    9    8 1
    10   10    6 1
    11   11   12 ar
    12   12   13 ar
    13   13   14 ar
    14   14   15 ar
    15   15   16 ar
    16   16   11 ar
    17   17    7 1
    18   18    7 1
    19   19    8 1
    20   20    8 1
    21   21    9 1
    22   22    9 1
    23   23   10 1
    24   24   10 1
    25   25    4 1
    26   26   13 1
    27   27   14 1
    28   28   15 1
    29   29   16 1
    30   30    9 1
    31   31   10 1
    32   32   30 1
    33   33   30 1
    34   34   30 1
    35   35   31 1
    36   36   31 1
    37   37   31 1
    38   38   32 2
    39   39   32 1
    40   40   35 1
    41   41   35 1
    42   42   38 1
    43   43   39 1
    44   44   39 1
    45   45   42 1
    46   46   42 1
    47   47   45 ar
    48   48   45 ar
    49   49   47 1
    50   50   47 ar
    51   51   48 ar
    52   52   48 1
    53   53   49 2
    54   54   49 2
    55   55   50 ar
    56   56   50 1
    57   57   51 1
    58   58   55 1
    59   35   39 1
    60   51   55 ar
@<TRIPOS>SUBSTRUCTURE
     1 RES1 1

@<TRIPOS>CRYSIN
   7.8890   14.3350   10.1170  90.0000 110.8300  90.0000  14 1

