# MOL2 file generated by ConQuest
# Please check atom types

@<TRIPOS>MOLECULE
FUSJAF
    29    32     1
SMALL
USER_CHARGES
****
Generated from CSD

@<TRIPOS>ATOM
      1 C1         1.6173    4.7161    2.5274 C.2       1 RES1    0.0000
      2 N1         2.5526    3.7890    2.4089 N.2       1 RES1    0.0000
      3 O1         2.3806    2.9217    3.4861 O.3       1 RES1    0.0000
      4 N2         1.2640    3.3814    4.2670 N.pl3     1 RES1    1.0000
      5 O2         0.9428    2.7292    5.2644 O.2       1 RES1   -1.0000
      6 C2         0.8102    4.4884    3.6755 C.2       1 RES1    0.0000
      7 C3        -0.2402    5.3126    4.1405 C.2       1 RES1    0.0000
      8 H1        -0.7540    5.1022    4.9106 H         1 RES1    0.0000
      9 C4        -0.4551    6.4208    3.4035 C.2       1 RES1    0.0000
     10 C5         0.2686    6.7155    2.2067 C.2       1 RES1    0.0000
     11 C6         0.1718    7.7221    1.2256 C.2       1 RES1    0.0000
     12 H2        -0.4337    8.4531    1.2691 H         1 RES1    0.0000
     13 N3         1.0276    7.5230    0.2379 N.2       1 RES1    0.0000
     14 N4         1.7181    6.3844    0.5395 N.pl3     1 RES1    0.0000
     15 C7         1.2813    5.8619    1.7371 C.2       1 RES1    0.0000
     16 N5        -1.4922    7.3670    3.8712 N.pl3     1 RES1    0.0000
     17 O3        -2.1770    7.0317    4.8299 O.2       1 RES1    0.0000
     18 O4        -1.6020    8.4274    3.2698 O.2       1 RES1    0.0000
     19 C8         2.6859    5.9480   -0.4350 C.ar      1 RES1    0.0000
     20 C9         3.0127    6.8231   -1.4593 C.ar      1 RES1    0.0000
     21 H3         2.6077    7.6814   -1.5009 H         1 RES1    0.0000
     22 C10        3.9287    6.4429   -2.4203 C.ar      1 RES1    0.0000
     23 H4         4.1517    7.0419   -3.1240 H         1 RES1    0.0000
     24 C11        4.5230    5.1949   -2.3653 C.ar      1 RES1    0.0000
     25 H5         5.1610    4.9396   -3.0205 H         1 RES1    0.0000
     26 C12        4.1816    4.3252   -1.3525 C.ar      1 RES1    0.0000
     27 H6         4.5871    3.4668   -1.3146 H         1 RES1    0.0000
     28 C13        3.2518    4.6886   -0.3890 C.ar      1 RES1    0.0000
     29 H7         3.0071    4.0777    0.2960 H         1 RES1    0.0000
@<TRIPOS>BOND
     1    1    2 2
     2    2    3 1
     3    3    4 1
     4    4    5 1
     5    6    1 1
     6    7    6 1
     7    8    7 1
     8    9    7 2
     9   10    9 1
    10   11   10 1
    11   12   11 1
    12   13   11 2
    13   14   13 1
    14   15    1 1
    15   16    9 1
    16   17   16 2
    17   18   16 2
    18   19   14 1
    19   20   19 ar
    20   21   20 1
    21   22   20 ar
    22   23   22 1
    23   24   22 ar
    24   25   24 1
    25   26   24 ar
    26   27   26 1
    27   28   19 ar
    28   29   28 1
    29    4    6 2
    30   10   15 2
    31   14   15 1
    32   26   28 ar
@<TRIPOS>SUBSTRUCTURE
     1 RES1 1

@<TRIPOS>CRYSIN
   9.3767    5.9773   20.7290  90.0000  92.8980  90.0000 231 1

