# MOL2 file generated by ConQuest
# Please check atom types

@<TRIPOS>MOLECULE
FUSXIA
    51    52     1
SMALL
NO_CHARGES
****
Generated from CSD

@<TRIPOS>ATOM
      1 C1         2.0518    7.0614    8.1518 C.3       1 RES1    0.0000
      2 C2         2.2340    8.5601    7.9326 C.3       1 RES1    0.0000
      3 C3         3.4119    9.0798    8.7145 C.3       1 RES1    0.0000
      4 C4         3.2808    8.6927   10.1866 C.3       1 RES1    0.0000
      5 C5         3.0906    7.1703   10.2815 C.3       1 RES1    0.0000
      6 C6         2.8803    6.7429   11.7365 C.3       1 RES1    0.0000
      7 C7         0.6916    5.2537    7.5269 C.3       1 RES1    0.0000
      8 O1         0.8691    6.6790    7.5580 O.3       1 RES1    0.0000
      9 O2         2.5242    8.7815    6.5351 O.3       1 RES1    0.0000
     10 O3         3.4450   10.4802    8.5684 O.3       1 RES1    0.0000
     11 O4         4.4892    9.0395   10.9064 O.3       1 RES1    0.0000
     12 O5         1.9117    6.8223    9.5757 O.3       1 RES1    0.0000
     13 O6         2.7753    5.2881   11.7380 O.3       1 RES1    0.0000
     14 O7         0.6150    5.4834   12.0785 O.2       1 RES1    0.0000
     15 O8         1.4042    3.6887   11.3105 O.2       1 RES1    0.0000
     16 N1         1.5044    4.7980   11.7085 N.pl3     1 RES1    0.0000
     17 C8         4.3200   10.1121   11.8220 C.3       1 RES1    0.0000
     18 C9         5.5840   10.2541   12.6132 C.3       1 RES1    0.0000
     19 C10        5.4902   11.4722   13.5350 C.3       1 RES1    0.0000
     20 C11        5.2002   12.7318   12.6801 C.3       1 RES1    0.0000
     21 C12        3.9760   12.4986   11.8158 C.3       1 RES1    0.0000
     22 C13        3.8103   13.5806   10.7696 C.3       1 RES1    0.0000
     23 O9         5.8195    9.0668   13.3749 O.3       1 RES1    0.0000
     24 O10        6.7125   11.5729   14.2050 O.3       1 RES1    0.0000
     25 O11        4.9004   13.8635   13.5024 O.3       1 RES1    0.0000
     26 O12        4.1706   11.2840   11.0245 O.3       1 RES1    0.0000
     27 O13        2.6105   13.2444   10.0763 O.3       1 RES1    0.0000
     28 O14        1.3031   13.8043    8.4083 O.2       1 RES1    0.0000
     29 O15        3.2169   14.7987    8.5995 O.2       1 RES1    0.0000
     30 N2         2.3256   14.0245    8.9088 N.pl3     1 RES1    0.0000
     31 H1         2.8469    6.5346    7.7725 H         1 RES1    0.0000
     32 H2         1.3833    9.0443    8.2388 H         1 RES1    0.0000
     33 H3         4.3642    8.7010    8.3010 H         1 RES1    0.0000
     34 H4         2.3716    9.0798   10.6172 H         1 RES1    0.0000
     35 H5         3.9832    6.6767   10.0732 H         1 RES1    0.0000
     36 H6         1.9944    7.1620   12.0629 H         1 RES1    0.0000
     37 H7         3.8629    6.8187   12.0940 H         1 RES1    0.0000
     38 H8         1.4725    4.8773    7.7414 H         1 RES1    0.0000
     39 H9         0.0627    4.7826    6.8398 H         1 RES1    0.0000
     40 H10        1.6776    8.9851    6.1714 H         1 RES1    0.0000
     41 H11        4.3936   10.8436    8.1300 H         1 RES1    0.0000
     42 H12        3.3651    9.9203   12.4671 H         1 RES1    0.0000
     43 H13        6.4215   10.5240   11.9696 H         1 RES1    0.0000
     44 H14        4.5988   11.3053   13.9594 H         1 RES1    0.0000
     45 H15        6.1291   12.8561   12.1406 H         1 RES1    0.0000
     46 H16        3.1347   12.2405   12.3738 H         1 RES1    0.0000
     47 H17        4.5549   13.5427   10.1353 H         1 RES1    0.0000
     48 H18        3.4965   14.5608   11.1924 H         1 RES1    0.0000
     49 H19        5.0257    9.3284   13.9905 H         1 RES1    0.0000
     50 H20        7.6226   11.6368   13.6330 H         1 RES1    0.0000
     51 H21        5.9324   14.1465   13.5863 H         1 RES1    0.0000
@<TRIPOS>BOND
     1    1    2 1
     2    2    3 1
     3    3    4 1
     4    4    5 1
     5    5    6 1
     6    6   13 1
     7    7    8 1
     8    8    1 1
     9    9    2 1
    10   10    3 1
    11   11    4 1
    12   12    1 1
    13   13   16 1
    14   14   16 2
    15   15   16 2
    16   17   11 1
    17   18   17 1
    18   19   18 1
    19   20   19 1
    20   21   20 1
    21   22   21 1
    22   23   18 1
    23   24   19 1
    24   25   20 1
    25   26   17 1
    26   27   22 1
    27   28   30 2
    28   29   30 2
    29   30   27 1
    30   31    1 1
    31   32    2 1
    32   33    3 1
    33   34    4 1
    34   35    5 1
    35   36    6 1
    36   37    6 1
    37   38    7 1
    38   39    7 1
    39   40    9 1
    40   41   10 1
    41   42   17 1
    42   43   18 1
    43   44   19 1
    44   45   20 1
    45   46   21 1
    46   47   22 1
    47   48   22 1
    48   49   23 1
    49   50   24 1
    50   51   25 1
    51    5   12 1
    52   21   26 1
@<TRIPOS>SUBSTRUCTURE
     1 RES1 1

@<TRIPOS>CRYSIN
   5.1497   11.8390   15.5450  90.0000  90.0000  90.7300   4 3

