# MOL2 file generated by ConQuest
# Please check atom types

@<TRIPOS>MOLECULE
FUVHIO
    48    49     1
SMALL
NO_CHARGES
****
Generated from CSD

@<TRIPOS>ATOM
      1 O1        10.4422   12.7411    0.2183 O.2       1 RES1    0.0000
      2 O2         8.9740   13.9321    1.2346 O.2       1 RES1    0.0000
      3 O3         5.0536   11.8153    3.0691 O.2       1 RES1    0.0000
      4 O4         4.8653    9.6795    2.9763 O.2       1 RES1    0.0000
      5 O5         8.6118    6.8910    1.4101 O.2       1 RES1    0.0000
      6 O6        10.5027    7.9706    0.9215 O.3       1 RES1    0.0000
      7 N1         9.4291   12.8621    0.8837 N.pl3     1 RES1    0.0000
      8 N2         5.4701   10.7150    2.7795 N.pl3     1 RES1    0.0000
      9 C1         9.3187   10.4110    1.0749 C.ar      1 RES1    0.0000
     10 H1        10.1749   10.3572    0.7147 H         1 RES1    0.0000
     11 C2         8.7089   11.6451    1.2603 C.ar      1 RES1    0.0000
     12 C3         7.4476   11.7743    1.8159 C.ar      1 RES1    0.0000
     13 H2         7.0555   12.6067    1.9500 H         1 RES1    0.0000
     14 C4         6.8085   10.6142    2.1575 C.ar      1 RES1    0.0000
     15 C5         7.3546    9.3684    1.9742 C.ar      1 RES1    0.0000
     16 H3         6.8780    8.6050    2.2082 H         1 RES1    0.0000
     17 C6         8.6355    9.2664    1.4329 C.ar      1 RES1    0.0000
     18 C7         9.2331    7.9051    1.2574 C.2       1 RES1    0.0000
     19 C8        11.1915    6.7072    0.7247 C.3       1 RES1    0.0000
     20 H4        10.7579    6.2110    0.0128 H         1 RES1    0.0000
     21 H5        11.1360    6.1790    1.5363 H         1 RES1    0.0000
     22 C9        12.6529    6.9320    0.3673 C.3       1 RES1    0.0000
     23 C10       13.5336    7.3063    1.5670 C.3       1 RES1    0.0000
     24 H6        14.4488    7.3735    1.2218 H         1 RES1    0.0000
     25 C11       13.1879    8.6762    2.1119 C.3       1 RES1    0.0000
     26 H7        12.3507    8.6134    2.5976 H         1 RES1    0.0000
     27 H8        13.8735    8.9393    2.7445 H         1 RES1    0.0000
     28 C12       13.0588    9.7460    1.0770 C.2       1 RES1    0.0000
     29 C13       12.8766    9.4529   -0.2076 C.2       1 RES1    0.0000
     30 C14       12.7981    8.0274   -0.6983 C.3       1 RES1    0.0000
     31 H9        13.5984    7.8422   -1.2125 H         1 RES1    0.0000
     32 H10       12.0434    7.9582   -1.3045 H         1 RES1    0.0000
     33 C15       13.1107    5.5969   -0.2396 C.3       1 RES1    0.0000
     34 H11       12.5537    5.3794   -0.9900 H         1 RES1    0.0000
     35 H12       13.0415    4.9039    0.4222 H         1 RES1    0.0000
     36 H13       14.0233    5.6734   -0.5292 H         1 RES1    0.0000
     37 C16       13.5802    6.2711    2.6875 C.3       1 RES1    0.0000
     38 H14       14.1482    6.5890    3.3936 H         1 RES1    0.0000
     39 H15       13.9275    5.4449    2.3451 H         1 RES1    0.0000
     40 H16       12.6940    6.1286    3.0298 H         1 RES1    0.0000
     41 C17       13.1241   11.1450    1.6340 C.3       1 RES1    0.0000
     42 H17       13.0437   11.7785    0.9172 H         1 RES1    0.0000
     43 H18       13.9635   11.2728    2.0812 H         1 RES1    0.0000
     44 H19       12.4071   11.2745    2.2581 H         1 RES1    0.0000
     45 C18       12.7310   10.4681   -1.3017 C.3       1 RES1    0.0000
     46 H20       12.7910   11.3501   -0.9293 H         1 RES1    0.0000
     47 H21       11.8778   10.3589   -1.7289 H         1 RES1    0.0000
     48 H22       13.4301   10.3454   -1.9479 H         1 RES1    0.0000
@<TRIPOS>BOND
     1    1    7 2
     2    2    7 2
     3    3    8 2
     4    4    8 2
     5    5   18 2
     6    6   18 1
     7    7   11 1
     8    8   14 1
     9    9   10 1
    10   11    9 ar
    11   12   11 ar
    12   13   12 1
    13   14   12 ar
    14   15   14 ar
    15   16   15 1
    16   17    9 ar
    17   18   17 1
    18   19    6 1
    19   20   19 1
    20   21   19 1
    21   22   19 1
    22   23   22 1
    23   24   23 1
    24   25   23 1
    25   26   25 1
    26   27   25 1
    27   28   25 1
    28   29   28 2
    29   30   22 1
    30   31   30 1
    31   32   30 1
    32   33   22 1
    33   34   33 1
    34   35   33 1
    35   36   33 1
    36   37   23 1
    37   38   37 1
    38   39   37 1
    39   40   37 1
    40   41   28 1
    41   42   41 1
    42   43   41 1
    43   44   41 1
    44   45   29 1
    45   46   45 1
    46   47   45 1
    47   48   45 1
    48   15   17 ar
    49   29   30 1
@<TRIPOS>SUBSTRUCTURE
     1 RES1 1

@<TRIPOS>CRYSIN
  15.0630   16.8000    7.1328  90.0000  90.6190  90.0000  14 1

