# MOL2 file generated by ConQuest
# Please check atom types

@<TRIPOS>MOLECULE
FUVTIA
    36    38     1
SMALL
NO_CHARGES
****
Generated from CSD

@<TRIPOS>ATOM
      1 O1         4.5526    3.7294    5.1900 O.3       1 RES1    0.0000
      2 O2         2.2813    0.8887    7.9549 O.2       1 RES1    0.0000
      3 N1         4.9765    3.8286    6.5617 N.2       1 RES1    0.0000
      4 N2         3.0021    2.6897    3.9250 N.3       1 RES1    0.0000
      5 N3         1.5939    0.6573    5.8315 N.am      1 RES1    0.0000
      6 N4         1.9478    0.5912    4.4601 N.3       1 RES1    0.0000
      7 C1         3.5483    2.8351    5.1169 C.2       1 RES1    0.0000
      8 C2         3.3218    2.2666    6.3551 C.2       1 RES1    0.0000
      9 C3         4.2327    2.9843    7.2127 C.2       1 RES1    0.0000
     10 C4         4.3932    2.9163    8.6876 C.3       1 RES1    0.0000
     11 H1         5.1150    3.4896    8.9567 H         1 RES1    0.0000
     12 H2         4.5884    2.0125    8.9467 H         1 RES1    0.0000
     13 H3         3.5815    3.2025    9.1120 H         1 RES1    0.0000
     14 C5         2.3885    1.2419    6.7632 C.2       1 RES1    0.0000
     15 C6         0.5933   -0.3088    6.2487 C.3       1 RES1    0.0000
     16 H4         0.9832   -0.9217    6.8759 H         1 RES1    0.0000
     17 H5         0.2770   -0.7924    5.4825 H         1 RES1    0.0000
     18 H6        -0.1410    0.1502    6.6631 H         1 RES1    0.0000
     19 C7         1.8588    1.8019    3.6558 C.3       1 RES1    0.0000
     20 C8         0.5561    2.5433    3.8924 C.3       1 RES1    0.0000
     21 H7         0.6010    3.4102    3.4580 H         1 RES1    0.0000
     22 H8         0.4445    2.6934    4.8439 H         1 RES1    0.0000
     23 C9        -0.6550    1.7830    3.3616 C.3       1 RES1    0.0000
     24 H9        -0.7783    0.9737    3.8812 H         1 RES1    0.0000
     25 H10       -1.4490    2.3298    3.4680 H         1 RES1    0.0000
     26 C10       -0.4895    1.4175    1.8955 C.3       1 RES1    0.0000
     27 H11       -1.2586    0.9085    1.5963 H         1 RES1    0.0000
     28 H12       -0.4362    2.2260    1.3622 H         1 RES1    0.0000
     29 C11        0.7657    0.6006    1.7052 C.3       1 RES1    0.0000
     30 H13        0.8741    0.3891    0.7637 H         1 RES1    0.0000
     31 H14        0.6845   -0.2342    2.1922 H         1 RES1    0.0000
     32 C12        1.9852    1.3562    2.1960 C.3       1 RES1    0.0000
     33 H15        2.1196    2.1381    1.6376 H         1 RES1    0.0000
     34 H16        2.7667    0.7895    2.1046 H         1 RES1    0.0000
     35 H17        2.8227    0.1511    4.3945 H         1 RES1    0.0000
     36 H18        3.3388    3.0976    3.3178 H         1 RES1    0.0000
@<TRIPOS>BOND
     1    1    3 1
     2    2   14 2
     3    3    9 2
     4    4    7 1
     5    5    6 1
     6    6   19 1
     7    7    1 1
     8    8    7 2
     9    9    8 1
    10   10    9 1
    11   11   10 1
    12   12   10 1
    13   13   10 1
    14   14    5 1
    15   15    5 1
    16   16   15 1
    17   17   15 1
    18   18   15 1
    19   19    4 1
    20   20   19 1
    21   21   20 1
    22   22   20 1
    23   23   20 1
    24   24   23 1
    25   25   23 1
    26   26   23 1
    27   27   26 1
    28   28   26 1
    29   29   26 1
    30   30   29 1
    31   31   29 1
    32   32   19 1
    33   33   32 1
    34   34   32 1
    35   35    6 1
    36   36    4 1
    37    8   14 1
    38   29   32 1
@<TRIPOS>SUBSTRUCTURE
     1 RES1 1

@<TRIPOS>CRYSIN
  10.9220    9.4440   13.1340  90.0000 107.5900  90.0000  14 1

