# MOL2 file generated by ConQuest
# Please check atom types

@<TRIPOS>MOLECULE
FUWGUA
    59    63     1
SMALL
NO_CHARGES
****
Generated from CSD

@<TRIPOS>ATOM
      1 O1        -1.5202    4.9604   14.5645 O.3       1 RES1    0.0000
      2 O2        -2.1372    4.8632   16.7105 O.2       1 RES1    0.0000
      3 O3        -1.6595    4.7271   11.0372 O.3       1 RES1    0.0000
      4 O4        -0.6499    6.2107   12.3570 O.2       1 RES1    0.0000
      5 O5         2.2521    4.1287    8.2377 O.3       1 RES1    0.0000
      6 O6         1.6216    5.8003    6.7820 O.3       1 RES1    0.0000
      7 O7        -3.9431    8.8393   10.9129 O.2       1 RES1    0.0000
      8 O8        -3.5664   10.2090    9.3229 O.2       1 RES1    0.0000
      9 N1        -3.3050    9.2127    9.9427 N.pl3     1 RES1    0.0000
     10 C1        -2.2205    4.6770   13.3157 C.3       1 RES1    0.0000
     11 C2        -3.6374    5.2564   13.5907 C.3       1 RES1    0.0000
     12 C3        -3.7591    4.4365   14.9064 C.3       1 RES1    0.0000
     13 C4        -3.5169    2.9897   14.4023 C.3       1 RES1    0.0000
     14 H1        -3.1962    2.4072   15.1355 H         1 RES1    0.0000
     15 H2        -4.3447    2.6026   14.0221 H         1 RES1    0.0000
     16 C5        -2.4303    3.1584   13.3112 C.3       1 RES1    0.0000
     17 H3        -1.5985    2.6775   13.5502 H         1 RES1    0.0000
     18 H4        -2.7500    2.8401   12.4305 H         1 RES1    0.0000
     19 C6        -2.4401    4.7808   15.5575 C.2       1 RES1    0.0000
     20 C7        -4.9664    4.6426   15.8038 C.3       1 RES1    0.0000
     21 H5        -4.8810    4.0792   16.6010 H         1 RES1    0.0000
     22 H6        -5.7815    4.3991   15.3166 H         1 RES1    0.0000
     23 H7        -5.0158    5.5839   16.0730 H         1 RES1    0.0000
     24 C8        -4.6731    4.9121   12.5186 C.3       1 RES1    0.0000
     25 H8        -5.5730    5.0785   12.8686 H         1 RES1    0.0000
     26 H9        -4.5875    3.9669   12.2732 H         1 RES1    0.0000
     27 H10       -4.5224    5.4694   11.7277 H         1 RES1    0.0000
     28 C9        -3.6537    6.7635   13.8358 C.3       1 RES1    0.0000
     29 H11       -3.3712    7.2300   13.0209 H         1 RES1    0.0000
     30 H12       -3.0394    6.9818   14.5676 H         1 RES1    0.0000
     31 H13       -4.5607    7.0460   14.0757 H         1 RES1    0.0000
     32 C10       -1.4025    5.3007   12.2252 C.2       1 RES1    0.0000
     33 C11       -0.8350    5.1068    9.9374 C.ar      1 RES1    0.0000
     34 C12       -1.2389    6.1375    9.1052 C.ar      1 RES1    0.0000
     35 C13       -0.4256    6.4184    7.9821 C.ar      1 RES1    0.0000
     36 H14       -0.6670    7.1025    7.3687 H         1 RES1    0.0000
     37 C14        0.7036    5.6946    7.7986 C.ar      1 RES1    0.0000
     38 C15        1.0685    4.6892    8.6543 C.ar      1 RES1    0.0000
     39 C16        0.3105    4.3510    9.7447 C.ar      1 RES1    0.0000
     40 H15        0.5542    3.6440   10.3309 H         1 RES1    0.0000
     41 C17        2.5501    4.7495    7.0057 C.3       1 RES1    0.0000
     42 H16        2.4913    4.0868    6.2727 H         1 RES1    0.0000
     43 H17        3.4707    5.1121    7.0254 H         1 RES1    0.0000
     44 C18       -2.5048    6.9337    9.3451 C.3       1 RES1    0.0000
     45 H18       -2.8954    6.6184   10.2110 H         1 RES1    0.0000
     46 C19       -3.5386    6.6704    8.2602 C.ar      1 RES1    0.0000
     47 C20       -3.6153    7.4185    7.0959 C.ar      1 RES1    0.0000
     48 H19       -3.0294    8.1545    6.9630 H         1 RES1    0.0000
     49 C21       -4.5496    7.0903    6.1275 C.ar      1 RES1    0.0000
     50 H20       -4.5967    7.6048    5.3302 H         1 RES1    0.0000
     51 C22       -5.4094    6.0329    6.3008 C.ar      1 RES1    0.0000
     52 H21       -6.0483    5.8206    5.6310 H         1 RES1    0.0000
     53 C23       -5.3373    5.2839    7.4497 C.ar      1 RES1    0.0000
     54 H22       -5.9272    4.5502    7.5784 H         1 RES1    0.0000
     55 C24       -4.3989    5.6038    8.4236 C.ar      1 RES1    0.0000
     56 H23       -4.3485    5.0801    9.2149 H         1 RES1    0.0000
     57 C25       -2.1204    8.4034    9.5266 C.3       1 RES1    0.0000
     58 H24       -1.4118    8.4775   10.2135 H         1 RES1    0.0000
     59 H25       -1.7609    8.7584    8.6756 H         1 RES1    0.0000
@<TRIPOS>BOND
     1    1   10 1
     2    2   19 2
     3    3   32 1
     4    4   32 2
     5    5   38 1
     6    6   37 1
     7    7    9 2
     8    8    9 2
     9    9   57 1
    10   10   11 1
    11   11   12 1
    12   12   13 1
    13   13   14 1
    14   15   13 1
    15   16   10 1
    16   17   16 1
    17   18   16 1
    18   19    1 1
    19   20   12 1
    20   21   20 1
    21   22   20 1
    22   23   20 1
    23   24   11 1
    24   25   24 1
    25   26   24 1
    26   27   24 1
    27   28   11 1
    28   29   28 1
    29   30   28 1
    30   31   28 1
    31   32   10 1
    32   33    3 1
    33   34   33 ar
    34   35   34 ar
    35   36   35 1
    36   37   35 ar
    37   38   37 ar
    38   39   33 ar
    39   40   39 1
    40   41    5 1
    41   42   41 1
    42   43   41 1
    43   44   34 1
    44   45   44 1
    45   46   44 1
    46   47   46 ar
    47   48   47 1
    48   49   47 ar
    49   50   49 1
    50   51   49 ar
    51   52   51 1
    52   53   51 ar
    53   54   53 1
    54   55   46 ar
    55   56   55 1
    56   57   44 1
    57   58   57 1
    58   59   57 1
    59    6   41 1
    60   12   19 1
    61   13   16 1
    62   38   39 ar
    63   53   55 ar
@<TRIPOS>SUBSTRUCTURE
     1 RES1 1

@<TRIPOS>CRYSIN
  11.9070    7.6346   13.8210  90.0000 115.4200  90.0000   4 1

