# MOL2 file generated by ConQuest
# Please check atom types

@<TRIPOS>MOLECULE
FUWJAJ
    30    31     1
SMALL
NO_CHARGES
****
Generated from CSD

@<TRIPOS>ATOM
      1 O1         0.1374    1.3673    1.5914 O.2       1 RES1    0.0000
      2 O2        -0.9597    0.7045    8.1830 O.2       1 RES1    0.0000
      3 O3         0.3923    2.3010    8.7522 O.2       1 RES1    0.0000
      4 N1         2.0927    1.5982    2.7420 N.am      1 RES1    0.0000
      5 H1         2.9625    1.7149    2.6779 H         1 RES1    0.0000
      6 N2         2.1229    1.4556    0.4592 N.am      1 RES1    0.0000
      7 H2         2.9980    1.5007    0.5423 H         1 RES1    0.0000
      8 N3        -0.0557    1.5165    7.9267 N.pl3     1 RES1    0.0000
      9 C1         1.5209    1.5690    4.0308 C.ar      1 RES1    0.0000
     10 C2         1.3775    1.4573    1.5897 C.2       1 RES1    0.0000
     11 C3         0.6807    1.2322   -3.4844 C.ar      1 RES1    0.0000
     12 H3         0.3711    1.1780   -4.3806 H         1 RES1    0.0000
     13 C4         0.5964    0.4752   -1.1984 C.ar      1 RES1    0.0000
     14 H4         0.2374   -0.1067   -0.5392 H         1 RES1    0.0000
     15 C5         0.5428    0.6378    4.3639 C.ar      1 RES1    0.0000
     16 H5         0.2289    0.0208    3.7122 H         1 RES1    0.0000
     17 C6         0.1367    0.4102   -2.5001 C.ar      1 RES1    0.0000
     18 H6        -0.5556   -0.1993   -2.7265 H         1 RES1    0.0000
     19 C7         1.9899    2.4694    4.9806 C.ar      1 RES1    0.0000
     20 H7         2.6602    3.1014    4.7482 H         1 RES1    0.0000
     21 C8         1.6772    2.1301   -3.1427 C.ar      1 RES1    0.0000
     22 H8         2.0555    2.6912   -3.8095 H         1 RES1    0.0000
     23 C9         2.1303    2.2168   -1.8288 C.ar      1 RES1    0.0000
     24 H9         2.8102    2.8387   -1.5979 H         1 RES1    0.0000
     25 C10        1.4740    2.4419    6.2747 C.ar      1 RES1    0.0000
     26 H10        1.7890    3.0480    6.9354 H         1 RES1    0.0000
     27 C11        0.0300    0.6136    5.6474 C.ar      1 RES1    0.0000
     28 H11       -0.6376   -0.0183    5.8873 H         1 RES1    0.0000
     29 C12        1.5807    1.3873   -0.8545 C.ar      1 RES1    0.0000
     30 C13        0.5010    1.5215    6.5769 C.ar      1 RES1    0.0000
@<TRIPOS>BOND
     1    1   10 2
     2    2    8 2
     3    3    8 2
     4    4    5 1
     5    6    7 1
     6    8   30 1
     7    9    4 1
     8   10    4 1
     9   11   12 1
    10   13   14 1
    11   15    9 ar
    12   16   15 1
    13   17   11 ar
    14   18   17 1
    15   19    9 ar
    16   20   19 1
    17   21   11 ar
    18   22   21 1
    19   23   21 ar
    20   24   23 1
    21   25   19 ar
    22   26   25 1
    23   27   15 ar
    24   28   27 1
    25   29    6 1
    26   30   25 ar
    27    6   10 1
    28   13   17 ar
    29   13   29 ar
    30   23   29 ar
    31   27   30 ar
@<TRIPOS>SUBSTRUCTURE
     1 RES1 1

@<TRIPOS>CRYSIN
   4.5871    8.3370   15.3036  90.0000  97.0090  90.0000   4 1

