# MOL2 file generated by ConQuest
# Please check atom types

@<TRIPOS>MOLECULE
FUWJUD
    55    59     1
SMALL
NO_CHARGES
****
Generated from CSD

@<TRIPOS>ATOM
      1 O1         0.7613    0.8583    2.7860 O.3       1 RES1    0.0000
      2 O2         0.8885   -2.8875    0.6839 O.2       1 RES1    0.0000
      3 O3        -0.4457   -3.4540    2.3906 O.3       1 RES1    0.0000
      4 N1         2.1521    0.4506    2.7248 N.3       1 RES1    0.0000
      5 C1         2.2052   -0.9895    2.3863 C.3       1 RES1    0.0000
      6 C2         0.7632   -1.4554    2.6149 C.3       1 RES1    0.0000
      7 C3        -0.0271   -0.2016    2.2147 C.3       1 RES1    0.0000
      8 C4        -1.4257   -0.0773    2.7672 C.3       1 RES1    0.0000
      9 C5        -2.5127   -0.6412    1.8836 C.3       1 RES1    0.0000
     10 C6        -2.3425    0.8510    2.0061 C.3       1 RES1    0.0000
     11 C7        -1.5285   -0.1467    4.2582 C.3       1 RES1    0.0000
     12 C8        -2.8416   -0.3563    4.9628 C.3       1 RES1    0.0000
     13 C9        -1.8082   -1.4541    4.9622 C.3       1 RES1    0.0000
     14 C10        0.4335   -2.6654    1.7747 C.2       1 RES1    0.0000
     15 C11       -0.9039   -4.6114    1.6318 C.3       1 RES1    0.0000
     16 C12       -2.1238   -5.1331    2.3220 C.3       1 RES1    0.0000
     17 C13        3.2117   -1.7351    3.2318 C.ar      1 RES1    0.0000
     18 C14        3.3306   -1.4841    4.5949 C.ar      1 RES1    0.0000
     19 C15        4.2636   -2.1736    5.3572 C.ar      1 RES1    0.0000
     20 C16        5.0703   -3.1343    4.7630 C.ar      1 RES1    0.0000
     21 C17        4.9324   -3.4161    3.4183 C.ar      1 RES1    0.0000
     22 C18        4.0116   -2.7097    2.6461 C.ar      1 RES1    0.0000
     23 C19        2.9157    1.3302    1.9251 C.ar      1 RES1    0.0000
     24 C20        4.1780    0.9264    1.4706 C.ar      1 RES1    0.0000
     25 C21        4.9797    1.8173    0.7693 C.ar      1 RES1    0.0000
     26 C22        4.5572    3.1143    0.5290 C.ar      1 RES1    0.0000
     27 C23        3.3140    3.5227    0.9973 C.ar      1 RES1    0.0000
     28 C24        2.4945    2.6438    1.6917 C.ar      1 RES1    0.0000
     29 H1         2.4287   -1.1029    1.4405 H         1 RES1    0.0000
     30 H2         0.6183   -1.6494    3.5470 H         1 RES1    0.0000
     31 H3        -0.0311   -0.1281    1.2014 H         1 RES1    0.0000
     32 H4        -0.9114    0.4429    4.7188 H         1 RES1    0.0000
     33 H5         2.7440   -0.8320    5.0270 H         1 RES1    0.0000
     34 H6         4.3221   -1.9897    6.3372 H         1 RES1    0.0000
     35 H7         5.7235   -3.6078    5.3215 H         1 RES1    0.0000
     36 H8         5.4828   -4.0967    2.9680 H         1 RES1    0.0000
     37 H9         3.9432   -2.8999    1.6954 H         1 RES1    0.0000
     38 H10        4.5266    0.0205    1.6302 H         1 RES1    0.0000
     39 H11        5.8626    1.5174    0.4505 H         1 RES1    0.0000
     40 H12        5.0970    3.7447    0.0138 H         1 RES1    0.0000
     41 H13        3.0112    4.4438    0.8438 H         1 RES1    0.0000
     42 H14        1.6514    2.9303    2.0511 H         1 RES1    0.0000
     43 H15       -3.2697   -1.0951    2.3554 H         1 RES1    0.0000
     44 H16       -2.2381   -1.0608    1.0473 H         1 RES1    0.0000
     45 H17       -2.9970    1.3454    2.5372 H         1 RES1    0.0000
     46 H18       -1.9638    1.3512    1.2350 H         1 RES1    0.0000
     47 H19       -2.9639    0.1173    5.8234 H         1 RES1    0.0000
     48 H20       -3.6340   -0.4986    4.4125 H         1 RES1    0.0000
     49 H21       -1.3533   -1.6817    5.8313 H         1 RES1    0.0000
     50 H22       -2.0327   -2.1999    4.3967 H         1 RES1    0.0000
     51 H23       -1.0660   -4.3167    0.6995 H         1 RES1    0.0000
     52 H24       -0.1621   -5.2729    1.6223 H         1 RES1    0.0000
     53 H25       -2.8106   -4.4291    2.3712 H         1 RES1    0.0000
     54 H26       -2.5059   -5.9153    1.8496 H         1 RES1    0.0000
     55 H27       -1.9325   -5.4068    3.2229 H         1 RES1    0.0000
@<TRIPOS>BOND
     1    1    4 1
     2    2   14 2
     3    3   14 1
     4    4    5 1
     5    5    6 1
     6    6    7 1
     7    7    1 1
     8    8    7 1
     9    9    8 1
    10   10    8 1
    11   11    8 1
    12   12   11 1
    13   13   11 1
    14   14    6 1
    15   15    3 1
    16   16   15 1
    17   17    5 1
    18   18   17 ar
    19   19   18 ar
    20   20   19 ar
    21   21   20 ar
    22   22   17 ar
    23   23    4 1
    24   24   23 ar
    25   25   24 ar
    26   26   25 ar
    27   27   26 ar
    28   28   23 ar
    29   29    5 1
    30   30    6 1
    31   31    7 1
    32   32   11 1
    33   33   18 1
    34   34   19 1
    35   35   20 1
    36   36   21 1
    37   37   22 1
    38   38   24 1
    39   39   25 1
    40   40   26 1
    41   41   27 1
    42   42   28 1
    43   43    9 1
    44   44    9 1
    45   45   10 1
    46   46   10 1
    47   47   12 1
    48   48   12 1
    49   49   13 1
    50   50   13 1
    51   51   15 1
    52   52   15 1
    53   53   16 1
    54   54   16 1
    55   55   16 1
    56    9   10 1
    57   12   13 1
    58   21   22 ar
    59   27   28 ar
@<TRIPOS>SUBSTRUCTURE
     1 RES1 1

@<TRIPOS>CRYSIN
  10.5666    9.7773   19.8550  90.0000  95.5960  90.0000  14 1

