# MOL2 file generated by ConQuest
# Please check atom types

@<TRIPOS>MOLECULE
FUWNIU
    24    24     1
SMALL
NO_CHARGES
****
Generated from CSD

@<TRIPOS>ATOM
      1 N1        11.1393    6.9354    0.6341 N.ar      1 RES1    0.0000
      2 C1        10.2438    7.9162    0.6730 C.ar      1 RES1    0.0000
      3 C2         9.1483    7.9279    1.5162 C.ar      1 RES1    0.0000
      4 C3         8.9784    6.8730    2.3974 C.ar      1 RES1    0.0000
      5 C4         9.9086    5.8513    2.4009 C.ar      1 RES1    0.0000
      6 C5        10.9609    5.9254    1.4886 C.ar      1 RES1    0.0000
      7 C6         9.8864    4.6834    3.3301 C.2       1 RES1    0.0000
      8 O1        10.9224    4.0517    3.5643 O.2       1 RES1    0.0000
      9 N2         8.7118    4.3578    3.8763 N.am      1 RES1    0.0000
     10 C7         8.5853    3.2386    4.7906 C.3       1 RES1    0.0000
     11 C8         8.1030    1.9829    4.1054 C.3       1 RES1    0.0000
     12 O2         8.9270    1.6495    2.9481 O.3       1 RES1    0.0000
     13 N3        10.1541    1.0919    3.2539 N.pl3     1 RES1    0.0000
     14 O3        10.8637    0.9379    2.3017 O.2       1 RES1    0.0000
     15 O4        10.3797    0.7994    4.3994 O.2       1 RES1    0.0000
     16 H1        10.4296    8.7936    0.1483 H         1 RES1    0.0000
     17 H2         8.4652    8.7156    1.5853 H         1 RES1    0.0000
     18 H3         8.1300    6.8438    2.9711 H         1 RES1    0.0000
     19 H4        11.6211    5.1475    1.4728 H         1 RES1    0.0000
     20 H5         7.9418    4.7965    3.6717 H         1 RES1    0.0000
     21 H6         7.8045    3.4511    5.4667 H         1 RES1    0.0000
     22 H7         9.5130    3.1002    5.1343 H         1 RES1    0.0000
     23 H8         7.1239    2.0863    3.7126 H         1 RES1    0.0000
     24 H9         8.0253    1.1699    4.6587 H         1 RES1    0.0000
@<TRIPOS>BOND
     1    1    2 ar
     2    2    3 ar
     3    3    4 ar
     4    4    5 ar
     5    5    6 ar
     6    6    1 ar
     7    7    5 1
     8    8    7 2
     9    9    7 1
    10   10    9 1
    11   11   10 1
    12   12   11 1
    13   13   12 1
    14   14   13 2
    15   15   13 2
    16   16    2 1
    17   17    3 1
    18   18    4 1
    19   19    6 1
    20   20    9 1
    21   21   10 1
    22   22   10 1
    23   23   11 1
    24   24   11 1
@<TRIPOS>SUBSTRUCTURE
     1 RES1 1

@<TRIPOS>CRYSIN
   9.5190   19.4980    5.2300  90.0000 102.1000  90.0000  14 2

