# MOL2 file generated by ConQuest
# Please check atom types

@<TRIPOS>MOLECULE
FUWNIU01
    24    24     1
SMALL
NO_CHARGES
****
Generated from CSD

@<TRIPOS>ATOM
      1 O1         0.3936   11.4071    0.0342 O.3       1 RES1    0.0000
      2 O2         1.5124   10.5657    1.7603 O.2       1 RES1    0.0000
      3 O3        -0.6503   10.7023    1.7844 O.2       1 RES1    0.0000
      4 O4         0.5796   13.8169    2.1222 O.2       1 RES1    0.0000
      5 N1        -2.3515   16.6966    1.7137 N.ar      1 RES1    0.0000
      6 N2         1.3548   14.1202    0.0251 N.am      1 RES1    0.0000
      7 N3         0.4378   10.8507    1.3098 N.pl3     1 RES1    0.0000
      8 C1         1.7029   11.7444   -0.5170 C.3       1 RES1    0.0000
      9 C2         2.2799   12.9954    0.0939 C.3       1 RES1    0.0000
     10 C3         0.5674   14.4461    1.0564 C.2       1 RES1    0.0000
     11 C4        -0.3540   15.6116    0.8854 C.ar      1 RES1    0.0000
     12 C5        -0.1590   16.6404   -0.0237 C.ar      1 RES1    0.0000
     13 C6        -1.0627   17.6855   -0.0403 C.ar      1 RES1    0.0000
     14 C7        -2.1196   17.6789    0.8471 C.ar      1 RES1    0.0000
     15 C8        -1.4689   15.6907    1.7163 C.ar      1 RES1    0.0000
     16 H1         1.3214   14.5519   -0.7486 H         1 RES1    0.0000
     17 H2         2.3073   11.0154   -0.4553 H         1 RES1    0.0000
     18 H3         1.4794   11.9190   -1.4172 H         1 RES1    0.0000
     19 H4         3.1278   13.1954   -0.4116 H         1 RES1    0.0000
     20 H5         2.5125   12.8398    0.9991 H         1 RES1    0.0000
     21 H6         0.6111   16.6767   -0.5922 H         1 RES1    0.0000
     22 H7        -0.9756   18.3870   -0.6173 H         1 RES1    0.0000
     23 H8        -2.7185   18.3987    0.8995 H         1 RES1    0.0000
     24 H9        -1.6830   14.9695    2.2943 H         1 RES1    0.0000
@<TRIPOS>BOND
     1    1    7 1
     2    2    7 1
     3    3    7 2
     4    4   10 2
     5    5   14 ar
     6    6    9 1
     7    8    1 1
     8    9    8 1
     9   10    6 1
    10   11   10 1
    11   12   11 ar
    12   13   12 ar
    13   14   13 ar
    14   15    5 ar
    15   16    6 1
    16   17    8 1
    17   18    8 1
    18   19    9 1
    19   20    9 1
    20   21   12 1
    21   22   13 1
    22   23   14 1
    23   24   15 1
    24   11   15 ar
@<TRIPOS>SUBSTRUCTURE
     1 RES1 1

@<TRIPOS>CRYSIN
   5.2600   19.5170    9.5270  90.0000 102.2200  90.0000  14 1

