# MOL2 file generated by ConQuest
# Please check atom types

@<TRIPOS>MOLECULE
FUXNAN
    19    19     1
SMALL
NO_CHARGES
****
Generated from CSD

@<TRIPOS>ATOM
      1 C1         0.8487    1.2114    1.3349 C.ar      1 RES1    0.0000
      2 C2         1.1291   -0.1282    1.4280 C.ar      1 RES1    0.0000
      3 C3         2.0899   -0.6985    0.6294 C.ar      1 RES1    0.0000
      4 C4         2.8106    0.1060   -0.2867 C.ar      1 RES1    0.0000
      5 C5         2.5057    1.4581   -0.3501 C.ar      1 RES1    0.0000
      6 C6         1.5402    2.0236    0.4379 C.ar      1 RES1    0.0000
      7 C7         4.1191   -1.8205   -1.1434 C.3       1 RES1    0.0000
      8 N1        -0.1862    1.8060    2.1314 N.pl3     1 RES1    0.0000
      9 N2         3.7599   -0.4269   -1.0980 N.3       1 RES1    0.0000
     10 O1        -0.4532    2.9958    2.0034 O.2       1 RES1    0.0000
     11 O2        -0.7808    1.0845    2.9469 O.2       1 RES1    0.0000
     12 H1         4.1378    0.1940   -1.6078 H         1 RES1    0.0000
     13 H2         4.8373   -1.9127   -1.7242 H         1 RES1    0.0000
     14 H3         4.4221   -2.1552   -0.2856 H         1 RES1    0.0000
     15 H4         3.3476   -2.3631   -1.3963 H         1 RES1    0.0000
     16 H5         0.6536   -0.6583    2.0521 H         1 RES1    0.0000
     17 H6         2.2720   -1.6355    0.6875 H         1 RES1    0.0000
     18 H7         2.9738    2.0097   -0.9626 H         1 RES1    0.0000
     19 H8         1.3498    2.9591    0.3808 H         1 RES1    0.0000
@<TRIPOS>BOND
     1    1    2 ar
     2    2    3 ar
     3    3    4 ar
     4    4    5 ar
     5    5    6 ar
     6    6    1 ar
     7    7    9 1
     8    8    1 1
     9    9    4 1
    10   10    8 2
    11   11    8 2
    12   12    9 1
    13   13    7 1
    14   14    7 1
    15   15    7 1
    16   16    2 1
    17   17    3 1
    18   18    5 1
    19   19    6 1
@<TRIPOS>SUBSTRUCTURE
     1 RES1 1

@<TRIPOS>CRYSIN
  10.0730    6.9300   10.8120  90.0000 101.9500  90.0000 231 1

