# MOL2 file generated by ConQuest
# Please check atom types

@<TRIPOS>MOLECULE
FUXZIH
    31    32     1
SMALL
NO_CHARGES
****
Generated from CSD

@<TRIPOS>ATOM
      1 O1         0.4187    4.9816    1.9577 O.2       1 RES1    0.0000
      2 O2         1.7087    4.8039    3.6630 O.2       1 RES1    0.0000
      3 N1         1.2855    4.4011    2.5902 N.pl3     1 RES1    0.0000
      4 N2         3.3800    1.3859    2.2807 N.ar      1 RES1    0.0000
      5 N3         3.5494   -0.1988    0.6131 N.3       1 RES1    0.0000
      6 C1         1.8075    3.1650    2.0466 C.ar      1 RES1    0.0000
      7 C2         1.3133    2.6361    0.8548 C.ar      1 RES1    0.0000
      8 C3         1.8833    1.4885    0.3822 C.ar      1 RES1    0.0000
      9 C4         2.8125    2.5208    2.7442 C.ar      1 RES1    0.0000
     10 C5         2.9469    0.9067    1.1089 C.ar      1 RES1    0.0000
     11 C6         4.7836   -0.7506    1.1848 C.3       1 RES1    0.0000
     12 C7         5.0459   -2.0900    0.4608 C.3       1 RES1    0.0000
     13 C8         5.9721    0.1784    1.0044 C.ar      1 RES1    0.0000
     14 C9         6.1479    0.9373   -0.1523 C.ar      1 RES1    0.0000
     15 C10        7.3075    1.6905   -0.2654 C.ar      1 RES1    0.0000
     16 C11        8.2683    1.6962    0.6863 C.ar      1 RES1    0.0000
     17 C12        8.1255    0.9131    1.8119 C.ar      1 RES1    0.0000
     18 C13        6.9604    0.1421    1.9486 C.ar      1 RES1    0.0000
     19 H1         3.1459   -0.6563   -0.2853 H         1 RES1    0.0000
     20 H2         0.5302    3.1032    0.3176 H         1 RES1    0.0000
     21 H3         1.5157    1.0641   -0.5383 H         1 RES1    0.0000
     22 H4         3.1777    2.8993    3.6926 H         1 RES1    0.0000
     23 H5         4.6225   -0.8666    2.2716 H         1 RES1    0.0000
     24 H6         5.9403   -2.5552    0.8666 H         1 RES1    0.0000
     25 H7         4.2213   -2.7527    0.6029 H         1 RES1    0.0000
     26 H8         5.1648   -1.9116   -0.6136 H         1 RES1    0.0000
     27 H9         5.4067    0.9367   -0.9366 H         1 RES1    0.0000
     28 H10        7.4513    2.3003   -1.1412 H         1 RES1    0.0000
     29 H11        9.1239    2.3130    0.5598 H         1 RES1    0.0000
     30 H12        8.8875    0.9048    2.5622 H         1 RES1    0.0000
     31 H13        6.8218   -0.4843    2.8045 H         1 RES1    0.0000
@<TRIPOS>BOND
     1    1    3 2
     2    2    3 2
     3    3    6 1
     4    4    9 ar
     5    5   10 1
     6    6    7 ar
     7    7    8 ar
     8    8   10 ar
     9    9    6 ar
    10   10    4 ar
    11   11    5 1
    12   12   11 1
    13   13   11 1
    14   14   13 ar
    15   15   14 ar
    16   16   15 ar
    17   17   16 ar
    18   18   13 ar
    19   19    5 1
    20   20    7 1
    21   21    8 1
    22   22    9 1
    23   23   11 1
    24   24   12 1
    25   25   12 1
    26   26   12 1
    27   27   14 1
    28   28   15 1
    29   29   16 1
    30   30   17 1
    31   31   18 1
    32   17   18 ar
@<TRIPOS>SUBSTRUCTURE
     1 RES1 1

@<TRIPOS>CRYSIN
  17.9450    6.3720    5.4010  90.0000  94.7000  90.0000   4 1

