# MOL2 file generated by ConQuest
# Please check atom types

@<TRIPOS>MOLECULE
FUZYUU
    15    14     1
SMALL
NO_CHARGES
****
Generated from CSD

@<TRIPOS>ATOM
      1 O1         9.3251    0.6760    8.3903 O.3       1 RES1    0.0000
      2 O2        15.5283    3.2904    6.9089 O.3       1 RES1    0.0000
      3 O3        11.3436    1.4019    6.7699 O.2       1 RES1    0.0000
      4 O4        14.2186    1.8548    8.7595 O.2       1 RES1    0.0000
      5 N1        10.2799    1.6418    8.7413 N.am      1 RES1    0.0000
      6 N2        14.1627    3.4096    7.1140 N.am      1 RES1    0.0000
      7 C1        11.2195    1.9300    7.8916 C.2       1 RES1    0.0000
      8 C2        12.1578    3.0403    8.3355 C.3       1 RES1    0.0000
      9 C3        13.6031    2.7125    8.0914 C.2       1 RES1    0.0000
     10 H1         8.3634    1.1746    8.4363 H         1 RES1    0.0000
     11 H2        15.5431    2.8054    6.0210 H         1 RES1    0.0000
     12 H3        10.2350    1.9097    9.5745 H         1 RES1    0.0000
     13 H4        13.7588    4.1320    6.7508 H         1 RES1    0.0000
     14 H5        11.8904    3.8279    7.7673 H         1 RES1    0.0000
     15 H6        11.9969    3.2279    9.1574 H         1 RES1    0.0000
@<TRIPOS>BOND
     1    1    5 1
     2    2    6 1
     3    3    7 2
     4    4    9 2
     5    5    7 1
     6    6    9 1
     7    7    8 1
     8    8    9 1
     9   10    1 1
    10   11    2 1
    11   12    5 1
    12   13    6 1
    13   14    8 1
    14   15    8 1
@<TRIPOS>SUBSTRUCTURE
     1 RES1 1

@<TRIPOS>CRYSIN
   7.2770    8.4500    9.4130  90.0000  67.3700  90.0000 231 1

