# MOL2 file generated by ConQuest
# Please check atom types

@<TRIPOS>MOLECULE
FUZZAB
    16    16     1
SMALL
NO_CHARGES
****
Generated from CSD

@<TRIPOS>ATOM
      1 O1         8.5455    2.0898    5.5502 O.3       1 RES1    0.0000
      2 O2         6.1619    2.8228    4.5794 O.2       1 RES1    0.0000
      3 N1         7.6753    2.9182    6.2638 N.am      1 RES1    0.0000
      4 N2         5.2266    5.8838    8.0360 N.ar      1 RES1    0.0000
      5 C1         5.5764    4.0666    6.5211 C.ar      1 RES1    0.0000
      6 C2         6.0404    5.0413    7.3874 C.ar      1 RES1    0.0000
      7 C3         3.9088    5.7684    7.8488 C.ar      1 RES1    0.0000
      8 C4         3.3574    4.8039    7.0171 C.ar      1 RES1    0.0000
      9 C5         4.2082    3.9408    6.3288 C.ar      1 RES1    0.0000
     10 C6         6.4895    3.2025    5.7139 C.2       1 RES1    0.0000
     11 H1         7.0557    5.2013    7.5409 H         1 RES1    0.0000
     12 H2         3.3500    6.5468    8.2916 H         1 RES1    0.0000
     13 H3         2.3272    4.7315    6.8661 H         1 RES1    0.0000
     14 H4         3.8836    3.2685    5.6936 H         1 RES1    0.0000
     15 H5         7.7673    3.0288    7.0601 H         1 RES1    0.0000
     16 H6         9.1310    2.5590    5.0526 H         1 RES1    0.0000
@<TRIPOS>BOND
     1    1    3 1
     2    2   10 2
     3    3   10 1
     4    4    6 ar
     5    5    6 ar
     6    6   11 1
     7    7    4 ar
     8    8    7 ar
     9    9    5 ar
    10   10    5 1
    11   12    7 1
    12   13    8 1
    13   14    9 1
    14   15    3 1
    15   16    1 1
    16    8    9 ar
@<TRIPOS>SUBSTRUCTURE
     1 RES1 1

@<TRIPOS>CRYSIN
  14.8230    4.8930    8.4350  90.0000  90.0000  90.0000  29 1

