# MOL2 file generated by ConQuest
# Please check atom types

@<TRIPOS>MOLECULE
FXMCDM
    21    21     1
SMALL
USER_CHARGES
****
Generated from CSD

@<TRIPOS>ATOM
      1 C1         5.3837    3.5294    5.3834 C.2       1 RES1    0.0000
      2 C2         5.8591    2.8528    4.2237 C.2       1 RES1    0.0000
      3 C3         6.1818    4.2121    6.4180 C.3       1 RES1    0.0000
      4 C4         7.2835    2.5730    3.8460 C.2       1 RES1    0.0000
      5 C5         9.0307    2.5265    2.1967 C.3       1 RES1    0.0000
      6 C6         6.8376    3.5162    1.5868 C.3       1 RES1    0.0000
      7 H1         5.6041    4.7818    6.9654 H         1 RES1    0.0000
      8 H2         6.6798    3.5883    6.9654 H         1 RES1    0.0000
      9 H3         6.8186    4.7275    6.0391 H         1 RES1    0.0000
     10 H4         9.3864    1.7360    2.6586 H         1 RES1    0.0000
     11 H5         9.5252    3.3015    2.0090 H         1 RES1    0.0000
     12 H6         9.0394    1.8678    1.4797 H         1 RES1    0.0000
     13 H7         5.9684    3.9370    2.0090 H         1 RES1    0.0000
     14 H8         7.3217    4.3013    1.2391 H         1 RES1    0.0000
     15 H9         6.5583    2.8210    0.9263 H         1 RES1    0.0000
     16 N1         4.0842    3.4821    5.4279 N.2       1 RES1    0.0000
     17 N2         4.8181    2.3506    3.6054 N.pl3     1 RES1    1.0000
     18 N3         7.6548    2.8373    2.5865 N.am      1 RES1    0.0000
     19 O1         3.6487    2.7489    4.3380 O.3       1 RES1    0.0000
     20 O2         4.6342    1.6523    2.6069 O.2       1 RES1   -1.0000
     21 O3         8.0244    2.1266    4.7134 O.2       1 RES1    0.0000
@<TRIPOS>BOND
     1    1    2 1
     2    2    4 1
     3    3    1 1
     4    4   18 1
     5    5   10 1
     6    6   13 1
     7    7    3 1
     8    8    3 1
     9    9    3 1
    10   11    5 1
    11   12    5 1
    12   14    6 1
    13   15    6 1
    14   16    1 2
    15   17    2 2
    16   18    5 1
    17   19   16 1
    18   20   17 1
    19   21    4 2
    20    6   18 1
    21   17   19 1
@<TRIPOS>SUBSTRUCTURE
     1 RES1 1

@<TRIPOS>CRYSIN
  17.3500    7.7500   12.0300  90.0000  90.0000  90.0000  61 1

