# MOL2 file generated by ConQuest
# Please check atom types

@<TRIPOS>MOLECULE
GACGAS
    26    26     1
SMALL
NO_CHARGES
****
Generated from CSD

@<TRIPOS>ATOM
      1 O1         4.7398    1.4491   13.4988 O.3       1 RES1    0.0000
      2 O2         4.9759    0.8176   10.9832 O.2       1 RES1    0.0000
      3 O3         3.9045    2.1146    9.4995 O.3       1 RES1    0.0000
      4 O4         1.7149    5.8071   17.9833 O.2       1 RES1    0.0000
      5 O5         2.5515    7.3650   16.8398 O.2       1 RES1    0.0000
      6 N1         2.0741    4.4585   10.9111 N.1       1 RES1    0.0000
      7 N2         2.3189    6.1965   17.0253 N.pl3     1 RES1    0.0000
      8 C1         3.9957    2.4655   13.0666 C.2       1 RES1    0.0000
      9 C2         3.6709    2.6211   11.7541 C.2       1 RES1    0.0000
     10 H1         4.9623    0.9591   13.8766 H         1 RES1    0.0000
     11 H2         4.3342    1.8012    7.7249 H         1 RES1    0.0000
     12 H3         5.5726    1.5322    8.4293 H         1 RES1    0.0000
     13 H4         4.1801    0.3977    8.3354 H         1 RES1    0.0000
     14 C3         2.7988    3.6667   11.3173 C.1       1 RES1    0.0000
     15 C4         4.2468    1.7521   10.7280 C.2       1 RES1    0.0000
     16 C5         4.5246    1.3614    8.4246 C.3       1 RES1    0.0000
     17 C6         3.5844    3.4094   14.1279 C.ar      1 RES1    0.0000
     18 C7         3.0325    2.9649   15.3230 C.ar      1 RES1    0.0000
     19 C8         2.6150    3.8679   16.2763 C.ar      1 RES1    0.0000
     20 C9         2.7907    5.2164   16.0274 C.ar      1 RES1    0.0000
     21 C10        3.3733    5.6948   14.8745 C.ar      1 RES1    0.0000
     22 C11        3.7683    4.7778   13.9166 C.ar      1 RES1    0.0000
     23 H5         2.9562    1.9883   15.4968 H         1 RES1    0.0000
     24 H6         2.2394    3.5088   17.1169 H         1 RES1    0.0000
     25 H7         3.3344    6.6901   14.6045 H         1 RES1    0.0000
     26 H8         4.2837    5.1228   13.0783 H         1 RES1    0.0000
@<TRIPOS>BOND
     1    1    8 1
     2    2   15 2
     3    3   15 1
     4    4    7 2
     5    5    7 2
     6    6   14 3
     7    7   20 1
     8    8    9 2
     9    9   14 1
    10   10    1 1
    11   11   16 1
    12   12   16 1
    13   13   16 1
    14   15    9 1
    15   16    3 1
    16   17    8 1
    17   18   17 ar
    18   19   18 ar
    19   20   19 ar
    20   21   20 ar
    21   22   17 ar
    22   23   18 1
    23   24   19 1
    24   25   21 1
    25   26   22 1
    26   21   22 ar
@<TRIPOS>SUBSTRUCTURE
     1 RES1 1

@<TRIPOS>CRYSIN
   4.0420   11.6960   23.4850  90.0000  91.1900  90.0000  14 1

