# MOL2 file generated by ConQuest
# Please check atom types

@<TRIPOS>MOLECULE
GACVEN
    54    57     1
SMALL
NO_CHARGES
****
Generated from CSD

@<TRIPOS>ATOM
      1 O1         7.0062    1.2328    2.2476 O.3       1 RES1    0.0000
      2 O2         8.8179    2.3033    0.3324 O.3       1 RES1    0.0000
      3 C1         6.7033    2.3653    1.3959 C.3       1 RES1    0.0000
      4 O3         6.9178    4.7246    1.5685 O.2       1 RES1    0.0000
      5 O4         7.0554   -1.1664   -1.2586 O.3       1 RES1    0.0000
      6 O5         7.9009    3.4771    3.1386 O.3       1 RES1    0.0000
      7 N1         5.8431    0.4557    2.4335 N.2       1 RES1    0.0000
      8 C2         7.4002    2.2340    0.0519 C.3       1 RES1    0.0000
      9 H1         7.1453    2.9890   -0.5184 H         1 RES1    0.0000
     10 O6         9.1553    3.4506   -1.5467 O.2       1 RES1    0.0000
     11 C3         3.1215   -0.5677    2.8019 C.ar      1 RES1    0.0000
     12 C4         3.4718    0.4896    1.9344 C.ar      1 RES1    0.0000
     13 C5         5.1774    2.3535    1.2511 C.3       1 RES1    0.0000
     14 H2         4.7684    3.0967    1.7225 H         1 RES1    0.0000
     15 H3         4.9078    2.3771    0.3199 H         1 RES1    0.0000
     16 C6         4.8308    1.0381    1.8908 C.2       1 RES1    0.0000
     17 C7         7.1801    3.6614    2.0625 C.2       1 RES1    0.0000
     18 C8         1.7551   -0.9216    2.8271 C.ar      1 RES1    0.0000
     19 H4         1.4764   -1.6014    3.3973 H         1 RES1    0.0000
     20 C9         9.6083    2.8887   -0.5753 C.2       1 RES1    0.0000
     21 C10        6.1127    0.7358   -1.6715 C.2       1 RES1    0.0000
     22 C11        5.1847    1.6766   -2.3330 C.ar      1 RES1    0.0000
     23 C12        1.1866    0.7314    1.1899 C.ar      1 RES1    0.0000
     24 H5         0.5539    1.1546    0.6557 H         1 RES1    0.0000
     25 C13        7.1031    0.9467   -0.6682 C.2       1 RES1    0.0000
     26 N2         3.9945   -1.2564    3.6000 N.pl3     1 RES1    0.0000
     27 N3         6.0522   -0.5294   -2.0491 N.2       1 RES1    0.0000
     28 C14        2.5107    1.1133    1.1564 C.ar      1 RES1    0.0000
     29 H6         2.7657    1.8108    0.5954 H         1 RES1    0.0000
     30 C15        7.6680   -0.2610   -0.4413 C.2       1 RES1    0.0000
     31 C16        0.8253   -0.2934    2.0357 C.ar      1 RES1    0.0000
     32 H7        -0.0642   -0.5662    2.0709 H         1 RES1    0.0000
     33 C17       11.0517    2.7147   -0.2948 C.3       1 RES1    0.0000
     34 H8        11.2919    1.7931   -0.4162 H         1 RES1    0.0000
     35 H9        11.2351    2.9757    0.6105 H         1 RES1    0.0000
     36 H10       11.5634    3.2603   -0.8969 H         1 RES1    0.0000
     37 C18        8.7280   -0.7919    0.4271 C.3       1 RES1    0.0000
     38 H11        9.4818   -1.0499   -0.1089 H         1 RES1    0.0000
     39 H12        8.3979   -1.5587    0.9036 H         1 RES1    0.0000
     40 H13        8.9958   -0.1165    1.0543 H         1 RES1    0.0000
     41 C19        4.7226    3.7307   -3.4601 C.ar      1 RES1    0.0000
     42 H14        5.0068    4.5609   -3.7691 H         1 RES1    0.0000
     43 C20        3.0133    2.1323   -3.1947 C.ar      1 RES1    0.0000
     44 H15        2.1348    1.8668   -3.3504 H         1 RES1    0.0000
     45 C21        8.3850    4.6833    3.7658 C.3       1 RES1    0.0000
     46 H16        8.9463    5.1611    3.1495 H         1 RES1    0.0000
     47 H17        8.8912    4.4562    4.5488 H         1 RES1    0.0000
     48 H18        7.6404    5.2363    4.0145 H         1 RES1    0.0000
     49 C22        3.8697    1.2932   -2.5047 C.ar      1 RES1    0.0000
     50 H19        3.5635    0.4837   -2.1630 H         1 RES1    0.0000
     51 C23        5.6047    2.8814   -2.8061 C.ar      1 RES1    0.0000
     52 H20        6.4905    3.1379   -2.6906 H         1 RES1    0.0000
     53 C24        3.4351    3.3267   -3.6410 C.ar      1 RES1    0.0000
     54 H21        2.8390    3.8870   -4.0815 H         1 RES1    0.0000
@<TRIPOS>BOND
     1    1    3 1
     2    2    8 1
     3    3    8 1
     4    4   17 2
     5    5   27 1
     6    6   17 1
     7    7    1 1
     8    8    9 1
     9   10   20 2
    10   11   12 ar
    11   12   16 1
    12   13    3 1
    13   14   13 1
    14   15   13 1
    15   16    7 2
    16   17    3 1
    17   18   11 ar
    18   19   18 1
    19   20    2 1
    20   21   22 1
    21   22   49 ar
    22   23   24 1
    23   25    8 1
    24   26   11 1
    25   27   21 2
    26   28   12 ar
    27   29   28 1
    28   30    5 1
    29   31   18 ar
    30   32   31 1
    31   33   20 1
    32   34   33 1
    33   35   33 1
    34   36   33 1
    35   37   30 1
    36   38   37 1
    37   39   37 1
    38   40   37 1
    39   41   42 1
    40   43   44 1
    41   45    6 1
    42   46   45 1
    43   47   45 1
    44   48   45 1
    45   49   43 ar
    46   50   49 1
    47   51   22 ar
    48   52   51 1
    49   53   41 ar
    50   54   53 1
    51   13   16 1
    52   21   25 1
    53   23   28 ar
    54   23   31 ar
    55   25   30 2
    56   41   51 ar
    57   43   53 ar
@<TRIPOS>SUBSTRUCTURE
     1 RES1 1

@<TRIPOS>CRYSIN
  18.3400   14.7460    8.3740  90.0000  90.0000  90.0000  33 1

