# MOL2 file generated by ConQuest
# Please check atom types

@<TRIPOS>MOLECULE
GACZIU
    37    39     1
SMALL
NO_CHARGES
****
Generated from CSD

@<TRIPOS>ATOM
      1 O1         2.2960    5.1358    7.6939 O.3       1 RES1    0.0000
      2 O2         0.6354    0.8869    6.9564 O.2       1 RES1    0.0000
      3 O3         1.9061    7.2221    6.1926 O.3       1 RES1    0.0000
      4 O4         0.3613    6.2068    4.9343 O.2       1 RES1    0.0000
      5 N1         0.7513    1.6053    9.0859 N.am      1 RES1    0.0000
      6 C1         1.9324    2.8550    7.3253 C.3       1 RES1    0.0000
      7 N2         2.2928    3.8337    8.3961 N.3       1 RES1    0.0000
      8 C2         1.5246    4.9636    6.5696 C.2       1 RES1    0.0000
      9 C3         1.2335    3.7107    6.3037 C.2       1 RES1    0.0000
     10 H1         0.6929    3.4071    5.6095 H         1 RES1    0.0000
     11 C4         1.0296    1.6957    7.7989 C.2       1 RES1    0.0000
     12 C5         1.1438    2.5998   10.0677 C.3       1 RES1    0.0000
     13 H2         1.9983    2.3530   10.4530 H         1 RES1    0.0000
     14 H3         0.4873    2.6254   10.7822 H         1 RES1    0.0000
     15 C6         1.2513    3.9620    9.4347 C.3       1 RES1    0.0000
     16 H4         0.3968    4.2066    9.0216 H         1 RES1    0.0000
     17 C7         3.2293    2.2138    6.8025 C.ar      1 RES1    0.0000
     18 C8         4.1871    1.7975    7.6994 C.ar      1 RES1    0.0000
     19 H5         4.0441    1.9227    8.6100 H         1 RES1    0.0000
     20 C9         5.3580    1.1957    7.2736 C.ar      1 RES1    0.0000
     21 H6         5.9976    0.9298    7.8943 H         1 RES1    0.0000
     22 C10        5.5746    0.9927    5.9333 C.ar      1 RES1    0.0000
     23 H7         6.3614    0.5922    5.6414 H         1 RES1    0.0000
     24 C11        4.6219    1.3854    5.0267 C.ar      1 RES1    0.0000
     25 H8         4.7581    1.2338    4.1194 H         1 RES1    0.0000
     26 C12        3.4544    2.0068    5.4534 C.ar      1 RES1    0.0000
     27 H9         2.8224    2.2839    4.8300 H         1 RES1    0.0000
     28 C13        1.1861    6.1782    5.8047 C.2       1 RES1    0.0000
     29 C14        1.6515    8.4586    5.4902 C.3       1 RES1    0.0000
     30 H10        2.0144    8.4033    4.6032 H         1 RES1    0.0000
     31 H11        2.0660    9.1850    5.9606 H         1 RES1    0.0000
     32 H12        0.7048    8.6086    5.4398 H         1 RES1    0.0000
     33 C15        1.6498    5.0106   10.4518 C.3       1 RES1    0.0000
     34 H13        2.4628    4.7435   10.8864 H         1 RES1    0.0000
     35 H14        0.9535    5.1028   11.1065 H         1 RES1    0.0000
     36 H15        1.7851    5.8509   10.0078 H         1 RES1    0.0000
     37 H16        0.2792    0.9021    9.3274 H         1 RES1    0.0000
@<TRIPOS>BOND
     1    1    7 1
     2    2   11 2
     3    3   28 1
     4    4   28 2
     5    5   11 1
     6    6    7 1
     7    7   15 1
     8    8    1 1
     9    9    6 1
    10   10    9 1
    11   11    6 1
    12   12    5 1
    13   13   12 1
    14   14   12 1
    15   15   12 1
    16   16   15 1
    17   17    6 1
    18   18   17 ar
    19   19   18 1
    20   20   18 ar
    21   21   20 1
    22   22   20 ar
    23   23   22 1
    24   24   22 ar
    25   25   24 1
    26   26   17 ar
    27   27   26 1
    28   28    8 1
    29   29    3 1
    30   30   29 1
    31   31   29 1
    32   32   29 1
    33   33   15 1
    34   34   33 1
    35   35   33 1
    36   36   33 1
    37   37    5 1
    38    8    9 2
    39   24   26 ar
@<TRIPOS>SUBSTRUCTURE
     1 RES1 1

@<TRIPOS>CRYSIN
   8.4604   19.7400   16.8000  90.0000  90.0000  90.0000  61 1

