# MOL2 file generated by ConQuest
# Please check atom types

@<TRIPOS>MOLECULE
GADCIX
    20    20     1
SMALL
NO_CHARGES
****
Generated from CSD

@<TRIPOS>ATOM
      1 C1         8.2416    0.6165    3.6002 C.2       1 RES1    0.0000
      2 O1         7.0209    1.1363    3.3578 O.3       1 RES1    0.0000
      3 N1         6.4442    1.3947    4.6356 N.2       1 RES1    0.0000
      4 C2         7.3722    0.9924    5.4679 C.2       1 RES1    0.0000
      5 N2         8.5112    0.5198    4.8722 N.2       1 RES1    0.0000
      6 N3         8.9698    0.2815    2.5691 N.3       1 RES1    0.0000
      7 C3         7.1546    1.0691    6.9211 C.2       1 RES1    0.0000
      8 N4         8.0117    1.3485    7.8113 N.2       1 RES1    0.0000
      9 O2         9.2410    1.6205    7.2936 O.3       1 RES1    0.0000
     10 C4        10.1372    2.0668    8.3676 C.3       1 RES1    0.0000
     11 C5         5.7962    0.7982    7.5319 C.2       1 RES1    0.0000
     12 O3         5.7178    0.4358    8.7007 O.2       1 RES1    0.0000
     13 N5         4.7200    0.9609    6.7533 N.am      1 RES1    0.0000
     14 H1         8.6316   -0.0651    1.7351 H         1 RES1    0.0000
     15 H2         9.9130    0.2289    2.6404 H         1 RES1    0.0000
     16 H3        11.0037    2.2548    8.0018 H         1 RES1    0.0000
     17 H4        10.2123    1.3800    9.0346 H         1 RES1    0.0000
     18 H5         9.7784    2.8628    8.7669 H         1 RES1    0.0000
     19 H6         3.9681    1.3632    7.1820 H         1 RES1    0.0000
     20 H7         4.7441    1.1741    5.8312 H         1 RES1    0.0000
@<TRIPOS>BOND
     1    1    2 1
     2    2    3 1
     3    3    4 2
     4    4    5 1
     5    5    1 2
     6    6    1 1
     7    7    4 1
     8    8    7 2
     9    9    8 1
    10   10    9 1
    11   11    7 1
    12   12   11 2
    13   13   11 1
    14   14    6 1
    15   15    6 1
    16   16   10 1
    17   17   10 1
    18   18   10 1
    19   19   13 1
    20   20   13 1
@<TRIPOS>SUBSTRUCTURE
     1 RES1 1

