# MOL2 file generated by ConQuest
# Please check atom types

@<TRIPOS>MOLECULE
GADCIA
    52    52     1
SMALL
NO_CHARGES
****
Generated from CSD

@<TRIPOS>ATOM
      1 O1         1.9113    4.5853    5.0952 O.2       1 RES1    0.0000
      2 O2         1.0593    4.4118    7.1989 O.3       1 RES1    0.0000
      3 O3         1.7020    0.9894    4.5889 O.2       1 RES1    0.0000
      4 O4         3.7871    1.1616    3.6905 O.3       1 RES1    0.0000
      5 O5         4.3676    3.2690    8.1498 O.2       1 RES1    0.0000
      6 O6         3.8272    1.5875    9.4269 O.2       1 RES1    0.0000
      7 N1         3.3174    2.3088    5.5168 N.am      1 RES1    0.0000
      8 N2         2.4258    2.8227    6.4530 N.am      1 RES1    0.0000
      9 N3         3.6223    2.3514    8.4753 N.pl3     1 RES1    0.0000
     10 C1         2.8202    1.4466    4.5816 C.2       1 RES1    0.0000
     11 C2         1.7965    4.0215    6.1653 C.2       1 RES1    0.0000
     12 C3         2.3770    2.1706    7.6850 C.2       1 RES1    0.0000
     13 C4         0.0251    1.3134    7.5484 C.3       1 RES1    0.0000
     14 C5         1.3611    1.4787    8.1930 C.2       1 RES1    0.0000
     15 C6        -0.2816   -0.1582    7.2215 C.3       1 RES1    0.0000
     16 C7         0.3117    5.6683    7.0513 C.3       1 RES1    0.0000
     17 C8        -1.0567    1.8832    8.4826 C.3       1 RES1    0.0000
     18 C9         3.4062    0.3023    2.5697 C.3       1 RES1    0.0000
     19 C10       -1.6687   -0.2857    6.5825 C.3       1 RES1    0.0000
     20 C11       -2.4426    1.7592    7.8535 C.3       1 RES1    0.0000
     21 C12       -0.9366    5.4093    6.2591 C.3       1 RES1    0.0000
     22 C13        0.0379    6.1173    8.4638 C.3       1 RES1    0.0000
     23 C14        3.1198    1.1850    1.4006 C.3       1 RES1    0.0000
     24 C15       -2.7531    0.3117    7.4796 C.3       1 RES1    0.0000
     25 C16        4.5496   -0.6378    2.3402 C.3       1 RES1    0.0000
     26 H1         4.1500    2.5262    5.5261 H         1 RES1    0.0000
     27 H2         0.0172    1.8267    6.7131 H         1 RES1    0.0000
     28 H3         1.4936    1.0654    9.0147 H         1 RES1    0.0000
     29 H4        -0.2500   -0.6849    8.0355 H         1 RES1    0.0000
     30 H5         0.3896   -0.5026    6.6122 H         1 RES1    0.0000
     31 H6         0.8656    6.3335    6.5924 H         1 RES1    0.0000
     32 H7        -1.0405    1.4045    9.3253 H         1 RES1    0.0000
     33 H8        -0.8667    2.8169    8.6636 H         1 RES1    0.0000
     34 H9         2.6025   -0.2067    2.8031 H         1 RES1    0.0000
     35 H10       -1.8633   -1.2221    6.4223 H         1 RES1    0.0000
     36 H11       -1.6712    0.1713    5.7269 H         1 RES1    0.0000
     37 H12       -3.1100    2.0795    8.4806 H         1 RES1    0.0000
     38 H13       -2.4869    2.3132    7.0592 H         1 RES1    0.0000
     39 H14       -0.6994    5.1372    5.3699 H         1 RES1    0.0000
     40 H15       -1.4620    6.2117    6.2185 H         1 RES1    0.0000
     41 H16       -1.4455    4.7147    6.6814 H         1 RES1    0.0000
     42 H17        0.8698    6.2712    8.9168 H         1 RES1    0.0000
     43 H18       -0.4581    5.4372    8.9257 H         1 RES1    0.0000
     44 H19       -0.4726    6.9307    8.4470 H         1 RES1    0.0000
     45 H20        2.3825    1.7632    1.6093 H         1 RES1    0.0000
     46 H21        2.8979    0.6448    0.6390 H         1 RES1    0.0000
     47 H22        3.8962    1.7149    1.2018 H         1 RES1    0.0000
     48 H23       -3.6060    0.2753    7.0187 H         1 RES1    0.0000
     49 H24       -2.8288   -0.2190    8.2877 H         1 RES1    0.0000
     50 H25        4.6708   -1.1888    3.1167 H         1 RES1    0.0000
     51 H26        5.3496   -0.1343    2.1780 H         1 RES1    0.0000
     52 H27        4.3598   -1.1926    1.5806 H         1 RES1    0.0000
@<TRIPOS>BOND
     1    1   11 2
     2    2   11 1
     3    3   10 2
     4    4   10 1
     5    5    9 2
     6    6    9 2
     7    7    8 1
     8    8   11 1
     9    9   12 1
    10   10    7 1
    11   12    8 1
    12   13   14 1
    13   14   12 2
    14   15   13 1
    15   16    2 1
    16   17   13 1
    17   18    4 1
    18   19   15 1
    19   20   17 1
    20   21   16 1
    21   22   16 1
    22   23   18 1
    23   24   19 1
    24   25   18 1
    25   26    7 1
    26   27   13 1
    27   28   14 1
    28   29   15 1
    29   30   15 1
    30   31   16 1
    31   32   17 1
    32   33   17 1
    33   34   18 1
    34   35   19 1
    35   36   19 1
    36   37   20 1
    37   38   20 1
    38   39   21 1
    39   40   21 1
    40   41   21 1
    41   42   22 1
    42   43   22 1
    43   44   22 1
    44   45   23 1
    45   46   23 1
    46   47   23 1
    47   48   24 1
    48   49   24 1
    49   50   25 1
    50   51   25 1
    51   52   25 1
    52   20   24 1
@<TRIPOS>SUBSTRUCTURE
     1 RES1 1

@<TRIPOS>CRYSIN
   9.7770   10.1590   10.3060 102.2650 100.4800  90.5080   2 1

