# MOL2 file generated by ConQuest
# Please check atom types

@<TRIPOS>MOLECULE
GADFOJ
    40    41     1
SMALL
NO_CHARGES
****
Generated from CSD

@<TRIPOS>ATOM
      1 O1        -1.3446    2.9464    7.9725 O.3       1 RES1    0.0000
      2 O2        -1.6753    2.3442   10.0970 O.2       1 RES1    0.0000
      3 O3         3.5542    2.5936    6.9266 O.2       1 RES1    0.0000
      4 N1         3.4385    1.6634    6.0271 N.pl3     1 RES1    0.0000
      5 C1         0.1061    1.3542    8.8747 C.ar      1 RES1    0.0000
      6 C2         0.8584    1.3625    7.7090 C.ar      1 RES1    0.0000
      7 H1         0.6243    1.9481    6.9977 H         1 RES1    0.0000
      8 C3         1.5387   -0.3440    9.7873 C.ar      1 RES1    0.0000
      9 H2         1.7708   -0.9292   10.4986 H         1 RES1    0.0000
     10 C4         1.9624    0.5094    7.5781 C.ar      1 RES1    0.0000
     11 C5         0.4546    0.5052    9.9223 C.ar      1 RES1    0.0000
     12 H3        -0.0507    0.5095   10.7264 H         1 RES1    0.0000
     13 C6         2.7188    0.5202    6.3080 C.ar      1 RES1    0.0000
     14 C7         2.2891   -0.3461    8.6193 C.ar      1 RES1    0.0000
     15 H4         3.0291   -0.9357    8.5327 H         1 RES1    0.0000
     16 C8        -1.0609    2.2638    9.0626 C.2       1 RES1    0.0000
     17 C9         2.6983   -0.5181    5.3812 C.ar      1 RES1    0.0000
     18 C10        3.3455   -0.3516    4.1617 C.ar      1 RES1    0.0000
     19 H5         3.3431   -1.0557    3.5246 H         1 RES1    0.0000
     20 C11        4.0335    1.8162    4.8153 C.ar      1 RES1    0.0000
     21 H6         4.4896    2.6264    4.6184 H         1 RES1    0.0000
     22 C12       -2.4530    3.9352    7.9193 C.3       1 RES1    0.0000
     23 C13        3.9886    0.8307    3.8772 C.ar      1 RES1    0.0000
     24 H7         4.3986    0.9595    3.0298 H         1 RES1    0.0000
     25 C14        1.9802   -1.7967    5.7142 C.3       1 RES1    0.0000
     26 H8         1.9517   -2.3711    4.9204 H         1 RES1    0.0000
     27 H9         1.0658   -1.5923    6.0018 H         1 RES1    0.0000
     28 H10        2.4552   -2.2597    6.4358 H         1 RES1    0.0000
     29 C15       -3.7689    3.2440    8.1255 C.3       1 RES1    0.0000
     30 H11       -4.4994    3.8822    7.9832 H         1 RES1    0.0000
     31 H12       -3.8152    2.8935    9.0388 H         1 RES1    0.0000
     32 H13       -3.8536    2.5052    7.4874 H         1 RES1    0.0000
     33 C16       -2.2518    5.0018    8.9502 C.3       1 RES1    0.0000
     34 H14       -1.3513    5.3771    8.8615 H         1 RES1    0.0000
     35 H15       -2.3585    4.6156    9.8450 H         1 RES1    0.0000
     36 H16       -2.9155    5.7114    8.8203 H         1 RES1    0.0000
     37 C17       -2.3307    4.4620    6.5379 C.3       1 RES1    0.0000
     38 H17       -1.4107    4.7606    6.3822 H         1 RES1    0.0000
     39 H18       -2.9431    5.2192    6.4214 H         1 RES1    0.0000
     40 H19       -2.5595    3.7567    5.8977 H         1 RES1    0.0000
@<TRIPOS>BOND
     1    1   16 1
     2    2   16 2
     3    3    4 1
     4    4   13 ar
     5    5    6 ar
     6    6    7 1
     7    8    9 1
     8   10    6 ar
     9   11    5 ar
    10   12   11 1
    11   13   10 1
    12   14    8 ar
    13   15   14 1
    14   16    5 1
    15   17   13 ar
    16   18   17 ar
    17   19   18 1
    18   20    4 ar
    19   21   20 1
    20   22    1 1
    21   23   18 ar
    22   24   23 1
    23   25   17 1
    24   26   25 1
    25   27   25 1
    26   28   25 1
    27   29   22 1
    28   30   29 1
    29   31   29 1
    30   32   29 1
    31   33   22 1
    32   34   33 1
    33   35   33 1
    34   36   33 1
    35   37   22 1
    36   38   37 1
    37   39   37 1
    38   40   37 1
    39    8   11 ar
    40   10   14 ar
    41   20   23 ar
@<TRIPOS>SUBSTRUCTURE
     1 RES1 1

@<TRIPOS>CRYSIN
  13.6690   10.8170   10.9271  90.0000 109.3650  90.0000  14 1

