# MOL2 file generated by ConQuest
# Please check atom types

@<TRIPOS>MOLECULE
GADGOJ
    70    72     1
SMALL
NO_CHARGES
****
Generated from CSD

@<TRIPOS>ATOM
      1 O1        12.1411    5.6085    1.0034 O.2       1 RES1    0.0000
      2 O2         7.8913    4.5105    3.6756 O.2       1 RES1    0.0000
      3 N1         9.6514    4.0730    5.9994 N.am      1 RES1    0.0000
      4 O3         9.6148    4.2938    8.2354 O.2       1 RES1    0.0000
      5 N2         8.7976    4.3116    1.6019 N.am      1 RES1    0.0000
      6 N3        12.5864    5.4999    3.2123 N.am      1 RES1    0.0000
      7 N4        10.8440    3.1264    3.6681 N.3       1 RES1    0.0000
      8 C1         9.2134    2.9230    1.7590 C.3       1 RES1    0.0000
      9 C2        13.1042    4.1410    3.1791 C.3       1 RES1    0.0000
     10 N5         5.7452   10.0530    1.3682 N.pl3     1 RES1    0.0000
     11 C3        11.5101    7.4839    2.3056 C.ar      1 RES1    0.0000
     12 O4         8.9614   11.6452    1.6442 O.2       1 RES1    0.0000
     13 C4         8.1135    4.9720    2.5405 C.2       1 RES1    0.0000
     14 O5         5.7606   10.4733    0.2126 O.2       1 RES1    0.0000
     15 C5         6.3887    8.7576    1.6437 C.ar      1 RES1    0.0000
     16 O6         5.2367   10.6593    2.3048 O.2       1 RES1    0.0000
     17 O7         8.1607   10.9004    5.8310 O.2       1 RES1    0.0000
     18 C6        10.6117    7.8975    1.3161 C.ar      1 RES1    0.0000
     19 C7         7.5455    6.3201    2.1780 C.ar      1 RES1    0.0000
     20 C8        11.3160    9.6368    3.3675 C.ar      1 RES1    0.0000
     21 O8        10.5358   12.2397    3.0047 O.2       1 RES1    0.0000
     22 C9         7.3668    6.7470    0.8633 C.ar      1 RES1    0.0000
     23 C10       11.8368    8.3601    3.3408 C.ar      1 RES1    0.0000
     24 C11        8.1150    8.7904    6.7898 C.ar      1 RES1    0.0000
     25 C12       10.1665    2.1942    4.5683 C.3       1 RES1    0.0000
     26 C13        7.9932    6.6650    7.8314 C.ar      1 RES1    0.0000
     27 C14       12.2727    3.1796    3.9969 C.3       1 RES1    0.0000
     28 C15       10.1248    2.6998    5.9972 C.3       1 RES1    0.0000
     29 H1         9.5289    2.1451    6.5255 H         1 RES1    0.0000
     30 H2        11.0105    2.6547    6.3891 H         1 RES1    0.0000
     31 C16        9.4914    7.0330    5.9757 C.ar      1 RES1    0.0000
     32 C17       12.1144    6.1240    2.1330 C.2       1 RES1    0.0000
     33 N6         9.9397   11.3973    2.3377 N.pl3     1 RES1    0.0000
     34 C18       10.6339    2.7497    2.2656 C.3       1 RES1    0.0000
     35 H3        10.8900    1.8204    2.1555 H         1 RES1    0.0000
     36 H4        11.2254    3.2825    1.7112 H         1 RES1    0.0000
     37 C19        6.7851    7.9624    0.5863 C.ar      1 RES1    0.0000
     38 C20        9.4345    4.7684    7.1032 C.2       1 RES1    0.0000
     39 C21       10.4511   10.0208    2.3622 C.ar      1 RES1    0.0000
     40 C22        6.5584    8.3767    2.9583 C.ar      1 RES1    0.0000
     41 C23        7.5713    7.9757    7.7600 C.ar      1 RES1    0.0000
     42 C24        7.1262    7.1470    3.2156 C.ar      1 RES1    0.0000
     43 C25        9.0767    8.3448    5.9026 C.ar      1 RES1    0.0000
     44 C26       10.0612    9.1643    1.3470 C.ar      1 RES1    0.0000
     45 C27        8.9582    6.1767    6.9432 C.ar      1 RES1    0.0000
     46 N7         7.6608   10.1899    6.7069 N.pl3     1 RES1    0.0000
     47 O9         6.8203   10.5862    7.4983 O.2       1 RES1    0.0000
     48 H5        13.1907    3.8784    2.2736 H         1 RES1    0.0000
     49 H6         7.6183    6.0894    8.5319 H         1 RES1    0.0000
     50 H7         8.5508    2.4757    2.3523 H         1 RES1    0.0000
     51 H8         6.2908    8.9847    3.6417 H         1 RES1    0.0000
     52 H9        12.6871    2.2887    3.9665 H         1 RES1    0.0000
     53 H10        9.1817    2.5092    0.8450 H         1 RES1    0.0000
     54 H11       14.0221    4.1519    3.5320 H         1 RES1    0.0000
     55 H12        7.6227    6.1807    0.1294 H         1 RES1    0.0000
     56 H13       12.5367    5.9051    4.0073 H         1 RES1    0.0000
     57 H14       10.6145    1.3131    4.5894 H         1 RES1    0.0000
     58 H15        9.3923    4.3922    5.2713 H         1 RES1    0.0000
     59 H16        6.6483    8.2850   -0.2812 H         1 RES1    0.0000
     60 H17       12.3414    3.4279    4.9817 H         1 RES1    0.0000
     61 H18       11.5533   10.3105    4.0466 H         1 RES1    0.0000
     62 H19        9.2165    2.0693    4.2941 H         1 RES1    0.0000
     63 H20        9.4467    9.5010    0.6468 H         1 RES1    0.0000
     64 H21        6.9015    8.3251    8.3267 H         1 RES1    0.0000
     65 H22       10.1800    6.6716    5.3964 H         1 RES1    0.0000
     66 H23       10.3790    7.2764    0.6327 H         1 RES1    0.0000
     67 H24       12.4100    8.0530    4.0073 H         1 RES1    0.0000
     68 H25        7.2410    6.8584    4.0776 H         1 RES1    0.0000
     69 H26        9.0012    4.7229    0.8296 H         1 RES1    0.0000
     70 H27        9.4109    8.9620    5.2586 H         1 RES1    0.0000
@<TRIPOS>BOND
     1    1   32 2
     2    2   13 2
     3    3   28 1
     4    4   38 2
     5    5    8 1
     6    6    9 1
     7    7   25 1
     8    8   34 1
     9    9   27 1
    10   10   14 2
    11   11   18 ar
    12   12   33 2
    13   13    5 1
    14   15   10 1
    15   16   10 2
    16   17   46 2
    17   18   44 ar
    18   19   13 1
    19   20   23 ar
    20   21   33 2
    21   22   19 ar
    22   23   11 ar
    23   24   41 ar
    24   25   28 1
    25   26   41 ar
    26   27    7 1
    27   28   29 1
    28   30   28 1
    29   31   43 ar
    30   32    6 1
    31   33   39 1
    32   34    7 1
    33   35   34 1
    34   36   34 1
    35   37   15 ar
    36   38    3 1
    37   39   20 ar
    38   40   15 ar
    39   41   64 1
    40   42   19 ar
    41   43   24 ar
    42   44   39 ar
    43   45   26 ar
    44   46   24 1
    45   47   46 2
    46   48    9 1
    47   49   26 1
    48   50    8 1
    49   51   40 1
    50   52   27 1
    51   53    8 1
    52   54    9 1
    53   55   22 1
    54   56    6 1
    55   57   25 1
    56   58    3 1
    57   59   37 1
    58   60   27 1
    59   61   20 1
    60   62   25 1
    61   63   44 1
    62   65   31 1
    63   66   18 1
    64   67   23 1
    65   68   42 1
    66   69    5 1
    67   70   43 1
    68   11   32 1
    69   22   37 ar
    70   31   45 ar
    71   38   45 1
    72   40   42 ar
@<TRIPOS>SUBSTRUCTURE
     1 RES1 1

@<TRIPOS>CRYSIN
   8.7155   11.7684   14.0949  88.5660  85.9990  68.6240   2 1

