# MOL2 file generated by ConQuest
# Please check atom types

@<TRIPOS>MOLECULE
GADWUE
    22    23     1
SMALL
NO_CHARGES
****
Generated from CSD

@<TRIPOS>ATOM
      1 C1        -0.9864   -1.4422   -3.4379 C.2       1 RES1    0.0000
      2 C2        -0.0773   -0.3818   -3.3960 C.2       1 RES1    0.0000
      3 H1         0.4182   -0.1184   -2.6545 H         1 RES1    0.0000
      4 C3        -0.0421    0.2059   -4.6428 C.2       1 RES1    0.0000
      5 H2         0.4988    0.9264   -4.8736 H         1 RES1    0.0000
      6 C4        -1.0948   -0.1173   -6.8374 C.2       1 RES1    0.0000
      7 H3        -0.5937    0.5988   -7.1539 H         1 RES1    0.0000
      8 C5        -1.8973   -0.7205   -7.7502 C.2       1 RES1    0.0000
      9 H4        -1.8959   -0.3365   -8.5966 H         1 RES1    0.0000
     10 C6        -2.7068   -1.8118   -7.6033 C.2       1 RES1    0.0000
     11 H5        -3.1685   -2.0719   -8.3675 H         1 RES1    0.0000
     12 C7        -2.9333   -2.5711   -6.4999 C.2       1 RES1    0.0000
     13 H6        -3.5265   -3.2772   -6.6188 H         1 RES1    0.0000
     14 C8        -2.4049   -2.4449   -5.2129 C.2       1 RES1    0.0000
     15 H7        -2.6976   -3.0725   -4.5921 H         1 RES1    0.0000
     16 C9        -1.5176   -1.5219   -4.7477 C.2       1 RES1    0.0000
     17 C10       -0.9211   -0.4228   -5.4997 C.2       1 RES1    0.0000
     18 C11       -1.4069   -2.3110   -2.3660 C.2       1 RES1    0.0000
     19 H8        -2.1900   -2.7814   -2.5391 H         1 RES1    0.0000
     20 N1        -0.8938   -2.5512   -1.2188 N.2       1 RES1    0.0000
     21 O1         0.2880   -1.8705   -1.0317 O.3       1 RES1    0.0000
     22 H9         0.6493   -2.1350   -0.3445 H         1 RES1    0.0000
@<TRIPOS>BOND
     1    1    2 2
     2    2    3 1
     3    4    2 1
     4    5    4 1
     5    6    7 1
     6    8    6 2
     7    9    8 1
     8   10    8 1
     9   11   10 1
    10   12   10 2
    11   13   12 1
    12   14   12 1
    13   15   14 1
    14   16    1 1
    15   17    4 2
    16   18    1 1
    17   19   18 1
    18   20   18 2
    19   21   20 1
    20   22   21 1
    21    6   17 1
    22   14   16 2
    23   16   17 1
@<TRIPOS>SUBSTRUCTURE
     1 RES1 1

@<TRIPOS>CRYSIN
   4.6310   11.0680   17.4870  90.0000  90.0000  90.0000  19 1

