# MOL2 file generated by ConQuest
# Please check atom types

@<TRIPOS>MOLECULE
GADYOC
    63    65     1
SMALL
NO_CHARGES
****
Generated from CSD

@<TRIPOS>ATOM
      1 O1         4.1329    9.0923   12.3625 O.2       1 RES1    0.0000
      2 N1         2.2595    8.0245   13.0820 N.am      1 RES1    0.0000
      3 H1         1.9385    7.2664   13.3330 H         1 RES1    0.0000
      4 C1         3.5348    8.0622   12.6864 C.2       1 RES1    0.0000
      5 O2         7.7858    6.3316   12.3599 O.2       1 RES1    0.0000
      6 N2         5.6445    6.7870   12.8706 N.am      1 RES1    0.0000
      7 C2         4.2036    6.6826   12.6462 C.3       1 RES1    0.0000
      8 H2         3.8120    6.1147   13.3264 H         1 RES1    0.0000
      9 H3         4.0408    6.2713   11.7821 H         1 RES1    0.0000
     10 O3         6.1756    2.3350   18.4230 O.2       1 RES1    0.0000
     11 N3         5.2342    3.9093   19.7380 N.am      1 RES1    0.0000
     12 C3         6.0258    7.2537   14.2000 C.3       1 RES1    0.0000
     13 H4         5.4779    8.0210   14.4225 H         1 RES1    0.0000
     14 H5         6.9477    7.5543   14.1640 H         1 RES1    0.0000
     15 H6         5.1719    4.8095   19.9716 H         1 RES1    0.0000
     16 O4         5.2882    3.0830   20.8665 O.3       1 RES1    0.0000
     17 H7         4.4929    2.5313   20.9008 H         1 RES1    0.0000
     18 C4         5.9021    6.2460   15.3144 C.ar      1 RES1    0.0000
     19 C5         4.7896    6.2143   16.1566 C.ar      1 RES1    0.0000
     20 H8         4.0743    6.7839   15.9832 H         1 RES1    0.0000
     21 C6         4.7236    5.3632   17.2386 C.ar      1 RES1    0.0000
     22 H9         3.9840    5.3806   17.8024 H         1 RES1    0.0000
     23 C7         5.7682    4.4772   17.4847 C.ar      1 RES1    0.0000
     24 C8         6.8649    4.4614   16.6264 C.ar      1 RES1    0.0000
     25 H10        7.5486    3.8460   16.7619 H         1 RES1    0.0000
     26 C9         6.9449    5.3521   15.5791 C.ar      1 RES1    0.0000
     27 H11        7.7030    5.3600   15.0409 H         1 RES1    0.0000
     28 C10        5.7468    3.4789   18.5942 C.2       1 RES1    0.0000
     29 C11        1.3730    9.1886   13.1173 C.3       1 RES1    0.0000
     30 H12        1.9050    9.9781   13.3526 H         1 RES1    0.0000
     31 C12        0.3163    8.9814   14.1944 C.3       1 RES1    0.0000
     32 H13        0.7497    8.8912   15.0572 H         1 RES1    0.0000
     33 H14       -0.1693    8.1618   14.0168 H         1 RES1    0.0000
     34 C13       -0.6632   10.1521   14.2380 C.3       1 RES1    0.0000
     35 H15       -1.3655    9.9575   14.8773 H         1 RES1    0.0000
     36 H16       -0.1972   10.9463   14.5436 H         1 RES1    0.0000
     37 C14       -1.2883   10.4305   12.8824 C.3       1 RES1    0.0000
     38 H17       -1.8371   11.2279   12.9371 H         1 RES1    0.0000
     39 H18       -1.8623    9.6885   12.6360 H         1 RES1    0.0000
     40 C15       -0.2177   10.6251   11.8079 C.3       1 RES1    0.0000
     41 H19       -0.6428   10.7311   10.9412 H         1 RES1    0.0000
     42 H20        0.2874   11.4320   11.9947 H         1 RES1    0.0000
     43 C16        0.7311    9.4275   11.7680 C.3       1 RES1    0.0000
     44 H21        0.2391    8.6349   11.5007 H         1 RES1    0.0000
     45 H22        1.4232    9.5857   11.1081 H         1 RES1    0.0000
     46 C17        6.5998    6.4390   11.9722 C.2       1 RES1    0.0000
     47 C18        6.2482    6.2602   10.5473 C.ar      1 RES1    0.0000
     48 C19        5.4473    7.1936    9.8860 C.ar      1 RES1    0.0000
     49 H23        5.0817    7.9024   10.3653 H         1 RES1    0.0000
     50 C20        5.1887    7.0876    8.5354 C.ar      1 RES1    0.0000
     51 C21        5.7431    6.0340    7.8427 C.ar      1 RES1    0.0000
     52 H24        5.5626    5.9517    6.9331 H         1 RES1    0.0000
     53 C22        6.5654    5.0847    8.4539 C.ar      1 RES1    0.0000
     54 C23        6.8119    5.2145    9.8176 C.ar      1 RES1    0.0000
     55 H25        7.3579    4.5975   10.2476 H         1 RES1    0.0000
     56 C24        7.1904    3.9472    7.6624 C.3       1 RES1    0.0000
     57 H26        6.5933    3.6799    6.9593 H         1 RES1    0.0000
     58 H27        7.3532    3.2037    8.2452 H         1 RES1    0.0000
     59 H28        8.0211    4.2431    7.2800 H         1 RES1    0.0000
     60 C25        4.3133    8.1160    7.8457 C.3       1 RES1    0.0000
     61 H29        3.9431    7.7363    7.0444 H         1 RES1    0.0000
     62 H30        4.8408    8.8848    7.6202 H         1 RES1    0.0000
     63 H31        3.6008    8.3754    8.4349 H         1 RES1    0.0000
@<TRIPOS>BOND
     1    1    4 2
     2    2    3 1
     3    4    2 1
     4    5   46 2
     5    6    7 1
     6    7    4 1
     7    8    7 1
     8    9    7 1
     9   10   28 2
    10   11   15 1
    11   12    6 1
    12   13   12 1
    13   14   12 1
    14   16   11 1
    15   17   16 1
    16   18   12 1
    17   19   18 ar
    18   20   19 1
    19   21   19 ar
    20   22   21 1
    21   23   21 ar
    22   24   23 ar
    23   25   24 1
    24   26   18 ar
    25   27   26 1
    26   28   11 1
    27   29    2 1
    28   30   29 1
    29   31   29 1
    30   32   31 1
    31   33   31 1
    32   34   31 1
    33   35   34 1
    34   36   34 1
    35   37   34 1
    36   38   37 1
    37   39   37 1
    38   40   37 1
    39   41   40 1
    40   42   40 1
    41   43   29 1
    42   44   43 1
    43   45   43 1
    44   46    6 1
    45   47   46 1
    46   48   47 ar
    47   49   48 1
    48   50   48 ar
    49   51   50 ar
    50   52   51 1
    51   53   51 ar
    52   54   47 ar
    53   55   54 1
    54   56   53 1
    55   57   56 1
    56   58   56 1
    57   59   56 1
    58   60   50 1
    59   61   60 1
    60   62   60 1
    61   63   60 1
    62   23   28 1
    63   24   26 ar
    64   40   43 1
    65   53   54 ar
@<TRIPOS>SUBSTRUCTURE
     1 RES1 1

@<TRIPOS>CRYSIN
   9.3020   15.8206   32.7189  90.0000  90.0000  90.0000  61 1

