# MOL2 file generated by ConQuest
# Please check atom types

@<TRIPOS>MOLECULE
GAFPEI01
    43    45     1
SMALL
NO_CHARGES
****
Generated from CSD

@<TRIPOS>ATOM
      1 O1         1.8265    1.1171    5.1805 O.3       1 RES1    0.0000
      2 O2         3.7138    1.8559    7.6313 O.3       1 RES1    0.0000
      3 O3         1.4920    1.4798    7.4521 O.3       1 RES1    0.0000
      4 O4         1.7816    3.1575    3.0358 O.3       1 RES1    0.0000
      5 O5         2.0695    1.8003    1.2453 O.3       1 RES1    0.0000
      6 O6         4.3861    0.0567    4.5428 O.3       1 RES1    0.0000
      7 O7         6.8233    3.6830    5.4161 O.3       1 RES1    0.0000
      8 N1         5.4725    3.2069    5.2216 N.2       1 RES1    0.0000
      9 N2         6.4990    1.1943    5.7993 N.3       1 RES1    0.0000
     10 C1         4.1359    1.1933    5.3246 C.3       1 RES1    0.0000
     11 C2         3.5986    0.7935    6.7220 C.3       1 RES1    0.0000
     12 C3         2.0822    0.6379    6.5008 C.3       1 RES1    0.0000
     13 C4         2.9098    1.9930    4.8060 C.3       1 RES1    0.0000
     14 C5         2.4640    2.1022    8.2852 C.3       1 RES1    0.0000
     15 C6         2.2400    3.5975    8.3176 C.3       1 RES1    0.0000
     16 C7         2.4159    1.4953    9.6502 C.3       1 RES1    0.0000
     17 C8         2.8917    2.3021    3.3152 C.3       1 RES1    0.0000
     18 C9         2.7552    1.1655    2.3411 C.3       1 RES1    0.0000
     19 C10        1.1480    2.6978    1.8416 C.3       1 RES1    0.0000
     20 C11        0.9649    3.8736    0.8960 C.3       1 RES1    0.0000
     21 C12       -0.1617    2.0321    2.2019 C.3       1 RES1    0.0000
     22 C13        5.4544    1.9497    5.4351 C.2       1 RES1    0.0000
     23 H1         4.1304   -0.0763    7.0937 H         1 RES1    0.0000
     24 H2         1.7035   -0.3833    6.6057 H         1 RES1    0.0000
     25 H3         2.8775    2.9936    5.2331 H         1 RES1    0.0000
     26 H4         1.2845    3.7922    8.7942 H         1 RES1    0.0000
     27 H5         3.0416    4.0293    8.9544 H         1 RES1    0.0000
     28 H6         2.2865    4.0251    7.3473 H         1 RES1    0.0000
     29 H7         3.2041    1.9435   10.2622 H         1 RES1    0.0000
     30 H8         1.4470    1.7065   10.1020 H         1 RES1    0.0000
     31 H9         2.5674    0.4204    9.6102 H         1 RES1    0.0000
     32 H10        3.8913    2.7277    3.1608 H         1 RES1    0.0000
     33 H11        3.7367    0.7873    2.0303 H         1 RES1    0.0000
     34 H12        2.1753    0.3493    2.7643 H         1 RES1    0.0000
     35 H13        0.4758    3.5202   -0.0210 H         1 RES1    0.0000
     36 H14        0.3164    4.6156    1.3726 H         1 RES1    0.0000
     37 H15        1.8975    4.3590    0.6196 H         1 RES1    0.0000
     38 H16       -0.8048    2.7659    2.6976 H         1 RES1    0.0000
     39 H17       -0.6454    1.6715    1.3021 H         1 RES1    0.0000
     40 H18       -0.0292    1.1861    2.8901 H         1 RES1    0.0000
     41 H19        7.1460    1.7477    5.9403 H         1 RES1    0.0000
     42 H20        6.5306    0.1072    5.8946 H         1 RES1    0.0000
     43 H21        3.6042   -0.4658    4.4839 H         1 RES1    0.0000
@<TRIPOS>BOND
     1    1   12 1
     2    2   11 1
     3    3   12 1
     4    4   17 1
     5    5   18 1
     6    6   10 1
     7    7    8 1
     8    8   22 2
     9    9   22 1
    10   10   11 1
    11   11   12 1
    12   12   24 1
    13   13    1 1
    14   14    2 1
    15   15   14 1
    16   16   14 1
    17   17   13 1
    18   18   17 1
    19   19    4 1
    20   20   19 1
    21   21   19 1
    22   22   10 1
    23   23   11 1
    24   25   13 1
    25   26   15 1
    26   27   15 1
    27   28   15 1
    28   29   16 1
    29   30   16 1
    30   31   16 1
    31   32   17 1
    32   33   18 1
    33   34   18 1
    34   35   20 1
    35   36   20 1
    36   37   20 1
    37   38   21 1
    38   39   21 1
    39   40   21 1
    40   41    9 1
    41   42    9 1
    42   43    6 1
    43    3   14 1
    44    5   19 1
    45   10   13 1
@<TRIPOS>SUBSTRUCTURE
     1 RES1 1

@<TRIPOS>CRYSIN
   7.8900   10.3050   19.0640  90.0000  90.0000  90.0000  19 1

