# MOL2 file generated by ConQuest
# Please check atom types

@<TRIPOS>MOLECULE
GAFVAN
    46    48     1
SMALL
NO_CHARGES
****
Generated from CSD

@<TRIPOS>ATOM
      1 O1         6.7637   15.5896   13.4648 O.2       1 RES1    0.0000
      2 O2         4.7721   16.5755   13.4597 O.3       1 RES1    0.0000
      3 O3         7.6929   11.9151   16.6230 O.2       1 RES1    0.0000
      4 O4         6.0196   10.9930   17.5665 O.2       1 RES1    0.0000
      5 N1         5.6292   15.9244   16.3265 N.2       1 RES1    0.0000
      6 N2         6.5336   11.9100   16.9806 N.pl3     1 RES1    0.0000
      7 C1         5.9190   13.6850   15.3362 C.3       1 RES1    0.0000
      8 H1         6.8773   13.8745   15.2633 H         1 RES1    0.0000
      9 C2         5.1826   15.0392   15.2161 C.3       1 RES1    0.0000
     10 C3         3.6454   15.0028   15.3320 C.3       1 RES1    0.0000
     11 H2         3.2301   15.0236   14.4559 H         1 RES1    0.0000
     12 H3         3.3514   14.2072   15.8009 H         1 RES1    0.0000
     13 C4         3.3118   16.2577   16.1235 C.3       1 RES1    0.0000
     14 H4         3.0326   16.9807   15.5403 H         1 RES1    0.0000
     15 H5         2.6173   16.0887   16.7796 H         1 RES1    0.0000
     16 C5         4.6260   16.5594   16.7812 C.2       1 RES1    0.0000
     17 C6         4.7739   17.5554   17.8652 C.ar      1 RES1    0.0000
     18 C7         3.7873   18.4977   18.1043 C.ar      1 RES1    0.0000
     19 H6         3.0101   18.4876   17.5942 H         1 RES1    0.0000
     20 C8         3.9423   19.4553   19.0959 C.ar      1 RES1    0.0000
     21 H7         3.2780   20.0903   19.2381 H         1 RES1    0.0000
     22 C9         5.0815   19.4620   19.8669 C.ar      1 RES1    0.0000
     23 H8         5.1880   20.1054   20.5302 H         1 RES1    0.0000
     24 C10        6.0586   18.5263   19.6591 C.ar      1 RES1    0.0000
     25 H9         6.8217   18.5263   20.1913 H         1 RES1    0.0000
     26 C11        5.9131   17.5821   18.6596 C.ar      1 RES1    0.0000
     27 H10        6.5862   16.9555   18.5182 H         1 RES1    0.0000
     28 C12        5.6813   15.7428   13.9391 C.2       1 RES1    0.0000
     29 C13        5.1483   17.3369   12.2846 C.3       1 RES1    0.0000
     30 H11        5.8960   17.8997   12.4949 H         1 RES1    0.0000
     31 H12        4.4072   17.8778   12.0029 H         1 RES1    0.0000
     32 H13        5.3908   16.7338   11.5782 H         1 RES1    0.0000
     33 C14        5.6866   13.1201   16.7302 C.3       1 RES1    0.0000
     34 H14        5.8936   13.7989   17.3901 H         1 RES1    0.0000
     35 H15        4.7508   12.8834   16.8288 H         1 RES1    0.0000
     36 C15        5.5831   12.6831   14.2460 C.ar      1 RES1    0.0000
     37 C16        4.4025   11.9589   14.2272 C.ar      1 RES1    0.0000
     38 H16        3.7690   12.1022   14.8915 H         1 RES1    0.0000
     39 C17        4.1463   11.0220   13.2348 C.ar      1 RES1    0.0000
     40 H17        3.3413   10.5567   13.2330 H         1 RES1    0.0000
     41 C18        5.0779   10.7818   12.2571 C.ar      1 RES1    0.0000
     42 H18        4.9153   10.1401   11.6037 H         1 RES1    0.0000
     43 C19        6.2550   11.4941   12.2500 C.ar      1 RES1    0.0000
     44 H19        6.8844   11.3429   11.5819 H         1 RES1    0.0000
     45 C20        6.5088   12.4448   13.2407 C.ar      1 RES1    0.0000
     46 H20        7.3067   12.9220   13.2276 H         1 RES1    0.0000
@<TRIPOS>BOND
     1    1   28 2
     2    2   28 1
     3    3    6 2
     4    4    6 2
     5    5    9 1
     6    6   33 1
     7    7    8 1
     8    9    7 1
     9   10    9 1
    10   11   10 1
    11   12   10 1
    12   13   10 1
    13   14   13 1
    14   15   13 1
    15   16    5 2
    16   17   16 1
    17   18   17 ar
    18   19   18 1
    19   20   18 ar
    20   21   20 1
    21   22   20 ar
    22   23   22 1
    23   24   22 ar
    24   25   24 1
    25   26   17 ar
    26   27   26 1
    27   28    9 1
    28   29    2 1
    29   30   29 1
    30   31   29 1
    31   32   29 1
    32   33    7 1
    33   34   33 1
    34   35   33 1
    35   36    7 1
    36   37   36 ar
    37   38   37 1
    38   39   37 ar
    39   40   39 1
    40   41   39 ar
    41   42   41 1
    42   43   41 ar
    43   44   43 1
    44   45   36 ar
    45   46   45 1
    46   13   16 1
    47   24   26 ar
    48   43   45 ar
@<TRIPOS>SUBSTRUCTURE
     1 RES1 1

@<TRIPOS>CRYSIN
   5.9149   16.7993   18.2248  90.0000  90.0000  90.0000  19 1

