# MOL2 file generated by ConQuest
# Please check atom types

@<TRIPOS>MOLECULE
GAFVER
    33    33     2
SMALL
NO_CHARGES
****
Generated from CSD

@<TRIPOS>ATOM
      1 O1        10.8429   -0.5894   12.4983 O.3       1 RES1    0.0000
      2 C1        11.4957    0.6056   12.9217 C.3       1 RES1    0.0000
      3 H1        11.0592    0.9264   13.7618 H         1 RES1    0.0000
      4 C2        11.2282    1.3395   10.5091 C.ar      1 RES1    0.0000
      5 H2        11.2436    0.4024   10.2434 H         1 RES1    0.0000
      6 C3        11.3479    1.6769   11.8609 C.ar      1 RES1    0.0000
      7 C4        11.3121    3.0221   12.2269 C.ar      1 RES1    0.0000
      8 H3        11.3866    3.2621   13.1619 H         1 RES1    0.0000
      9 C5        11.0880    2.3210    9.5441 C.ar      1 RES1    0.0000
     10 H4        11.0077    2.0865    8.5989 H         1 RES1    0.0000
     11 C6        11.0642    3.6449    9.9514 C.ar      1 RES1    0.0000
     12 C7        11.1722    4.0209   11.2791 C.ar      1 RES1    0.0000
     13 H5        11.1503    4.9531   11.5381 H         1 RES1    0.0000
     14 C8        12.9665    0.2545   13.2370 C.3       1 RES1    0.0000
     15 C9        13.0382   -2.0122   14.5199 C.2       1 RES1    0.0000
     16 H6        13.2389   -2.4239   15.3477 H         1 RES1    0.0000
     17 H7        12.8541   -2.5431   13.7602 H         1 RES1    0.0000
     18 N1        10.8870    4.6914    8.9403 N.pl3     1 RES1    0.0000
     19 C10       13.0151   -0.7012   14.4269 C.2       1 RES1    0.0000
     20 O2        11.0754    4.4090    7.7671 O.2       1 RES1    0.0000
     21 O3        10.5308    5.8022    9.3086 O.2       1 RES1    0.0000
     22 C11       13.2507    0.4326   15.4010 C.3       1 RES1    0.0000
     23 H8        14.0080    0.2778   16.0283 H         1 RES1    0.0000
     24 H9        12.4330    0.7275   15.8874 H         1 RES1    0.0000
     25 C12       13.6129    1.3149   14.1795 C.3       1 RES1    0.0000
     26 H10       14.5609    1.4240   14.0476 H         1 RES1    0.0000
     27 H11       13.1635    2.1670   14.1700 H         1 RES1    0.0000
     28 C13       13.7455   -0.1741   12.0050 C.3       1 RES1    0.0000
     29 H12       13.8172    0.5897   11.3766 H         1 RES1    0.0000
     30 H13       13.2748   -0.9248   11.5602 H         1 RES1    0.0000
     31 H14       14.6532   -0.4667   12.2740 H         1 RES1    0.0000
     32 H15       10.0888   -0.4876   12.2028 H         1 RES1    0.0000
     33 H16       10.6978   -1.0603   13.2474 Du        2 SUP2    0.0000
@<TRIPOS>BOND
     1    1    2 1
     2    2    3 1
     3    4    5 1
     4    6    2 1
     5    7    6 ar
     6    8    7 1
     7    9    4 ar
     8   10    9 1
     9   11    9 ar
    10   12    7 ar
    11   13   12 1
    12   14    2 1
    13   15   16 1
    14   17   15 1
    15   18   11 1
    16   19   14 1
    17   20   18 2
    18   21   18 2
    19   22   19 1
    20   23   22 1
    21   24   22 1
    22   25   14 1
    23   26   25 1
    24   27   25 1
    25   28   14 1
    26   29   28 1
    27   30   28 1
    28   31   28 1
    29   32    1 1
    30    4    6 ar
    31   11   12 ar
    32   15   19 2
    33   22   25 1
@<TRIPOS>SUBSTRUCTURE
     1 RES1 1
     2 SUP2 33

@<TRIPOS>CRYSIN
  19.5443    7.7392   15.8292  90.0000  90.8990  90.0000  15 1

