# MOL2 file generated by ConQuest
# Please check atom types

@<TRIPOS>MOLECULE
GAGHUS
    59    60     1
SMALL
NO_CHARGES
****
Generated from CSD

@<TRIPOS>ATOM
      1 O1        10.6148    5.3123    8.2362 O.2       1 RES1    0.0000
      2 O2         6.2802    7.1756    7.1506 O.2       1 RES1    0.0000
      3 O3         4.7848    5.9519    6.2103 O.2       1 RES1    0.0000
      4 O4         8.1455    0.9716    4.7808 O.2       1 RES1    0.0000
      5 O5         6.1019    1.5806    4.5203 O.2       1 RES1    0.0000
      6 O6         7.6940   -1.5706    9.3491 O.3       1 RES1    0.0000
      7 N1        10.6429    3.1433    8.9000 N.am      1 RES1    0.0000
      8 N2         5.8915    6.1255    6.6742 N.pl3     1 RES1    0.0000
      9 N3         7.2121    1.7286    4.9751 N.pl3     1 RES1    0.0000
     10 C1        11.5360    6.3752   11.6949 C.2       1 RES1    0.0000
     11 C2        11.6631    5.1994   12.1817 C.2       1 RES1    0.0000
     12 C3        10.8515    3.9775   11.8698 C.3       1 RES1    0.0000
     13 C4        11.6933    2.9574   11.1156 C.3       1 RES1    0.0000
     14 C5        11.9194    3.3265    9.6553 C.3       1 RES1    0.0000
     15 C6        13.1025    2.6342    8.9686 C.3       1 RES1    0.0000
     16 C7        13.1675    2.9603    7.4889 C.3       1 RES1    0.0000
     17 C8        10.2691    3.4014   13.1541 C.3       1 RES1    0.0000
     18 C9        14.4229    3.0460    9.6210 C.3       1 RES1    0.0000
     19 C10       10.1194    4.2000    8.2293 C.2       1 RES1    0.0000
     20 C11        8.8664    4.0038    7.4135 C.ar      1 RES1    0.0000
     21 C12        7.9691    5.0672    7.4203 C.ar      1 RES1    0.0000
     22 C13        6.8283    4.9928    6.6456 C.ar      1 RES1    0.0000
     23 C14        6.5406    3.9133    5.8492 C.ar      1 RES1    0.0000
     24 C15        7.4655    2.9001    5.8309 C.ar      1 RES1    0.0000
     25 C16        8.6216    2.9221    6.5873 C.ar      1 RES1    0.0000
     26 C17        9.9196    1.9026    9.0257 C.ar      1 RES1    0.0000
     27 C18        8.7107    1.8619    9.6976 C.ar      1 RES1    0.0000
     28 C19        7.9831    0.6964    9.7707 C.ar      1 RES1    0.0000
     29 C20        8.4773   -0.4632    9.2085 C.ar      1 RES1    0.0000
     30 C21        9.6878   -0.4478    8.5470 C.ar      1 RES1    0.0000
     31 C22       10.4039    0.7384    8.4578 C.ar      1 RES1    0.0000
     32 C23        8.1034   -2.7513    8.6601 C.3       1 RES1    0.0000
     33 H1        12.1306    7.0861   11.9817 H         1 RES1    0.0000
     34 H2        10.8451    6.5554   11.0379 H         1 RES1    0.0000
     35 H3        12.3728    5.0843   12.8330 H         1 RES1    0.0000
     36 H4        10.1151    4.2433   11.2973 H         1 RES1    0.0000
     37 H5        12.5566    2.8864   11.5521 H         1 RES1    0.0000
     38 H6        11.2423    2.0991   11.1499 H         1 RES1    0.0000
     39 H7        12.1112    4.2769    9.6405 H         1 RES1    0.0000
     40 H8        12.9983    1.6757    9.0680 H         1 RES1    0.0000
     41 H9        13.3026    3.9143    7.3723 H         1 RES1    0.0000
     42 H10       12.3351    2.6980    7.0638 H         1 RES1    0.0000
     43 H11       13.9042    2.4776    7.0821 H         1 RES1    0.0000
     44 H12       10.9899    3.1566   13.7551 H         1 RES1    0.0000
     45 H13        9.7052    4.0667   13.5803 H         1 RES1    0.0000
     46 H14        9.7408    2.6152   12.9450 H         1 RES1    0.0000
     47 H15       14.3935    2.8420   10.5683 H         1 RES1    0.0000
     48 H16       14.5606    3.9987    9.4999 H         1 RES1    0.0000
     49 H17       15.1535    2.5587    9.2074 H         1 RES1    0.0000
     50 H18        8.1426    5.8527    7.9631 H         1 RES1    0.0000
     51 H19        5.7255    3.8694    5.3259 H         1 RES1    0.0000
     52 H20        9.2527    2.1877    6.5405 H         1 RES1    0.0000
     53 H21        8.3708    2.6655   10.1215 H         1 RES1    0.0000
     54 H22        7.1232    0.6898   10.2186 H         1 RES1    0.0000
     55 H23       10.0362   -1.2600    8.1470 H         1 RES1    0.0000
     56 H24       11.2550    0.7509    7.9916 H         1 RES1    0.0000
     57 H25        8.9924   -3.0059    8.9537 H         1 RES1    0.0000
     58 H26        8.1148   -2.5812    7.7048 H         1 RES1    0.0000
     59 H27        7.4808   -3.4706    8.8520 H         1 RES1    0.0000
@<TRIPOS>BOND
     1    1   19 2
     2    2    8 2
     3    3    8 2
     4    4    9 2
     5    5    9 2
     6    6   29 1
     7    7   14 1
     8    8   22 1
     9    9   24 1
    10   10   11 2
    11   11   12 1
    12   12   13 1
    13   13   14 1
    14   14   15 1
    15   15   16 1
    16   16   41 1
    17   17   12 1
    18   18   15 1
    19   19    7 1
    20   20   19 1
    21   21   20 ar
    22   22   21 ar
    23   23   22 ar
    24   24   23 ar
    25   25   20 ar
    26   26    7 1
    27   27   26 ar
    28   28   27 ar
    29   29   28 ar
    30   30   29 ar
    31   31   26 ar
    32   32    6 1
    33   33   10 1
    34   34   10 1
    35   35   11 1
    36   36   12 1
    37   37   13 1
    38   38   13 1
    39   39   14 1
    40   40   15 1
    41   42   16 1
    42   43   16 1
    43   44   17 1
    44   45   17 1
    45   46   17 1
    46   47   18 1
    47   48   18 1
    48   49   18 1
    49   50   21 1
    50   51   23 1
    51   52   25 1
    52   53   27 1
    53   54   28 1
    54   55   30 1
    55   56   31 1
    56   57   32 1
    57   58   32 1
    58   59   32 1
    59   24   25 ar
    60   30   31 ar
@<TRIPOS>SUBSTRUCTURE
     1 RES1 1

@<TRIPOS>CRYSIN
   9.8700   11.4840   11.6480  81.7690  79.6710  65.0219   2 1

