# MOL2 file generated by ConQuest
# Please check atom types

@<TRIPOS>MOLECULE
GAGHIG
    60    62     1
SMALL
NO_CHARGES
****
Generated from CSD

@<TRIPOS>ATOM
      1 O1         4.8763    2.2013    8.5423 O.2       1 RES1    0.0000
      2 O2         3.1284    3.3907    8.8635 O.2       1 RES1    0.0000
      3 O3        -1.0963    0.4731    5.4550 O.2       1 RES1    0.0000
      4 O4        -1.0380    2.0960    6.8493 O.2       1 RES1    0.0000
      5 O5         4.1461   -2.0337    5.4214 O.2       1 RES1    0.0000
      6 O6         2.3820    4.1241    1.4192 O.3       1 RES1    0.0000
      7 N1         3.7101    2.4793    8.3269 N.pl3     1 RES1    0.0000
      8 N2        -0.5035    1.2129    6.2082 N.pl3     1 RES1    0.0000
      9 N3         3.7884   -0.8476    3.5143 N.am      1 RES1    0.0000
     10 C1         2.9797   -0.0038    5.6554 C.ar      1 RES1    0.0000
     11 C2         3.6632    0.7467    6.5916 C.ar      1 RES1    0.0000
     12 C3         2.9734    1.6570    7.3535 C.ar      1 RES1    0.0000
     13 C4         1.6150    1.8414    7.2576 C.ar      1 RES1    0.0000
     14 C5         0.9574    1.0591    6.3376 C.ar      1 RES1    0.0000
     15 C6         1.6124    0.1496    5.5335 C.ar      1 RES1    0.0000
     16 C7         3.7061   -1.0477    4.8488 C.2       1 RES1    0.0000
     17 C8         3.4601    0.4337    2.9491 C.ar      1 RES1    0.0000
     18 C9         4.2501    1.5388    3.2279 C.ar      1 RES1    0.0000
     19 C10        3.9092    2.7825    2.7412 C.ar      1 RES1    0.0000
     20 C11        2.7908    2.9341    1.9482 C.ar      1 RES1    0.0000
     21 C12        2.0205    1.8306    1.6619 C.ar      1 RES1    0.0000
     22 C13        2.3478    0.5906    2.1536 C.ar      1 RES1    0.0000
     23 C14        3.0792    5.2866    1.7453 C.3       1 RES1    0.0000
     24 C15        4.3533   -1.9175    2.6329 C.3       1 RES1    0.0000
     25 C16        5.5652   -1.4222    1.8835 C.3       1 RES1    0.0000
     26 C17        6.7722   -1.2105    2.7661 C.3       1 RES1    0.0000
     27 C18        7.3252   -2.5221    3.1670 C.2       1 RES1    0.0000
     28 C19        7.4510   -2.9915    4.2786 C.2       1 RES1    0.0000
     29 C20        7.8280   -0.3726    2.0752 C.3       1 RES1    0.0000
     30 C21        3.2758   -2.5250    1.7802 C.ar      1 RES1    0.0000
     31 C22        3.2038   -2.3640    0.4083 C.ar      1 RES1    0.0000
     32 C23        2.1984   -2.9596   -0.3361 C.ar      1 RES1    0.0000
     33 C24        1.2591   -3.7120    0.2764 C.ar      1 RES1    0.0000
     34 C25        1.3105   -3.9211    1.6270 C.ar      1 RES1    0.0000
     35 C26        2.3108   -3.3220    2.3802 C.ar      1 RES1    0.0000
     36 H1         4.6194    0.6333    6.7086 H         1 RES1    0.0000
     37 H2         1.1455    2.4883    7.8078 H         1 RES1    0.0000
     38 H3         1.1166   -0.3786    4.8886 H         1 RES1    0.0000
     39 H4         5.0492    1.4362    3.7682 H         1 RES1    0.0000
     40 H5         4.4576    3.5532    2.9566 H         1 RES1    0.0000
     41 H6         1.2331    1.9300    1.1030 H         1 RES1    0.0000
     42 H7         1.7931   -0.1766    1.9408 H         1 RES1    0.0000
     43 H8         4.0049    5.1971    1.4677 H         1 RES1    0.0000
     44 H9         2.6776    6.0436    1.2897 H         1 RES1    0.0000
     45 H10        3.0414    5.4289    2.7039 H         1 RES1    0.0000
     46 H11        4.6651   -2.6215    3.2230 H         1 RES1    0.0000
     47 H12        5.7931   -2.0741    1.2025 H         1 RES1    0.0000
     48 H13        5.3404   -0.5790    1.4615 H         1 RES1    0.0000
     49 H14        6.4866   -0.7416    3.5666 H         1 RES1    0.0000
     50 H15        7.6313   -3.0867    2.4399 H         1 RES1    0.0000
     51 H16        7.1655   -2.4833    5.0542 H         1 RES1    0.0000
     52 H17        7.8344   -3.8745    4.3931 H         1 RES1    0.0000
     53 H18        8.5892   -0.2593    2.6653 H         1 RES1    0.0000
     54 H19        8.1124   -0.8185    1.2623 H         1 RES1    0.0000
     55 H20        7.4577    0.4965    1.8549 H         1 RES1    0.0000
     56 H21        3.8701   -1.8216   -0.0423 H         1 RES1    0.0000
     57 H22        2.1701   -2.8370   -1.2972 H         1 RES1    0.0000
     58 H23        0.5436   -4.1070   -0.2452 H         1 RES1    0.0000
     59 H24        0.6505   -4.4866    2.0565 H         1 RES1    0.0000
     60 H25        2.3353   -3.4617    3.3400 H         1 RES1    0.0000
@<TRIPOS>BOND
     1    1    7 2
     2    2    7 2
     3    3    8 2
     4    4    8 2
     5    5   16 2
     6    6   20 1
     7    7   12 1
     8    8   14 1
     9    9   16 1
    10   10   11 ar
    11   11   12 ar
    12   12   13 ar
    13   13   14 ar
    14   14   15 ar
    15   15   10 ar
    16   16   10 1
    17   17    9 1
    18   18   17 ar
    19   19   18 ar
    20   20   19 ar
    21   21   20 ar
    22   22   17 ar
    23   23    6 1
    24   24    9 1
    25   25   24 1
    26   26   25 1
    27   27   26 1
    28   28   27 2
    29   29   26 1
    30   30   24 1
    31   31   30 ar
    32   32   31 ar
    33   33   32 ar
    34   34   33 ar
    35   35   30 ar
    36   36   11 1
    37   37   13 1
    38   38   15 1
    39   39   18 1
    40   40   19 1
    41   41   21 1
    42   42   22 1
    43   43   23 1
    44   44   23 1
    45   45   23 1
    46   46   24 1
    47   47   25 1
    48   48   25 1
    49   49   26 1
    50   50   27 1
    51   51   28 1
    52   52   28 1
    53   53   29 1
    54   54   29 1
    55   55   29 1
    56   56   31 1
    57   57   32 1
    58   58   33 1
    59   59   34 1
    60   60   35 1
    61   21   22 ar
    62   34   35 ar
@<TRIPOS>SUBSTRUCTURE
     1 RES1 1

@<TRIPOS>CRYSIN
   9.0210   11.1799   13.7720 104.4890 106.5130 102.5530   2 1

