# MOL2 file generated by ConQuest
# Please check atom types

@<TRIPOS>MOLECULE
GAGZOE
    43    47     1
SMALL
NO_CHARGES
****
Generated from CSD

@<TRIPOS>ATOM
      1 O1         1.1873    1.8569    4.5412 O.3       1 RES1    0.0000
      2 N1        -0.0484    1.7812    3.7315 N.3       1 RES1    0.0000
      3 C1        -1.0102    1.1513    7.2950 C.3       1 RES1    0.0000
      4 H1        -1.7552    1.7820    7.4575 H         1 RES1    0.0000
      5 H2        -0.3447    1.0946    8.0253 H         1 RES1    0.0000
      6 C2        -1.3092   -0.1044    6.5181 C.3       1 RES1    0.0000
      7 H3        -0.8268   -0.9307    6.7718 H         1 RES1    0.0000
      8 H4        -2.2383   -0.2427    6.2040 H         1 RES1    0.0000
      9 C3        -0.5172    0.9993    5.8868 C.3       1 RES1    0.0000
     10 C4         1.6766   -0.4356    5.3619 C.3       1 RES1    0.0000
     11 H5         2.2682   -0.5405    4.5760 H         1 RES1    0.0000
     12 H6         1.2225   -1.2642    5.6573 H         1 RES1    0.0000
     13 C5         2.0810    0.5711    6.4251 C.3       1 RES1    0.0000
     14 H7         1.8754    0.3539    7.3699 H         1 RES1    0.0000
     15 H8         2.9204    1.0770    6.2855 H         1 RES1    0.0000
     16 C6         0.9427    0.8570    5.5162 C.3       1 RES1    0.0000
     17 C7        -1.0768    1.9170    4.7916 C.3       1 RES1    0.0000
     18 H9        -1.0632    2.8579    5.1287 H         1 RES1    0.0000
     19 C8        -2.4478    1.6266    4.2398 C.ar      1 RES1    0.0000
     20 C9        -3.4876    2.5159    4.4636 C.ar      1 RES1    0.0000
     21 H10       -3.3351    3.2890    4.9928 H         1 RES1    0.0000
     22 C10       -4.7473    2.2947    3.9257 C.ar      1 RES1    0.0000
     23 H11       -5.4521    2.9095    4.0957 H         1 RES1    0.0000
     24 C11       -4.9752    1.1820    3.1455 C.ar      1 RES1    0.0000
     25 H12       -5.8314    1.0362    2.7607 H         1 RES1    0.0000
     26 C12       -3.9522    0.2796    2.9256 C.ar      1 RES1    0.0000
     27 H13       -4.1104   -0.4934    2.3982 H         1 RES1    0.0000
     28 C13       -2.6963    0.4957    3.4708 C.ar      1 RES1    0.0000
     29 H14       -2.0008   -0.1338    3.3195 H         1 RES1    0.0000
     30 C14       -0.0062    2.9526    2.8607 C.3       1 RES1    0.0000
     31 H15        0.2115    3.7518    3.4040 H         1 RES1    0.0000
     32 H16       -0.9010    3.0916    2.4617 H         1 RES1    0.0000
     33 C15        1.0087    2.8131    1.7594 C.ar      1 RES1    0.0000
     34 C16        1.0293    1.6799    0.9551 C.ar      1 RES1    0.0000
     35 H17        0.4210    0.9698    1.1236 H         1 RES1    0.0000
     36 C17        1.9304    1.5784   -0.0927 C.ar      1 RES1    0.0000
     37 H18        1.9394    0.7980   -0.6343 H         1 RES1    0.0000
     38 C18        2.8160    2.6078   -0.3531 C.ar      1 RES1    0.0000
     39 H19        3.4278    2.5386   -1.0753 H         1 RES1    0.0000
     40 C19        2.8078    3.7365    0.4416 C.ar      1 RES1    0.0000
     41 H20        3.4159    4.4454    0.2688 H         1 RES1    0.0000
     42 C20        1.9095    3.8351    1.4963 C.ar      1 RES1    0.0000
     43 H21        1.9117    4.6116    2.0448 H         1 RES1    0.0000
@<TRIPOS>BOND
     1    1    2 1
     2    2   17 1
     3    3    4 1
     4    5    3 1
     5    6    3 1
     6    7    6 1
     7    8    6 1
     8    9    3 1
     9   10   11 1
    10   12   10 1
    11   13   10 1
    12   14   13 1
    13   15   13 1
    14   16    1 1
    15   17    9 1
    16   18   17 1
    17   19   17 1
    18   20   19 ar
    19   21   20 1
    20   22   20 ar
    21   23   22 1
    22   24   22 ar
    23   25   24 1
    24   26   24 ar
    25   27   26 1
    26   28   19 ar
    27   29   28 1
    28   30    2 1
    29   31   30 1
    30   32   30 1
    31   33   30 1
    32   34   33 ar
    33   35   34 1
    34   36   34 ar
    35   37   36 1
    36   38   36 ar
    37   39   38 1
    38   40   38 ar
    39   41   40 1
    40   42   33 ar
    41   43   42 1
    42    6    9 1
    43    9   16 1
    44   10   16 1
    45   13   16 1
    46   26   28 ar
    47   40   42 ar
@<TRIPOS>SUBSTRUCTURE
     1 RES1 1

@<TRIPOS>CRYSIN
   9.2097    5.6716   30.2900  90.0000  94.3070  90.0000 231 1

