# MOL2 file generated by ConQuest
# Please check atom types

@<TRIPOS>MOLECULE
GAHDAW
    77    82     1
SMALL
NO_CHARGES
****
Generated from CSD

@<TRIPOS>ATOM
      1 C1         3.1158    9.2013    1.0433 C.3       1 RES1    0.0000
      2 C2         1.7656    9.8211    1.3129 C.3       1 RES1    0.0000
      3 H1         1.5346   10.4180    0.5832 H         1 RES1    0.0000
      4 H2         1.0937    9.1224    1.3524 H         1 RES1    0.0000
      5 C3         1.7624   10.5838    2.6005 C.3       1 RES1    0.0000
      6 H3         1.8864    9.9675    3.3392 H         1 RES1    0.0000
      7 H4         0.9019   11.0183    2.7141 H         1 RES1    0.0000
      8 C4         2.8667   11.6357    2.6295 C.3       1 RES1    0.0000
      9 H5         2.7184   12.2864    1.9263 H         1 RES1    0.0000
     10 H6         2.8540   12.1023    3.4809 H         1 RES1    0.0000
     11 C5         4.2127   10.9657    2.4327 C.3       1 RES1    0.0000
     12 H7         4.3844   10.3654    3.1742 H         1 RES1    0.0000
     13 H8         4.9089   11.6403    2.4259 H         1 RES1    0.0000
     14 C6         4.2572   10.1847    1.1330 C.3       1 RES1    0.0000
     15 H9         4.2095   10.8010    0.3857 H         1 RES1    0.0000
     16 H10        5.0986    9.7056    1.0735 H         1 RES1    0.0000
     17 C7         3.8852    7.0505    1.3271 C.3       1 RES1    0.0000
     18 C8         3.5916    7.3490   -0.1536 C.2       1 RES1    0.0000
     19 C9         4.6355    4.8448    1.4751 C.3       1 RES1    0.0000
     20 H11        4.7065    4.0833    2.0727 H         1 RES1    0.0000
     21 H12        4.5486    4.5178    0.5670 H         1 RES1    0.0000
     22 C10        3.4327    5.6990    1.8473 C.3       1 RES1    0.0000
     23 H13        3.3712    5.7447    2.8233 H         1 RES1    0.0000
     24 C11        2.0899    5.2416    1.2976 C.3       1 RES1    0.0000
     25 H14        2.1567    5.1627    0.3323 H         1 RES1    0.0000
     26 H15        1.4244    5.9196    1.4918 H         1 RES1    0.0000
     27 C12        1.6162    3.9095    1.8671 C.3       1 RES1    0.0000
     28 H16        2.3294    3.2497    1.7381 H         1 RES1    0.0000
     29 C13        1.3014    3.9769    3.3292 C.3       1 RES1    0.0000
     30 H17        0.5935    4.6081    3.4763 H         1 RES1    0.0000
     31 H18        2.0835    4.2548    3.8109 H         1 RES1    0.0000
     32 H19        1.0259    3.1102    3.6366 H         1 RES1    0.0000
     33 C14        0.3773    3.4269    1.1084 C.3       1 RES1    0.0000
     34 H20        0.0699    2.6013    1.4918 H         1 RES1    0.0000
     35 H21        0.6009    3.2897    0.1859 H         1 RES1    0.0000
     36 H22       -0.3158    4.0878    1.1758 H         1 RES1    0.0000
     37 C15        6.4955    5.6315    2.8949 C.3       1 RES1    0.0000
     38 H23        6.9681    4.7739    2.9348 H         1 RES1    0.0000
     39 C16        7.5245    6.7292    3.0526 C.3       1 RES1    0.0000
     40 H24        7.7068    7.1969    2.2098 H         1 RES1    0.0000
     41 C17        9.1375    7.0985    4.6516 C.3       1 RES1    0.0000
     42 C18        6.9596    7.6657    4.1350 C.3       1 RES1    0.0000
     43 H25        6.8568    8.5839    3.8085 H         1 RES1    0.0000
     44 C19        5.6285    7.0534    4.5440 C.3       1 RES1    0.0000
     45 H26        4.8983    7.5536    4.1222 H         1 RES1    0.0000
     46 C20        9.8507    6.3233    5.7247 C.3       1 RES1    0.0000
     47 H27        9.2816    5.6189    6.0416 H         1 RES1    0.0000
     48 H28       10.0691    6.9099    6.4529 H         1 RES1    0.0000
     49 H29       10.6562    5.9459    5.3654 H         1 RES1    0.0000
     50 C21        9.9535    8.2225    4.0669 C.3       1 RES1    0.0000
     51 H30       10.7463    7.8658    3.6622 H         1 RES1    0.0000
     52 H31       10.1973    8.8366    4.7636 H         1 RES1    0.0000
     53 H32        9.4343    8.6834    3.4042 H         1 RES1    0.0000
     54 C22        5.3806    6.9602    6.0330 C.3       1 RES1    0.0000
     55 H33        5.9931    6.3027    6.4227 H         1 RES1    0.0000
     56 C23        5.5109    8.2797    6.7857 C.3       1 RES1    0.0000
     57 H34        6.3884    8.3643    7.1919 H         1 RES1    0.0000
     58 H35        5.3594    9.0344    6.1950 H         1 RES1    0.0000
     59 C24        3.4231    7.5113    7.1607 C.3       1 RES1    0.0000
     60 C25        2.6463    6.7715    8.2138 C.3       1 RES1    0.0000
     61 H36        3.2408    6.2032    8.7092 H         1 RES1    0.0000
     62 H37        1.9670    6.2375    7.7960 H         1 RES1    0.0000
     63 H38        2.2351    7.4016    8.8091 H         1 RES1    0.0000
     64 C26        2.5658    8.4775    6.3560 C.3       1 RES1    0.0000
     65 H39        2.0973    9.0641    6.9548 H         1 RES1    0.0000
     66 H40        1.9320    7.9824    5.8325 H         1 RES1    0.0000
     67 H41        3.1274    8.9955    5.7744 H         1 RES1    0.0000
     68 N1         5.8273    5.7066    1.5999 N.3       1 RES1    0.0000
     69 O1         3.3071    8.1171    2.0033 O.3       1 RES1    0.0000
     70 O2         3.1020    8.5824   -0.2414 O.3       1 RES1    0.0000
     71 O3         3.7707    6.6414   -1.1112 O.2       1 RES1    0.0000
     72 O4         5.3090    7.0874    1.4716 O.3       1 RES1    0.0000
     73 O5         8.7118    6.1845    3.6450 O.3       1 RES1    0.0000
     74 O6         7.9065    7.5795    5.2086 O.3       1 RES1    0.0000
     75 O7         5.6407    5.7067    4.0342 O.3       1 RES1    0.0000
     76 O8         4.4971    8.1925    7.7751 O.3       1 RES1    0.0000
     77 O9         4.0323    6.5609    6.2910 O.3       1 RES1    0.0000
@<TRIPOS>BOND
     1    1    2 1
     2    2    3 1
     3    4    2 1
     4    5    2 1
     5    6    5 1
     6    7    5 1
     7    8    5 1
     8    9    8 1
     9   10    8 1
    10   11    8 1
    11   12   11 1
    12   13   11 1
    13   14    1 1
    14   15   14 1
    15   16   14 1
    16   17   18 1
    17   18   70 1
    18   19   20 1
    19   21   19 1
    20   22   17 1
    21   23   22 1
    22   24   22 1
    23   25   24 1
    24   26   24 1
    25   27   24 1
    26   28   27 1
    27   29   27 1
    28   30   29 1
    29   31   29 1
    30   32   29 1
    31   33   27 1
    32   34   33 1
    33   35   33 1
    34   36   33 1
    35   37   38 1
    36   39   37 1
    37   40   39 1
    38   41   46 1
    39   42   39 1
    40   43   42 1
    41   44   42 1
    42   45   44 1
    43   46   47 1
    44   48   46 1
    45   49   46 1
    46   50   41 1
    47   51   50 1
    48   52   50 1
    49   53   50 1
    50   54   44 1
    51   55   54 1
    52   56   54 1
    53   57   56 1
    54   58   56 1
    55   59   60 1
    56   60   61 1
    57   62   60 1
    58   63   60 1
    59   64   59 1
    60   65   64 1
    61   66   64 1
    62   67   64 1
    63   68   19 1
    64   69    1 1
    65   70    1 1
    66   71   18 2
    67   72   17 1
    68   73   39 1
    69   74   41 1
    70   75   37 1
    71   76   56 1
    72   77   54 1
    73   11   14 1
    74   17   69 1
    75   19   22 1
    76   37   68 1
    77   41   73 1
    78   42   74 1
    79   44   75 1
    80   59   76 1
    81   59   77 1
    82   68   72 1
@<TRIPOS>SUBSTRUCTURE
     1 RES1 1

@<TRIPOS>CRYSIN
  10.5979   11.4345   23.2370  90.0000  90.0000  90.0000  19 1

