# MOL2 file generated by ConQuest
# Please check atom types

@<TRIPOS>MOLECULE
GAHGOM
    36    38     1
SMALL
NO_CHARGES
****
Generated from CSD

@<TRIPOS>ATOM
      1 O1        -4.8563   -0.4855  -10.1489 O.3       1 RES1    0.0000
      2 C1        -5.9560   -1.2572   -9.5804 C.3       1 RES1    0.0000
      3 H1        -5.9428   -1.0452   -8.6237 H         1 RES1    0.0000
      4 C2        -7.2435   -0.8915  -10.2496 C.3       1 RES1    0.0000
      5 H2        -7.9467   -1.5171   -9.8957 H         1 RES1    0.0000
      6 H3        -7.1765   -1.0698  -11.1569 H         1 RES1    0.0000
      7 C3        -6.4494    1.4676  -10.4264 C.3       1 RES1    0.0000
      8 H4        -6.4438    1.6936  -11.3741 H         1 RES1    0.0000
      9 C4        -7.5892    0.5831  -10.0135 C.3       1 RES1    0.0000
     10 H5        -8.4665    0.8044  -10.5163 H         1 RES1    0.0000
     11 H6        -7.7589    0.7415   -9.0565 H         1 RES1    0.0000
     12 C5        -6.0624    2.6250   -9.4730 C.3       1 RES1    0.0000
     13 H7        -5.7800    3.4009   -9.8756 H         1 RES1    0.0000
     14 H8        -6.7632    2.7703   -8.8129 H         1 RES1    0.0000
     15 C6        -4.9177    1.7219   -8.9875 C.2       1 RES1    0.0000
     16 N1        -5.1607    0.8732  -10.0274 N.am      1 RES1    0.0000
     17 O2        -4.1349    1.7069   -8.0897 O.2       1 RES1    0.0000
     18 O3        -5.6416   -2.5857   -9.8356 O.3       1 RES1    0.0000
     19 C7        -4.5294   -3.0591   -9.0498 C.3       1 RES1    0.0000
     20 H9        -4.7405   -2.8989   -8.1102 H         1 RES1    0.0000
     21 H10       -3.7448   -2.5432   -9.3559 H         1 RES1    0.0000
     22 C8        -4.3165   -4.5211   -9.3180 C.ar      1 RES1    0.0000
     23 C9        -3.1361   -4.9851   -9.8633 C.ar      1 RES1    0.0000
     24 H11       -2.4798   -4.3613  -10.0990 H         1 RES1    0.0000
     25 C10       -2.9044   -6.3478  -10.0510 C.ar      1 RES1    0.0000
     26 H12       -2.0603   -6.6185  -10.4185 H         1 RES1    0.0000
     27 C11       -3.8888   -7.2501   -9.7052 C.ar      1 RES1    0.0000
     28 C12       -5.0874   -6.7987   -9.1744 C.ar      1 RES1    0.0000
     29 H13       -5.7612   -7.4175   -8.9432 H         1 RES1    0.0000
     30 C13       -5.2872   -5.4513   -8.9848 C.ar      1 RES1    0.0000
     31 H14       -6.1307   -5.1766   -8.6485 H         1 RES1    0.0000
     32 O4        -3.7936   -8.6046   -9.8467 O.3       1 RES1    0.0000
     33 C14       -2.5869   -9.1375  -10.3959 C.3       1 RES1    0.0000
     34 H15       -1.8473   -8.8443   -9.8197 H         1 RES1    0.0000
     35 H16       -2.3984   -8.7417  -11.3338 H         1 RES1    0.0000
     36 H17       -2.7491  -10.0783  -10.4434 H         1 RES1    0.0000
@<TRIPOS>BOND
     1    1    2 1
     2    2    3 1
     3    4    2 1
     4    5    4 1
     5    6    4 1
     6    7    8 1
     7    9    4 1
     8   10    9 1
     9   11    9 1
    10   12    7 1
    11   13   12 1
    12   14   12 1
    13   15   12 1
    14   16    1 1
    15   17   15 2
    16   18    2 1
    17   19   18 1
    18   20   19 1
    19   21   19 1
    20   22   19 1
    21   23   22 ar
    22   24   23 1
    23   25   23 ar
    24   26   25 1
    25   27   25 ar
    26   28   27 ar
    27   29   28 1
    28   30   22 ar
    29   31   30 1
    30   32   27 1
    31   33   32 1
    32   34   33 1
    33   35   33 1
    34   36   33 1
    35    7    9 1
    36    7   16 1
    37   15   16 1
    38   28   30 ar
@<TRIPOS>SUBSTRUCTURE
     1 RES1 1

@<TRIPOS>CRYSIN
   6.2622   13.6803   15.5130  90.0000  90.0000  90.0000  19 1

