# MOL2 file generated by ConQuest
# Please check atom types

@<TRIPOS>MOLECULE
GAKNUB
    46    47     1
SMALL
NO_CHARGES
****
Generated from CSD

@<TRIPOS>ATOM
      1 O1        12.1466    1.9618    0.4215 O.2       1 RES1    0.0000
      2 N1        12.0687    0.7064    0.4556 N.pl3     1 RES1    0.0000
      3 N2        11.5682   -0.0313   -0.4328 N.2       1 RES1    0.0000
      4 C1        12.6217    0.0386    1.6420 C.ar      1 RES1    0.0000
      5 C2        13.1534    0.8118    2.6295 C.ar      1 RES1    0.0000
      6 C3        13.7104    0.1920    3.7423 C.ar      1 RES1    0.0000
      7 C4        13.7435   -1.1823    3.8272 C.ar      1 RES1    0.0000
      8 C5        13.1807   -1.9388    2.8292 C.ar      1 RES1    0.0000
      9 C6        12.6120   -1.3461    1.7103 C.ar      1 RES1    0.0000
     10 C7        11.0384    0.7169   -1.5737 C.3       1 RES1    0.0000
     11 C8        10.5360   -0.2442   -2.6155 C.3       1 RES1    0.0000
     12 C9         9.9712    0.4758   -3.8456 C.3       1 RES1    0.0000
     13 H1        13.1456    1.8053    2.5585 H         1 RES1    0.0000
     14 H2        14.0804    0.7513    4.4861 H         1 RES1    0.0000
     15 H3        14.1778   -1.6279    4.6088 H         1 RES1    0.0000
     16 H4        13.1846   -2.9322    2.9090 H         1 RES1    0.0000
     17 H5        12.2108   -1.8992    0.9813 H         1 RES1    0.0000
     18 H6        11.7629    1.2835   -1.9627 H         1 RES1    0.0000
     19 H7        10.2828    1.3044   -1.2705 H         1 RES1    0.0000
     20 H8         9.8154   -0.8035   -2.2168 H         1 RES1    0.0000
     21 H9        11.2955   -0.8348   -2.9090 H         1 RES1    0.0000
     22 H10       10.6918    1.0644   -4.2320 H         1 RES1    0.0000
     23 H11        9.1922    1.0435   -3.5574 H         1 RES1    0.0000
     24 C9D        9.5038   -0.4758   -4.9164 C.3       1 RES1    0.0000
     25 C8D        8.9390    0.2442   -6.1465 C.3       1 RES1    0.0000
     26 H10D       8.7832   -1.0644   -4.5300 H         1 RES1    0.0000
     27 H11D      10.2828   -1.0435   -5.2046 H         1 RES1    0.0000
     28 C7D        8.4366   -0.7169   -7.1883 C.3       1 RES1    0.0000
     29 H8D        9.6596    0.8035   -6.5452 H         1 RES1    0.0000
     30 H9D        8.1795    0.8348   -5.8530 H         1 RES1    0.0000
     31 N2D        7.9068    0.0313   -8.3292 N.2       1 RES1    0.0000
     32 H6D        7.7121   -1.2835   -6.7993 H         1 RES1    0.0000
     33 H7D        9.1922   -1.3044   -7.4915 H         1 RES1    0.0000
     34 N1D        7.4063   -0.7064   -9.2176 N.pl3     1 RES1    0.0000
     35 O1D        7.3284   -1.9618   -9.1835 O.2       1 RES1    0.0000
     36 C1D        6.8533   -0.0386  -10.4040 C.ar      1 RES1    0.0000
     37 C2D        6.3216   -0.8118  -11.3915 C.ar      1 RES1    0.0000
     38 C6D        6.8630    1.3461  -10.4723 C.ar      1 RES1    0.0000
     39 C3D        5.7646   -0.1920  -12.5043 C.ar      1 RES1    0.0000
     40 H1D        6.3294   -1.8053  -11.3205 H         1 RES1    0.0000
     41 C5D        6.2943    1.9388  -11.5912 C.ar      1 RES1    0.0000
     42 H5D        7.2642    1.8992   -9.7433 H         1 RES1    0.0000
     43 C4D        5.7315    1.1823  -12.5892 C.ar      1 RES1    0.0000
     44 H2D        5.3946   -0.7513  -13.2481 H         1 RES1    0.0000
     45 H4D        6.2904    2.9322  -11.6710 H         1 RES1    0.0000
     46 H3D        5.2972    1.6279  -13.3708 H         1 RES1    0.0000
@<TRIPOS>BOND
     1    1    2 1
     2    2    3 2
     3    3   10 1
     4    4    2 1
     5    5    4 ar
     6    6    5 ar
     7    7    6 ar
     8    8    7 ar
     9    9    4 ar
    10   10   11 1
    11   11   12 1
    12   12   22 1
    13   13    5 1
    14   14    6 1
    15   15    7 1
    16   16    8 1
    17   17    9 1
    18   18   10 1
    19   19   10 1
    20   20   11 1
    21   21   11 1
    22   23   12 1
    23   24   12 1
    24   25   24 1
    25   26   24 1
    26   27   24 1
    27   28   25 1
    28   29   25 1
    29   30   25 1
    30   31   28 1
    31   32   28 1
    32   33   28 1
    33   34   31 2
    34   35   34 1
    35   36   34 1
    36   37   36 ar
    37   38   36 ar
    38   39   37 ar
    39   40   37 1
    40   41   38 ar
    41   42   38 1
    42   43   39 ar
    43   44   39 1
    44   45   41 1
    45   46   43 1
    46    8    9 ar
    47   41   43 ar
@<TRIPOS>SUBSTRUCTURE
     1 RES1 1

@<TRIPOS>CRYSIN
  19.4750   10.4350    8.7620  90.0000  90.0000  90.0000  61 1

