# MOL2 file generated by ConQuest
# Please check atom types

@<TRIPOS>MOLECULE
GAKQOZ
    30    31     1
SMALL
NO_CHARGES
****
Generated from CSD

@<TRIPOS>ATOM
      1 O1         8.0018    3.3987   14.0640 O.2       1 RES1    0.0000
      2 O2         7.2463    3.0468   12.0855 O.2       1 RES1    0.0000
      3 O3        10.6422   -0.1006    7.3053 O.2       1 RES1    0.0000
      4 N1         8.1549    3.3117   12.8638 N.pl3     1 RES1    0.0000
      5 N2         9.7448    1.4338    9.3780 N.2       1 RES1    0.0000
      6 N3         8.9584    0.5799    8.6563 N.am      1 RES1    0.0000
      7 N4         7.2800   -1.1396    7.5213 N.ar      1 RES1    0.0000
      8 C1         9.9397    2.9963   11.1371 C.ar      1 RES1    0.0000
      9 C2         9.4968    3.5719   12.3274 C.ar      1 RES1    0.0000
     10 C3        10.2953    4.4047   13.0962 C.ar      1 RES1    0.0000
     11 H1         9.9714    4.7629   13.8908 H         1 RES1    0.0000
     12 C4        11.5688    4.6956   12.6740 C.ar      1 RES1    0.0000
     13 H2        12.1103    5.2591   13.1778 H         1 RES1    0.0000
     14 C5        12.0399    4.1519   11.5037 C.ar      1 RES1    0.0000
     15 H3        12.9029    4.3466   11.2195 H         1 RES1    0.0000
     16 C6        11.2434    3.3215   10.7501 C.ar      1 RES1    0.0000
     17 H4        11.5820    2.9660    9.9596 H         1 RES1    0.0000
     18 C7         9.1720    2.0471   10.3214 C.2       1 RES1    0.0000
     19 H5         8.2717    1.8984   10.4981 H         1 RES1    0.0000
     20 C8         9.4763   -0.1366    7.6370 C.2       1 RES1    0.0000
     21 C9         8.4708   -0.9838    6.9244 C.ar      1 RES1    0.0000
     22 C10        8.8002   -1.5663    5.7231 C.ar      1 RES1    0.0000
     23 H6         9.6352   -1.4247    5.3384 H         1 RES1    0.0000
     24 C11        7.8660   -2.3628    5.1024 C.ar      1 RES1    0.0000
     25 H7         8.0562   -2.7649    4.2867 H         1 RES1    0.0000
     26 C12        6.6547   -2.5546    5.7044 C.ar      1 RES1    0.0000
     27 H8         6.0113   -3.0995    5.3111 H         1 RES1    0.0000
     28 C13        6.4045   -1.9248    6.9036 C.ar      1 RES1    0.0000
     29 H9         5.5752   -2.0563    7.3030 H         1 RES1    0.0000
     30 H10        8.0874    0.5075    8.8174 H         1 RES1    0.0000
@<TRIPOS>BOND
     1    1    4 2
     2    2    4 2
     3    3   20 2
     4    4    9 1
     5    5    6 1
     6    6   20 1
     7    7   21 ar
     8    8    9 ar
     9    9   10 ar
    10   10   11 1
    11   12   10 ar
    12   13   12 1
    13   14   12 ar
    14   15   14 1
    15   16    8 ar
    16   17   16 1
    17   18    5 2
    18   19   18 1
    19   20   21 1
    20   21   22 ar
    21   22   23 1
    22   24   22 ar
    23   25   24 1
    24   26   24 ar
    25   27   26 1
    26   28    7 ar
    27   29   28 1
    28   30    6 1
    29    8   18 1
    30   14   16 ar
    31   26   28 ar
@<TRIPOS>SUBSTRUCTURE
     1 RES1 1

@<TRIPOS>CRYSIN
  12.1910    9.3980   21.6240  90.0000 103.4150  90.0000  15 1

