# MOL2 file generated by ConQuest
# Please check atom types

@<TRIPOS>MOLECULE
GAKVOF
    26    27     1
SMALL
NO_CHARGES
****
Generated from CSD

@<TRIPOS>ATOM
      1 O1        13.0239    9.0601    3.5561 O.2       1 RES1    0.0000
      2 O2        13.0880    6.8996    3.6852 O.2       1 RES1    0.0000
      3 O3         7.9271   10.0808    0.0322 O.3       1 RES1    0.0000
      4 H1         7.9502   10.8708   -0.4478 H         1 RES1    0.0000
      5 N1         6.5929   13.8986    1.7386 N.2       1 RES1    0.0000
      6 N2         7.7207   14.1777    2.5063 N.2       1 RES1    0.0000
      7 N3         7.5933   12.0109    2.2508 N.pl3     1 RES1    0.0000
      8 N4         7.9898   10.6556    2.3561 N.3       1 RES1    0.0000
      9 H2         7.2194   10.1500    2.3961 H         1 RES1    0.0000
     10 N5        12.5568    7.9482    3.3081 N.pl3     1 RES1    0.0000
     11 C1         9.4700    8.9592    1.4902 C.ar      1 RES1    0.0000
     12 C2        10.6531    9.0367    2.2218 C.ar      1 RES1    0.0000
     13 H3        11.0011    9.8771    2.4967 H         1 RES1    0.0000
     14 C3        11.3111    7.8582    2.5388 C.ar      1 RES1    0.0000
     15 C4        10.8373    6.6064    2.1728 C.ar      1 RES1    0.0000
     16 H4        11.3024    5.8154    2.4205 H         1 RES1    0.0000
     17 C5         9.6658    6.5451    1.4357 C.ar      1 RES1    0.0000
     18 H5         9.3227    5.7019    1.1619 H         1 RES1    0.0000
     19 C6         8.9866    7.7161    1.0928 C.ar      1 RES1    0.0000
     20 H6         8.1867    7.6637    0.5829 H         1 RES1    0.0000
     21 C7         8.7475   10.2502    1.1541 C.3       1 RES1    0.0000
     22 H7         9.4276   10.9547    0.9506 H         1 RES1    0.0000
     23 C8         6.5556   12.5971    1.5899 C.2       1 RES1    0.0000
     24 H8         5.8969   12.1277    1.0912 H         1 RES1    0.0000
     25 C9         8.2897   13.0333    2.8032 C.2       1 RES1    0.0000
     26 H9         9.0747   12.9356    3.3287 H         1 RES1    0.0000
@<TRIPOS>BOND
     1    1   10 2
     2    2   10 2
     3    3    4 1
     4    5    6 1
     5    6   25 2
     6    7    8 1
     7    8    9 1
     8   10   14 1
     9   11   12 ar
    10   12   13 1
    11   14   12 ar
    12   15   14 ar
    13   16   15 1
    14   17   15 ar
    15   18   17 1
    16   19   11 ar
    17   20   19 1
    18   21    3 1
    19   22   21 1
    20   23    5 2
    21   24   23 1
    22   25    7 1
    23   26   25 1
    24    7   23 1
    25    8   21 1
    26   11   21 1
    27   17   19 ar
@<TRIPOS>SUBSTRUCTURE
     1 RES1 1

@<TRIPOS>CRYSIN
  12.3160   10.6160    7.8630  90.0000  92.3900  90.0000  14 1

