# MOL2 file generated by ConQuest
# Please check atom types

@<TRIPOS>MOLECULE
GAKWAS
    28    29     1
SMALL
NO_CHARGES
****
Generated from CSD

@<TRIPOS>ATOM
      1 O1        16.2441   10.3450    6.2790 O.2       1 RES1    0.0000
      2 O2        14.2960    9.5325    6.7300 O.2       1 RES1    0.0000
      3 O3        19.8172    7.5440   10.3965 O.2       1 RES1    0.0000
      4 O4        19.8649    7.8286    8.2472 O.2       1 RES1    0.0000
      5 O5        13.1482    9.0779   10.6556 O.3       1 RES1    0.0000
      6 H1        12.2435    8.9240   10.4329 H         1 RES1    0.0000
      7 N1        10.7435   12.4731    9.7578 N.2       1 RES1    0.0000
      8 N2        10.9040   12.4766    8.3690 N.2       1 RES1    0.0000
      9 N3        12.6966   11.6200    9.2950 N.pl3     1 RES1    0.0000
     10 N4        13.9420   10.9589    9.3620 N.3       1 RES1    0.0000
     11 H2        14.3099   11.2210   10.0715 H         1 RES1    0.0000
     12 N5        15.4701    9.7415    7.0097 N.pl3     1 RES1    0.0000
     13 N6        19.2920    7.8387    9.3260 N.pl3     1 RES1    0.0000
     14 C1        15.1797    8.9461    9.3720 C.ar      1 RES1    0.0000
     15 C2        16.0044    9.1737    8.2630 C.ar      1 RES1    0.0000
     16 C3        17.3485    8.8495    8.2363 C.ar      1 RES1    0.0000
     17 H3        17.8647    9.0381    7.4958 H         1 RES1    0.0000
     18 C4        17.8708    8.2361    9.3539 C.ar      1 RES1    0.0000
     19 C5        17.1032    7.9446   10.4608 C.ar      1 RES1    0.0000
     20 H4        17.4514    7.4930   11.2050 H         1 RES1    0.0000
     21 C6        15.7625    8.3147   10.4650 C.ar      1 RES1    0.0000
     22 H5        15.1677    8.1308   11.2039 H         1 RES1    0.0000
     23 C7        13.7637    9.4907    9.4666 C.3       1 RES1    0.0000
     24 H6        13.2377    9.2550    8.7405 H         1 RES1    0.0000
     25 C8        11.8223   11.9455   10.2716 C.2       1 RES1    0.0000
     26 H7        11.9879   11.8088   11.2028 H         1 RES1    0.0000
     27 C9        12.0858   11.9749    8.1361 C.2       1 RES1    0.0000
     28 H8        12.4225   11.8630    7.3017 H         1 RES1    0.0000
@<TRIPOS>BOND
     1    1   12 2
     2    2   12 2
     3    3   13 2
     4    4   13 2
     5    5    6 1
     6    7    8 1
     7    8   27 2
     8    9   10 1
     9   10   11 1
    10   12   15 1
    11   13   18 1
    12   14   15 ar
    13   15   16 ar
    14   16   17 1
    15   18   16 ar
    16   19   18 ar
    17   20   19 1
    18   21   14 ar
    19   22   21 1
    20   23    5 1
    21   24   23 1
    22   25    7 2
    23   26   25 1
    24   27    9 1
    25   28   27 1
    26    9   25 1
    27   10   23 1
    28   14   23 1
    29   19   21 ar
@<TRIPOS>SUBSTRUCTURE
     1 RES1 1

@<TRIPOS>CRYSIN
  14.2020   14.2670   11.2230  90.0000  90.0000  90.0000  56 1

