# MOL2 file generated by ConQuest
# Please check atom types

@<TRIPOS>MOLECULE
GALDAZ
    41    42     1
SMALL
NO_CHARGES
****
Generated from CSD

@<TRIPOS>ATOM
      1 O1         6.7774    9.3438   10.0620 O.2       1 RES1    0.0000
      2 O2         6.3919    7.6256   11.3164 O.2       1 RES1    0.0000
      3 N1         6.6161    8.1384   10.2214 N.pl3     1 RES1    0.0000
      4 N2         6.8969    3.4878    5.7068 N.2       1 RES1    0.0000
      5 C1         6.8717    5.6002    6.8586 C.ar      1 RES1    0.0000
      6 C2         7.1023    6.9665    6.7291 C.ar      1 RES1    0.0000
      7 C3         7.0121    7.8147    7.8204 C.ar      1 RES1    0.0000
      8 C4         6.7032    7.2594    9.0462 C.ar      1 RES1    0.0000
      9 C5         6.4715    5.9012    9.2118 C.ar      1 RES1    0.0000
     10 C6         6.5461    5.0734    8.1125 C.ar      1 RES1    0.0000
     11 C7         6.9898    4.7483    5.6606 C.2       1 RES1    0.0000
     12 C8         7.0201    2.7742    4.4324 C.3       1 RES1    0.0000
     13 C9         5.7687    1.9515    4.1678 C.3       1 RES1    0.0000
     14 H1         7.3261    7.3237    5.8783 H         1 RES1    0.0000
     15 H2         7.1581    8.7484    7.7288 H         1 RES1    0.0000
     16 H3         6.2644    5.5483   10.0695 H         1 RES1    0.0000
     17 H4         6.3761    4.1441    8.2073 H         1 RES1    0.0000
     18 H5         7.1420    5.1633    4.8197 H         1 RES1    0.0000
     19 H6         7.8093    2.1772    4.4613 H         1 RES1    0.0000
     20 H7         7.1511    3.4251    3.6977 H         1 RES1    0.0000
     21 H8         5.9340    1.3670    3.3860 H         1 RES1    0.0000
     22 H9         5.6034    1.3670    4.9497 H         1 RES1    0.0000
     23 C8E        4.5174    2.7742    3.9033 C.3       1 RES1    0.0000
     24 N2E        4.6406    3.4878    2.6289 N.2       1 RES1    0.0000
     25 C7E        4.5477    4.7483    2.6751 C.2       1 RES1    0.0000
     26 C1E        4.6658    5.6002    1.4771 C.ar      1 RES1    0.0000
     27 C2E        4.4351    6.9665    1.6066 C.ar      1 RES1    0.0000
     28 C3E        4.5253    7.8147    0.5153 C.ar      1 RES1    0.0000
     29 C4E        4.8343    7.2594   -0.7105 C.ar      1 RES1    0.0000
     30 N1E        4.9214    8.1384   -1.8857 N.pl3     1 RES1    0.0000
     31 O1E        4.7601    9.3438   -1.7263 O.2       1 RES1    0.0000
     32 O2E        5.1455    7.6256   -2.9807 O.2       1 RES1    0.0000
     33 C5E        5.0660    5.9012   -0.8761 C.ar      1 RES1    0.0000
     34 C6E        4.9914    5.0734    0.2232 C.ar      1 RES1    0.0000
     35 H4E        5.1613    4.1441    0.1284 H         1 RES1    0.0000
     36 H3E        5.2730    5.5483   -1.7338 H         1 RES1    0.0000
     37 H2E        4.3793    8.7484    0.6068 H         1 RES1    0.0000
     38 H1E        4.2114    7.3237    2.4574 H         1 RES1    0.0000
     39 H5E        4.3954    5.1633    3.5160 H         1 RES1    0.0000
     40 H6E        3.7281    2.1772    3.8744 H         1 RES1    0.0000
     41 H7E        4.3864    3.4251    4.6380 H         1 RES1    0.0000
@<TRIPOS>BOND
     1    1    3 2
     2    2    3 2
     3    3    8 1
     4    4   11 2
     5    5    6 ar
     6    6    7 ar
     7    7    8 ar
     8    8    9 ar
     9    9   10 ar
    10   10    5 ar
    11   11    5 1
    12   12    4 1
    13   13   12 1
    14   14    6 1
    15   15    7 1
    16   16    9 1
    17   17   10 1
    18   18   11 1
    19   19   12 1
    20   20   12 1
    21   21   13 1
    22   22   13 1
    23   23   13 1
    24   24   23 1
    25   25   24 2
    26   26   25 1
    27   27   26 ar
    28   28   27 ar
    29   29   28 ar
    30   30   29 1
    31   31   30 2
    32   32   30 2
    33   33   29 ar
    34   34   26 ar
    35   35   34 1
    36   36   33 1
    37   37   28 1
    38   38   27 1
    39   39   25 1
    40   40   23 1
    41   41   23 1
    42   33   34 ar
@<TRIPOS>SUBSTRUCTURE
     1 RES1 1

@<TRIPOS>CRYSIN
  12.9412    7.3062   16.9061  90.0000  99.5590  90.0000  15 1

