# MOL2 file generated by ConQuest
# Please check atom types

@<TRIPOS>MOLECULE
GALKOW
    22    21     1
SMALL
NO_CHARGES
****
Generated from CSD

@<TRIPOS>ATOM
      1 O1         0.6841    0.6902    1.2804 O.3       1 RES1    0.0000
      2 C1         2.7535    0.2923    0.5136 C.2       1 RES1    0.0000
      3 N1         1.4940    0.1454    0.2686 N.2       1 RES1    0.0000
      4 C2         3.2905    0.9771    1.7282 C.3       1 RES1    0.0000
      5 H1         2.6595    1.6533    2.0209 H         1 RES1    0.0000
      6 H2         4.1228    1.4217    1.5035 H         1 RES1    0.0000
      7 C3         3.5328    0.0016    2.8517 C.3       1 RES1    0.0000
      8 H3         3.8774    0.4718    3.6138 H         1 RES1    0.0000
      9 H4         4.1682   -0.6599    2.5696 H         1 RES1    0.0000
     10 H5         2.7062   -0.4267    3.0870 H         1 RES1    0.0000
     11 H6        -0.1406    0.6218    0.8466 H         1 RES1    0.0000
     12 O1D        5.7089   -0.6902   -1.2804 O.3       1 RES1    0.0000
     13 C1D        3.6395   -0.2923   -0.5136 C.2       1 RES1    0.0000
     14 N1D        4.8990   -0.1454   -0.2686 N.2       1 RES1    0.0000
     15 C2D        3.1025   -0.9771   -1.7282 C.3       1 RES1    0.0000
     16 H1D        3.7335   -1.6533   -2.0209 H         1 RES1    0.0000
     17 H2D        2.2702   -1.4217   -1.5035 H         1 RES1    0.0000
     18 C3D        2.8602   -0.0016   -2.8517 C.3       1 RES1    0.0000
     19 H3D        2.5156   -0.4718   -3.6138 H         1 RES1    0.0000
     20 H4D        2.2248    0.6599   -2.5696 H         1 RES1    0.0000
     21 H5D        3.6868    0.4267   -3.0870 H         1 RES1    0.0000
     22 H6D        6.5336   -0.6218   -0.8466 H         1 RES1    0.0000
@<TRIPOS>BOND
     1    1    3 1
     2    2    3 2
     3    4    2 1
     4    5    4 1
     5    6    4 1
     6    7    4 1
     7    8    7 1
     8    9    7 1
     9   10    7 1
    10   11    1 1
    11   12   14 1
    12   13    2 1
    13   14   13 2
    14   15   13 1
    15   16   15 1
    16   17   15 1
    17   18   15 1
    18   19   18 1
    19   20   18 1
    20   21   18 1
    21   22   12 1
@<TRIPOS>SUBSTRUCTURE
     1 RES1 1

@<TRIPOS>CRYSIN
   6.3930    7.7730   15.6780  90.0000  90.0000  90.0000  61 1

