# MOL2 file generated by ConQuest
# Please check atom types

@<TRIPOS>MOLECULE
GALTOE
    47    48     1
SMALL
NO_CHARGES
****
Generated from CSD

@<TRIPOS>ATOM
      1 O1        -8.2923   -2.9840   -0.2557 O.2       1 RES1    0.0000
      2 O2        -8.5610    1.8991   -3.4642 O.2       1 RES1    0.0000
      3 O3        -9.6309   -1.3869    0.2592 O.2       1 RES1    0.0000
      4 N1        -8.7483    1.0669   -4.3538 N.pl3     1 RES1    0.0000
      5 O4       -13.2303    2.2423   -4.3119 O.3       1 RES1    0.0000
      6 O5        -8.7057    1.3337   -5.5357 O.2       1 RES1    0.0000
      7 O6       -13.1984    0.2415   -5.2976 O.2       1 RES1    0.0000
      8 C1        -8.7874   -0.5834   -2.4636 C.3       1 RES1    0.0000
      9 H1        -9.2202    0.1251   -1.9435 H         1 RES1    0.0000
     10 N2        -9.0843   -2.1153   -0.5564 N.pl3     1 RES1    0.0000
     11 C2       -10.6932   -0.4044   -4.2193 C.3       1 RES1    0.0000
     12 H2       -10.8159   -0.4064   -5.1910 H         1 RES1    0.0000
     13 C3        -9.4082   -1.9217   -2.0297 C.3       1 RES1    0.0000
     14 H3        -8.9960   -2.6461   -2.5448 H         1 RES1    0.0000
     15 C4        -7.2933   -0.5275   -2.1591 C.ar      1 RES1    0.0000
     16 C5       -11.2361   -1.7428   -3.6992 C.3       1 RES1    0.0000
     17 H4       -12.1977   -1.7634   -3.8235 H         1 RES1    0.0000
     18 H5       -10.8540   -2.4645   -4.2244 H         1 RES1    0.0000
     19 C6       -10.9176   -1.9762   -2.2213 C.3       1 RES1    0.0000
     20 H6       -11.3444   -1.2944   -1.6796 H         1 RES1    0.0000
     21 H7       -11.2547   -2.8423   -1.9435 H         1 RES1    0.0000
     22 C7        -9.1560   -0.3565   -3.9592 C.3       1 RES1    0.0000
     23 C8       -11.4964    0.7796   -3.6725 C.3       1 RES1    0.0000
     24 H8       -11.7571    0.6000   -2.7554 H         1 RES1    0.0000
     25 H9       -10.9447    1.5771   -3.6776 H         1 RES1    0.0000
     26 C9        -6.7743    0.5481   -1.4652 C.ar      1 RES1    0.0000
     27 H10       -7.3394    1.2286   -1.1760 H         1 RES1    0.0000
     28 C10       -6.4267   -1.5559   -2.5397 C.ar      1 RES1    0.0000
     29 H11       -6.7637   -2.3029   -2.9799 H         1 RES1    0.0000
     30 C11       -5.3968    0.6213   -1.1925 C.ar      1 RES1    0.0000
     31 H12       -5.0496    1.3510   -0.7320 H         1 RES1    0.0000
     32 C12      -14.3952    2.6328   -5.1428 C.3       1 RES1    0.0000
     33 H13      -14.2602    2.3328   -6.0562 H         1 RES1    0.0000
     34 H14      -14.4814    3.5986   -5.1517 H         1 RES1    0.0000
     35 C13       -8.4331   -1.2831   -4.9424 C.3       1 RES1    0.0000
     36 H15       -7.4912   -1.0975   -4.9246 H         1 RES1    0.0000
     37 H16       -8.7714   -1.1361   -5.8291 H         1 RES1    0.0000
     38 H17       -8.5833   -2.1971   -4.6900 H         1 RES1    0.0000
     39 C14      -12.7321    1.0117   -4.5149 C.2       1 RES1    0.0000
     40 C15       -5.0714   -1.4740   -2.2708 C.ar      1 RES1    0.0000
     41 H18       -4.5043   -2.1598   -2.5410 H         1 RES1    0.0000
     42 C16      -15.6429    2.0235   -4.5948 C.3       1 RES1    0.0000
     43 H19      -15.7318    2.2570   -3.6675 H         1 RES1    0.0000
     44 H20      -15.5975    1.0683   -4.6811 H         1 RES1    0.0000
     45 H21      -16.4014    2.3534   -5.0819 H         1 RES1    0.0000
     46 C17       -4.5637   -0.3951   -1.6124 C.ar      1 RES1    0.0000
     47 H22       -3.6503   -0.3432   -1.4462 H         1 RES1    0.0000
@<TRIPOS>BOND
     1    1   10 2
     2    2    4 2
     3    3   10 2
     4    4    6 2
     5    5   32 1
     6    7   39 2
     7    8    9 1
     8   10   13 1
     9   11   12 1
    10   13    8 1
    11   14   13 1
    12   15    8 1
    13   16   11 1
    14   17   16 1
    15   18   16 1
    16   19   13 1
    17   20   19 1
    18   21   19 1
    19   22    4 1
    20   23   11 1
    21   24   23 1
    22   25   23 1
    23   26   15 ar
    24   27   26 1
    25   28   15 ar
    26   29   28 1
    27   30   26 ar
    28   31   30 1
    29   32   33 1
    30   34   32 1
    31   35   22 1
    32   36   35 1
    33   37   35 1
    34   38   35 1
    35   39    5 1
    36   40   28 ar
    37   41   40 1
    38   42   32 1
    39   43   42 1
    40   44   42 1
    41   45   42 1
    42   46   30 ar
    43   47   46 1
    44    8   22 1
    45   11   22 1
    46   16   19 1
    47   23   39 1
    48   40   46 ar
@<TRIPOS>SUBSTRUCTURE
     1 RES1 1

@<TRIPOS>CRYSIN
  10.1928    6.6518   12.7044  90.0000  93.0980  90.0000   4 1

