# MOL2 file generated by ConQuest
# Please check atom types

@<TRIPOS>MOLECULE
GALTEU
    49    45     2
SMALL
NO_CHARGES
****
Generated from CSD

@<TRIPOS>ATOM
      1 O1         7.0151    9.1373    3.4001 O.3       1 RES1    0.0000
      2 O2         5.5867    9.5706    5.0751 O.2       1 RES1    0.0000
      3 N1         6.3819   14.1710    3.8957 N.pl3     1 RES1    0.0000
      4 O3         7.2430   14.0634    3.0302 O.2       1 RES1    0.0000
      5 O4         6.5774   14.6650    4.9958 O.2       1 RES1    0.0000
      6 C1         5.0031   13.6182    3.6242 C.3       1 RES1    0.0000
      7 C2         3.9785   17.6548    2.2943 C.ar      1 RES1    0.0000
      8 C3         4.6752   15.3853    1.8549 C.ar      1 RES1    0.0000
      9 C4         6.1699    9.9106    4.0709 C.2       1 RES1    0.0000
     10 C5         7.2217    7.7932    3.9238 C.3       1 RES1    0.0000
     11 C6         4.9657   12.1319    4.0463 C.3       1 RES1    0.0000
     12 C7         3.5501   11.6192    3.7461 C.3       1 RES1    0.0000
     13 C8         3.1340   11.8388    2.2894 C.3       1 RES1    0.0000
     14 C9         4.8053   18.1170    1.2847 C.ar      1 RES1    0.0000
     15 C10        3.9071   16.2956    2.5765 C.ar      1 RES1    0.0000
     16 C11        6.0659   11.2706    3.4178 C.3       1 RES1    0.0000
     17 C12        4.6156   13.8976    2.1691 C.3       1 RES1    0.0000
     18 C13        5.5694   17.2188    0.5646 C.ar      1 RES1    0.0000
     19 C14        8.3960    7.2189    3.1941 C.3       1 RES1    0.0000
     20 C15        5.5117   15.8613    0.8511 C.ar      1 RES1    0.0000
     21 C16        3.2130   13.3232    1.9328 C.3       1 RES1    0.0000
     22 H1         2.5416   13.8375    2.4674 H         1 RES1    0.0000
     23 N2         2.9672   13.5393    0.4494 N.pl3     1 RES1    0.0000
     24 O5         1.8678   13.9846    0.1956 O.2       1 RES1    0.0000
     25 O6         3.7984   13.2682   -0.4007 O.2       1 RES1    0.0000
     26 H2         2.9027   12.0996    4.3607 H         1 RES1    0.0000
     27 H3         3.4930   10.6438    3.9113 H         1 RES1    0.0000
     28 H4         5.1062   12.1296    5.0056 H         1 RES1    0.0000
     29 H5         5.2057   13.4143    1.5541 H         1 RES1    0.0000
     30 H6         6.4132    7.2799    3.7906 H         1 RES1    0.0000
     31 H7         2.2194   11.5122    2.1783 H         1 RES1    0.0000
     32 H8         4.4229   14.1176    4.2171 H         1 RES1    0.0000
     33 H9         3.3196   15.9837    3.2643 H         1 RES1    0.0000
     34 H10        4.8644   19.0623    1.0922 H         1 RES1    0.0000
     35 H11        3.4659   18.2809    2.8107 H         1 RES1    0.0000
     36 H12        7.3670    7.8613    4.8954 H         1 RES1    0.0000
     37 H13        6.9486   11.7023    3.5014 H         1 RES1    0.0000
     38 H14        5.9383   11.1380    2.4966 H         1 RES1    0.0000
     39 H15        3.7603   11.3331    1.6269 H         1 RES1    0.0000
     40 H16        9.1473    7.7812    3.3870 H         1 RES1    0.0000
     41 H17        8.5594    6.3324    3.5389 H         1 RES1    0.0000
     42 H18        6.1173   17.4975   -0.1123 H         1 RES1    0.0000
     43 H19        6.0377   15.2152    0.3350 H         1 RES1    0.0000
     44 H20        8.2293    7.1699    2.2282 H         1 RES1    0.0000
     45 C17        3.1899   13.3452    2.0264 Du        2 SUP2    0.0000
     46 H21        2.6020   13.8065    2.6921 Du        2 SUP2    0.0000
     47 N3         2.6140   13.5663    0.6366 Du        2 SUP2    0.0000
     48 O7         3.1851   12.9540   -0.2476 Du        2 SUP2    0.0000
     49 O8         1.6506   14.2867    0.4743 Du        2 SUP2    0.0000
@<TRIPOS>BOND
     1    1    9 1
     2    2    9 2
     3    3    4 2
     4    5    3 2
     5    6    3 1
     6    7   14 ar
     7    8   15 ar
     8    9   16 1
     9   10    1 1
    10   11    6 1
    11   12   11 1
    12   13   12 1
    13   14   18 ar
    14   15    7 ar
    15   16   11 1
    16   17    6 1
    17   18   20 ar
    18   19   10 1
    19   20    8 ar
    20   21   13 1
    21   22   21 1
    22   23   21 1
    23   24   23 2
    24   25   23 2
    25   26   12 1
    26   27   12 1
    27   28   11 1
    28   29   17 1
    29   30   10 1
    30   31   13 1
    31   32    6 1
    32   33   15 1
    33   34   14 1
    34   35    7 1
    35   36   10 1
    36   37   16 1
    37   38   16 1
    38   39   13 1
    39   40   19 1
    40   41   19 1
    41   42   18 1
    42   43   20 1
    43   44   19 1
    44    8   17 1
    45   17   21 1
@<TRIPOS>SUBSTRUCTURE
     1 RES1 1
     2 SUP2 45

@<TRIPOS>CRYSIN
   7.9549   10.0054   20.8047  90.0000  90.0000  90.0000  19 1

