# MOL2 file generated by ConQuest
# Please check atom types

@<TRIPOS>MOLECULE
GALTIY
    51    52     1
SMALL
NO_CHARGES
****
Generated from CSD

@<TRIPOS>ATOM
      1 O1         4.2595    5.0264    0.9105 O.3       1 RES1    0.0000
      2 O2         5.0319    3.1322    6.5878 O.2       1 RES1    0.0000
      3 O3         2.4635    1.2758    8.3902 O.2       1 RES1    0.0000
      4 O4         3.9776   -1.2292    2.2955 O.2       1 RES1    0.0000
      5 O5         3.5987    1.0038   10.2958 O.3       1 RES1    0.0000
      6 O6         6.4529    1.7670    5.6864 O.2       1 RES1    0.0000
      7 N1         5.3143    2.0642    6.0568 N.pl3     1 RES1    0.0000
      8 O7         1.8317   -1.1020    2.4427 O.2       1 RES1    0.0000
      9 C1         3.0663   -0.4093    4.2922 C.3       1 RES1    0.0000
     10 H1         2.2207    0.0705    4.5269 H         1 RES1    0.0000
     11 C2         4.2338    1.0378    5.8836 C.3       1 RES1    0.0000
     12 H2         3.3498    1.4622    6.0822 H         1 RES1    0.0000
     13 C3         4.2450    0.5667    4.4138 C.3       1 RES1    0.0000
     14 H3         5.0894    0.0554    4.2596 H         1 RES1    0.0000
     15 N2         2.9546   -0.9433    2.8861 N.pl3     1 RES1    0.0000
     16 C4         4.2969    3.8979    1.6750 C.ar      1 RES1    0.0000
     17 C5         5.2775    2.9307    1.6229 C.ar      1 RES1    0.0000
     18 H4         5.9829    3.0050    0.9914 H         1 RES1    0.0000
     19 C6         4.6948    0.3224    8.3231 C.3       1 RES1    0.0000
     20 H5         5.3713    1.0579    8.2948 H         1 RES1    0.0000
     21 C7         4.1975    1.7116    3.4168 C.ar      1 RES1    0.0000
     22 C8         3.2342    3.7493    2.5617 C.ar      1 RES1    0.0000
     23 H6         2.5299    4.3866    2.5708 H         1 RES1    0.0000
     24 C9         4.4582   -0.1234    6.8633 C.3       1 RES1    0.0000
     25 H7         5.2976   -0.5806    6.5685 H         1 RES1    0.0000
     26 C10        3.4447    0.8955    8.9722 C.2       1 RES1    0.0000
     27 C11        3.2019    2.6775    3.4270 C.ar      1 RES1    0.0000
     28 H8         2.4836    2.5995    4.0432 H         1 RES1    0.0000
     29 C12        3.3386   -1.1284    6.6741 C.3       1 RES1    0.0000
     30 H9         2.4797   -0.7128    6.9400 H         1 RES1    0.0000
     31 H10        3.4960   -1.9068    7.2660 H         1 RES1    0.0000
     32 C13        5.2362    1.8526    2.4898 C.ar      1 RES1    0.0000
     33 H11        5.9238    1.1990    2.4558 H         1 RES1    0.0000
     34 C14        3.2393   -1.6083    5.2292 C.3       1 RES1    0.0000
     35 H12        2.4668   -2.2204    5.1335 H         1 RES1    0.0000
     36 H13        4.0597   -2.1058    4.9865 H         1 RES1    0.0000
     37 C15        5.3138   -0.8186    9.1304 C.3       1 RES1    0.0000
     38 H14        5.4985   -0.5101   10.0425 H         1 RES1    0.0000
     39 H15        6.1498   -1.1033    8.7064 H         1 RES1    0.0000
     40 H16        4.6892   -1.5730    9.1606 H         1 RES1    0.0000
     41 C16        2.4992    1.6158   11.0283 C.3       1 RES1    0.0000
     42 H17        1.6961    1.0390   10.9778 H         1 RES1    0.0000
     43 H18        2.2765    2.4949   10.6331 H         1 RES1    0.0000
     44 C17        5.4181    5.3387    0.1331 C.3       1 RES1    0.0000
     45 H19        6.2112    5.3236    0.7082 H         1 RES1    0.0000
     46 H20        5.3171    6.2304   -0.2592 H         1 RES1    0.0000
     47 H21        5.5197    4.6763   -0.5826 H         1 RES1    0.0000
     48 C18        2.9234    1.7846   12.4529 C.3       1 RES1    0.0000
     49 H22        3.1500    0.9093   12.8324 H         1 RES1    0.0000
     50 H23        2.1906    2.1839   12.9660 H         1 RES1    0.0000
     51 H24        3.7075    2.3702   12.4930 H         1 RES1    0.0000
@<TRIPOS>BOND
     1    1   16 1
     2    2    7 2
     3    3   26 2
     4    4   15 2
     5    5   26 1
     6    6    7 2
     7    7   11 1
     8    8   15 2
     9    9   10 1
    10   11   12 1
    11   13    9 1
    12   14   13 1
    13   15    9 1
    14   16   17 ar
    15   17   18 1
    16   19   20 1
    17   21   13 1
    18   22   16 ar
    19   23   22 1
    20   24   11 1
    21   25   24 1
    22   26   19 1
    23   27   21 ar
    24   28   27 1
    25   29   24 1
    26   30   29 1
    27   31   29 1
    28   32   17 ar
    29   33   32 1
    30   34    9 1
    31   35   34 1
    32   36   34 1
    33   37   19 1
    34   38   37 1
    35   39   37 1
    36   40   37 1
    37   41    5 1
    38   42   41 1
    39   43   41 1
    40   44    1 1
    41   45   44 1
    42   46   44 1
    43   47   44 1
    44   48   41 1
    45   49   48 1
    46   50   48 1
    47   51   48 1
    48   11   13 1
    49   19   24 1
    50   21   32 ar
    51   22   27 ar
    52   29   34 1
@<TRIPOS>SUBSTRUCTURE
     1 RES1 1

@<TRIPOS>CRYSIN
   5.5811   12.5943   26.7230  90.0000  90.0000  90.0000  19 1

