# MOL2 file generated by ConQuest
# Please check atom types

@<TRIPOS>MOLECULE
GALYIE
    29    30     1
SMALL
NO_CHARGES
****
Generated from CSD

@<TRIPOS>ATOM
      1 N1        -0.1685    1.9084   13.8636 N.pl3     1 RES1    0.0000
      2 C1         1.1662    3.5698   16.0141 C.2       1 RES1    0.0000
      3 N2         3.0250    2.6591   16.8553 N.pl3     1 RES1    0.0000
      4 C2         0.1997    4.1974   18.3599 C.ar      1 RES1    0.0000
      5 H1        -0.5870    4.5954   18.0642 H         1 RES1    0.0000
      6 C3         0.1343    4.0856   15.0549 C.3       1 RES1    0.0000
      7 H2        -0.7393    3.9112   15.4638 H         1 RES1    0.0000
      8 C4         1.6645    3.5268   20.1623 C.ar      1 RES1    0.0000
      9 H3         1.8312    3.4928   21.0770 H         1 RES1    0.0000
     10 C5         1.1183    3.6778   17.4448 C.ar      1 RES1    0.0000
     11 C6         2.3079    3.0880   17.9339 C.ar      1 RES1    0.0000
     12 O1         0.3106    1.1547   13.0272 O.2       1 RES1    0.0000
     13 C7         0.2338    5.6043   14.8633 C.3       1 RES1    0.0000
     14 H4        -0.3951    5.8785   14.1762 H         1 RES1    0.0000
     15 H5        -0.0174    6.0446   15.6901 H         1 RES1    0.0000
     16 O2        -0.9102    1.5270   14.7431 O.2       1 RES1    0.0000
     17 C8         2.3342    2.9377   15.7128 C.2       1 RES1    0.0000
     18 H6         2.6196    2.7263   14.8527 H         1 RES1    0.0000
     19 C9         0.4791    4.1098   19.7099 C.ar      1 RES1    0.0000
     20 H7        -0.1313    4.4444   20.3275 H         1 RES1    0.0000
     21 C10        0.1415    3.3576   13.7155 C.3       1 RES1    0.0000
     22 H8        -0.5139    3.7647   13.1275 H         1 RES1    0.0000
     23 H9         1.0139    3.4566   13.3036 H         1 RES1    0.0000
     24 N3         1.5943    6.0408   14.4760 N.pl3     1 RES1    0.0000
     25 C11        2.5915    3.0027   19.2952 C.ar      1 RES1    0.0000
     26 H10        3.3745    2.6070   19.6033 H         1 RES1    0.0000
     27 O3         2.1196    5.5296   13.5218 O.2       1 RES1    0.0000
     28 O4         2.0974    6.9320   15.1231 O.2       1 RES1    0.0000
     29 H11        3.7235    2.1448   16.8621 H         1 RES1    0.0000
@<TRIPOS>BOND
     1    1   12 2
     2    2    6 1
     3    3   11 1
     4    4    5 1
     5    6    7 1
     6    8    9 1
     7   10    2 1
     8   11   10 ar
     9   13    6 1
    10   14   13 1
    11   15   13 1
    12   16    1 2
    13   17    2 2
    14   18   17 1
    15   19    4 ar
    16   20   19 1
    17   21    1 1
    18   22   21 1
    19   23   21 1
    20   24   13 1
    21   25    8 ar
    22   26   25 1
    23   27   24 2
    24   28   24 2
    25   29    3 1
    26    3   17 1
    27    4   10 ar
    28    6   21 1
    29    8   19 ar
    30   11   25 ar
@<TRIPOS>SUBSTRUCTURE
     1 RES1 1

@<TRIPOS>CRYSIN
   5.9960    7.5520   25.1485  90.0000  90.0000  90.0000  19 1

