# MOL2 file generated by ConQuest
# Please check atom types

@<TRIPOS>MOLECULE
GAMNAM
    68    69     1
SMALL
NO_CHARGES
****
Generated from CSD

@<TRIPOS>ATOM
      1 O1         2.3023    8.6465   11.6550 O.3       1 RES1    0.0000
      2 H1         2.9155    8.6562   10.7867 H         1 RES1    0.0000
      3 O2         0.7386    9.2013   13.6851 O.3       1 RES1    0.0000
      4 H2         1.1564    8.5182   13.4543 H         1 RES1    0.0000
      5 O3         7.7754    7.6851    6.4066 O.2       1 RES1    0.0000
      6 N1         3.6132    9.3034    9.6641 N.2       1 RES1    0.0000
      7 N2         6.8276    8.0911    7.1699 N.3       1 RES1    0.0000
      8 C1         1.9373    9.9282   11.7803 C.ar      1 RES1    0.0000
      9 C2         1.0975   10.2245   12.8629 C.ar      1 RES1    0.0000
     10 C3         0.6767   11.5206   13.0872 C.ar      1 RES1    0.0000
     11 C4         1.1251   12.5047   12.1916 C.ar      1 RES1    0.0000
     12 H3         0.8349   13.3981   12.3376 H         1 RES1    0.0000
     13 C5         1.9556   12.2734   11.1134 C.ar      1 RES1    0.0000
     14 C6         2.3830   10.9318   10.8999 C.ar      1 RES1    0.0000
     15 C7        -0.2328   11.8722   14.2636 C.3       1 RES1    0.0000
     16 C8        -1.5493   11.1064   14.1359 C.3       1 RES1    0.0000
     17 H4        -2.1338   11.3337   14.8889 H         1 RES1    0.0000
     18 H5        -1.3691   10.1428   14.1419 H         1 RES1    0.0000
     19 H6        -1.9894   11.3520   13.2940 H         1 RES1    0.0000
     20 C9         0.4616   11.5166   15.5796 C.3       1 RES1    0.0000
     21 H7        -0.1380   11.7153   16.3287 H         1 RES1    0.0000
     22 H8         1.2822   12.0448   15.6695 H         1 RES1    0.0000
     23 H9         0.6848   10.5627   15.5842 H         1 RES1    0.0000
     24 C10       -0.5782   13.3582   14.3166 C.3       1 RES1    0.0000
     25 H10       -1.1561   13.5314   15.0879 H         1 RES1    0.0000
     26 H11       -1.0457   13.6142   13.4956 H         1 RES1    0.0000
     27 H12        0.2457   13.8824   14.4004 H         1 RES1    0.0000
     28 C11        2.3547   13.4419   10.1989 C.3       1 RES1    0.0000
     29 C12        1.8635   13.2019    8.7664 C.3       1 RES1    0.0000
     30 H13        2.2957   12.4019    8.4034 H         1 RES1    0.0000
     31 H14        2.0889   13.9759    8.2096 H         1 RES1    0.0000
     32 H15        0.8916   13.0747    8.7705 H         1 RES1    0.0000
     33 C13        3.8727   13.6818   10.2317 C.3       1 RES1    0.0000
     34 H16        4.1425   13.9452   11.1357 H         1 RES1    0.0000
     35 H17        4.1043   14.3943    9.6002 H         1 RES1    0.0000
     36 H18        4.3393   12.8571    9.9802 H         1 RES1    0.0000
     37 C14        1.7206   14.7658   10.6396 C.3       1 RES1    0.0000
     38 H19        2.0080   14.9782   11.5518 H         1 RES1    0.0000
     39 H20        0.7444   14.6839   10.6161 H         1 RES1    0.0000
     40 H21        2.0045   15.4809   10.0345 H         1 RES1    0.0000
     41 C15        3.2849   10.5286    9.8373 C.2       1 RES1    0.0000
     42 H22        3.6408   11.1896    9.2564 H         1 RES1    0.0000
     43 C16        4.4771    8.8424    8.5805 C.3       1 RES1    0.0000
     44 H23        3.8992    8.4263    7.8787 H         1 RES1    0.0000
     45 C17        5.3334    9.9062    7.9188 C.3       1 RES1    0.0000
     46 H24        5.9490   10.2930    8.5921 H         1 RES1    0.0000
     47 H25        4.7494   10.6332    7.5866 H         1 RES1    0.0000
     48 C18        6.1507    9.3466    6.7520 C.3       1 RES1    0.0000
     49 C19        6.2127    7.0664    8.0560 C.3       1 RES1    0.0000
     50 C20        5.3931    7.7665    9.1355 C.3       1 RES1    0.0000
     51 H26        4.8466    7.0929    9.6132 H         1 RES1    0.0000
     52 H27        6.0092    8.1765    9.7941 H         1 RES1    0.0000
     53 C21        5.2680    9.0810    5.5288 C.3       1 RES1    0.0000
     54 H28        5.7882    8.6056    4.8466 H         1 RES1    0.0000
     55 H29        4.9527    9.9328    5.1620 H         1 RES1    0.0000
     56 H30        4.4990    8.5351    5.7927 H         1 RES1    0.0000
     57 C22        7.2477   10.3319    6.3738 C.3       1 RES1    0.0000
     58 H31        7.8974   10.3942    7.1058 H         1 RES1    0.0000
     59 H32        6.8530   11.2141    6.2115 H         1 RES1    0.0000
     60 H33        7.6991   10.0217    5.5601 H         1 RES1    0.0000
     61 C23        5.3542    6.1189    7.2154 C.3       1 RES1    0.0000
     62 H34        5.8763    5.7963    6.4519 H         1 RES1    0.0000
     63 H35        4.5624    6.5964    6.8913 H         1 RES1    0.0000
     64 H36        5.0740    5.3580    7.7650 H         1 RES1    0.0000
     65 C24        7.3410    6.2797    8.7020 C.3       1 RES1    0.0000
     66 H37        7.9379    6.8952    9.1763 H         1 RES1    0.0000
     67 H38        7.8456    5.8040    8.0105 H         1 RES1    0.0000
     68 H39        6.9670    5.6323    9.3366 H         1 RES1    0.0000
@<TRIPOS>BOND
     1    1    2 1
     2    3    4 1
     3    5    7 1
     4    6   41 2
     5    7   48 1
     6    8    1 1
     7    9    3 1
     8   10    9 ar
     9   11   10 ar
    10   12   11 1
    11   13   11 ar
    12   14    8 ar
    13   15   10 1
    14   16   15 1
    15   17   16 1
    16   18   16 1
    17   19   16 1
    18   20   15 1
    19   21   20 1
    20   22   20 1
    21   23   20 1
    22   24   15 1
    23   25   24 1
    24   26   24 1
    25   27   24 1
    26   28   13 1
    27   29   28 1
    28   30   29 1
    29   31   29 1
    30   32   29 1
    31   33   28 1
    32   34   33 1
    33   35   33 1
    34   36   33 1
    35   37   28 1
    36   38   37 1
    37   39   37 1
    38   40   37 1
    39   41   14 1
    40   42   41 1
    41   43    6 1
    42   44   43 1
    43   45   43 1
    44   46   45 1
    45   47   45 1
    46   48   45 1
    47   49    7 1
    48   50   43 1
    49   51   50 1
    50   52   50 1
    51   53   48 1
    52   54   53 1
    53   55   53 1
    54   56   53 1
    55   57   48 1
    56   58   57 1
    57   59   57 1
    58   60   57 1
    59   61   49 1
    60   62   61 1
    61   63   61 1
    62   64   61 1
    63   65   49 1
    64   66   65 1
    65   67   65 1
    66   68   65 1
    67    8    9 ar
    68   13   14 ar
    69   49   50 1
@<TRIPOS>SUBSTRUCTURE
     1 RES1 1

@<TRIPOS>CRYSIN
   5.7599   15.3261   25.8940  90.0000  93.3866  90.0000  14 1

