# MOL2 file generated by ConQuest
# Please check atom types

@<TRIPOS>MOLECULE
GAMNEQ
    65    66     1
SMALL
NO_CHARGES
****
Generated from CSD

@<TRIPOS>ATOM
      1 O1         2.2968   11.5191   10.2804 O.2       1 RES1    0.0000
      2 O2         1.8147   12.2828   12.6414 O.3       1 RES1    0.0000
      3 H1         1.8097   12.5666   11.8309 H         1 RES1    0.0000
      4 O3         6.5634    3.5785   14.5148 O.2       1 RES1    0.0000
      5 N1         3.4218    8.0922   14.2100 N.2       1 RES1    0.0000
      6 N2         5.8644    4.6566   14.4908 N.3       1 RES1    0.0000
      7 C1         2.5849   10.6727   11.1210 C.2       1 RES1    0.0000
      8 C2         2.3070   11.0261   12.5421 C.2       1 RES1    0.0000
      9 C3         2.5197   10.2015   13.5879 C.2       1 RES1    0.0000
     10 C4         3.1206    8.8917   13.2478 C.2       1 RES1    0.0000
     11 C5         3.3919    8.5594   11.8445 C.2       1 RES1    0.0000
     12 H2         3.7593    7.7024   11.6614 H         1 RES1    0.0000
     13 C6         3.1641    9.3630   10.8025 C.2       1 RES1    0.0000
     14 C7         2.2042   10.5209   15.0566 C.3       1 RES1    0.0000
     15 C8         1.5543   11.8930   15.2578 C.3       1 RES1    0.0000
     16 H3         1.3861   12.0379   16.2118 H         1 RES1    0.0000
     17 H4         0.7061   11.9276   14.7689 H         1 RES1    0.0000
     18 H5         2.1548   12.5915   14.9209 H         1 RES1    0.0000
     19 C9         1.2072    9.4877   15.6006 C.3       1 RES1    0.0000
     20 H6         1.6287    8.6034   15.6144 H         1 RES1    0.0000
     21 H7         0.4151    9.4629   15.0240 H         1 RES1    0.0000
     22 H8         0.9419    9.7379   16.5105 H         1 RES1    0.0000
     23 C10        3.4917   10.5228   15.8952 C.3       1 RES1    0.0000
     24 H9         3.9114    9.6384   15.8502 H         1 RES1    0.0000
     25 H10        3.2744   10.7350   16.8266 H         1 RES1    0.0000
     26 H11        4.1106   11.1961   15.5427 H         1 RES1    0.0000
     27 C11        3.4650    8.9875    9.3585 C.3       1 RES1    0.0000
     28 C12        4.1253    7.6157    9.2684 C.3       1 RES1    0.0000
     29 H12        4.3083    7.4024    8.3303 H         1 RES1    0.0000
     30 H13        3.5262    6.9389    9.6457 H         1 RES1    0.0000
     31 H14        4.9669    7.6241    9.7714 H         1 RES1    0.0000
     32 C13        4.4228   10.0072    8.7382 C.3       1 RES1    0.0000
     33 H15        4.6595    9.7225    7.8308 H         1 RES1    0.0000
     34 H16        5.2343   10.0675    9.2841 H         1 RES1    0.0000
     35 H17        3.9873   10.8844    8.7024 H         1 RES1    0.0000
     36 C14        2.1524    8.9556    8.5682 C.3       1 RES1    0.0000
     37 H18        2.3361    8.6959    7.6404 H         1 RES1    0.0000
     38 H19        1.7406    9.8446    8.5836 H         1 RES1    0.0000
     39 H20        1.5421    8.3058    8.9749 H         1 RES1    0.0000
     40 C15        4.0584    6.8051   13.9617 C.3       1 RES1    0.0000
     41 H21        3.6514    6.3616   13.1636 H         1 RES1    0.0000
     42 C16        3.8797    5.9395   15.1979 C.3       1 RES1    0.0000
     43 H22        2.9126    5.8458   15.3873 H         1 RES1    0.0000
     44 H23        4.2948    6.3959   15.9724 H         1 RES1    0.0000
     45 C17        4.4928    4.5504   15.0564 C.3       1 RES1    0.0000
     46 C18        6.2934    5.6889   13.5113 C.3       1 RES1    0.0000
     47 C19        5.5549    6.9993   13.7581 C.3       1 RES1    0.0000
     48 H24        5.9350    7.4380   14.5593 H         1 RES1    0.0000
     49 H25        5.7006    7.6016   12.9855 H         1 RES1    0.0000
     50 C20        3.6453    3.6495   14.1624 C.3       1 RES1    0.0000
     51 H26        2.7917    3.4606   14.6047 H         1 RES1    0.0000
     52 H27        4.1222    2.8097   13.9986 H         1 RES1    0.0000
     53 H28        3.4775    4.1007   13.3086 H         1 RES1    0.0000
     54 C21        4.6239    3.9187   16.4352 C.3       1 RES1    0.0000
     55 H29        3.7429    3.8838   16.8633 H         1 RES1    0.0000
     56 H30        5.2329    4.4552   16.9838 H         1 RES1    0.0000
     57 H31        4.9803    3.0101   16.3463 H         1 RES1    0.0000
     58 C22        6.0449    5.1600   12.0981 C.3       1 RES1    0.0000
     59 H32        6.4346    5.7783   11.4448 H         1 RES1    0.0000
     60 H33        5.0801    5.0859   11.9427 H         1 RES1    0.0000
     61 H34        6.4608    4.2774   12.0020 H         1 RES1    0.0000
     62 C23        7.7842    5.9148   13.7074 C.3       1 RES1    0.0000
     63 H35        8.0857    6.6354   13.1165 H         1 RES1    0.0000
     64 H36        8.2701    5.0919   13.4938 H         1 RES1    0.0000
     65 H37        7.9572    6.1636   14.6397 H         1 RES1    0.0000
@<TRIPOS>BOND
     1    1    7 2
     2    2    3 1
     3    4    6 1
     4    5   10 2
     5    6   45 1
     6    7    8 1
     7    8    2 1
     8    9    8 2
     9   10    9 1
    10   11   10 1
    11   12   11 1
    12   13    7 1
    13   14    9 1
    14   15   14 1
    15   16   15 1
    16   17   15 1
    17   18   15 1
    18   19   14 1
    19   20   19 1
    20   21   19 1
    21   22   19 1
    22   23   14 1
    23   24   23 1
    24   25   23 1
    25   26   23 1
    26   27   13 1
    27   28   27 1
    28   29   28 1
    29   30   28 1
    30   31   28 1
    31   32   27 1
    32   33   32 1
    33   34   32 1
    34   35   32 1
    35   36   27 1
    36   37   36 1
    37   38   36 1
    38   39   36 1
    39   40    5 1
    40   41   40 1
    41   42   40 1
    42   43   42 1
    43   44   42 1
    44   45   42 1
    45   46    6 1
    46   47   40 1
    47   48   47 1
    48   49   47 1
    49   50   45 1
    50   51   50 1
    51   52   50 1
    52   53   50 1
    53   54   45 1
    54   55   54 1
    55   56   54 1
    56   57   54 1
    57   58   46 1
    58   59   58 1
    59   60   58 1
    60   61   58 1
    61   62   46 1
    62   63   62 1
    63   64   62 1
    64   65   62 1
    65   11   13 2
    66   46   47 1
@<TRIPOS>SUBSTRUCTURE
     1 RES1 1

@<TRIPOS>CRYSIN
  10.8371   11.8553   17.5703  90.0000  96.1955  90.0000 231 1

