# MOL2 file generated by ConQuest
# Please check atom types

@<TRIPOS>MOLECULE
GAMSEV
    27    27     1
SMALL
USER_CHARGES
****
Generated from CSD

@<TRIPOS>ATOM
      1 C1        -0.1848    1.7370    1.2798 C.ar      1 RES1    0.0000
      2 C2        -1.6388    3.1437    2.2221 C.ar      1 RES1    0.0000
      3 C3        -2.1086    2.2329    0.2541 C.ar      1 RES1    0.0000
      4 C4         2.0033    1.2619    2.2615 C.3       1 RES1    0.0000
      5 H1         2.3859    0.3946    2.4980 H         1 RES1    0.0000
      6 H2         1.6212    1.7003    3.0247 H         1 RES1    0.0000
      7 C5         3.1907    2.1309    1.8164 C.3       1 RES1    0.0000
      8 N1        -0.4598    2.5414    2.3151 N.ar      1 RES1    0.0000
      9 N2        -2.5072    3.0722    1.2101 N.ar      1 RES1    0.0000
     10 N3        -1.0072    1.4931    0.2375 N.ar      1 RES1    0.0000
     11 N4         1.0186    1.1224    1.2339 N.3       1 RES1    0.0000
     12 H3         1.0857    0.4766    0.6809 H         1 RES1    0.0000
     13 N5        -1.9530    3.9292    3.3331 N.2       1 RES1    0.0000
     14 N6        -3.0618    4.5313    3.2263 N.1       1 RES1    1.0000
     15 N7        -3.9970    5.1335    3.2877 N.2       1 RES1   -1.0000
     16 N8        -2.8885    2.0885   -0.8959 N.2       1 RES1    0.0000
     17 N9        -3.9168    2.8284   -0.8845 N.1       1 RES1    1.0000
     18 N10       -4.8426    3.4295   -1.0188 N.2       1 RES1   -1.0000
     19 N11        4.2042    1.3792    0.9680 N.pl3     1 RES1    0.0000
     20 N12        2.7533    3.3196    0.9824 N.pl3     1 RES1    0.0000
     21 N13        3.9500    2.6449    3.0322 N.pl3     1 RES1    0.0000
     22 O1         5.3782    1.6460    1.1505 O.2       1 RES1    0.0000
     23 O2         3.7287    0.6103    0.1643 O.2       1 RES1    0.0000
     24 O3         1.9599    4.0635    1.5194 O.2       1 RES1    0.0000
     25 O4         3.1991    3.4156   -0.1437 O.2       1 RES1    0.0000
     26 O5         4.1605    1.7985    3.8770 O.2       1 RES1    0.0000
     27 O6         4.2726    3.8150    3.0615 O.2       1 RES1    0.0000
@<TRIPOS>BOND
     1    1    8 ar
     2    2    8 ar
     3    3    9 ar
     4    4    5 1
     5    6    4 1
     6    7    4 1
     7    9    2 ar
     8   10    1 ar
     9   11    1 1
    10   12   11 1
    11   13    2 1
    12   14   13 2
    13   15   14 2
    14   16    3 1
    15   17   16 2
    16   18   17 2
    17   19    7 1
    18   20    7 1
    19   21    7 1
    20   22   19 2
    21   23   19 2
    22   24   20 2
    23   25   20 2
    24   26   21 2
    25   27   21 2
    26    3   10 ar
    27    4   11 1
@<TRIPOS>SUBSTRUCTURE
     1 RES1 1

@<TRIPOS>CRYSIN
  11.0583    9.5311   12.8989  90.0000 106.9950  90.0000 231 1

