# MOL2 file generated by ConQuest
# Please check atom types

@<TRIPOS>MOLECULE
GAMVUO
    43    41     2
SMALL
NO_CHARGES
****
Generated from CSD

@<TRIPOS>ATOM
      1 O1         1.8530    2.7805    7.6824 O.2       1 RES1    0.0000
      2 O2         3.2863    0.5133    6.3516 O.2       1 RES1    0.0000
      3 O3         4.8674    1.4908    7.4518 O.2       1 RES1    0.0000
      4 N1         4.1720    1.3468    6.4558 N.pl3     1 RES1    0.0000
      5 C1         3.9639    3.5539    5.2813 C.ar      1 RES1    0.0000
      6 C2         4.4647    2.2178    5.2979 C.ar      1 RES1    0.0000
      7 C3         5.2485    1.6657    4.3185 C.ar      1 RES1    0.0000
      8 C4         5.5756    2.4888    3.2121 C.ar      1 RES1    0.0000
      9 H1         6.1461    2.1406    2.5360 H         1 RES1    0.0000
     10 C5         5.1023    3.7628    3.0800 C.ar      1 RES1    0.0000
     11 C6         4.2834    4.3177    4.1120 C.ar      1 RES1    0.0000
     12 C7         3.8029    5.6440    4.0141 C.ar      1 RES1    0.0000
     13 H2         3.9875    6.1492    3.2313 H         1 RES1    0.0000
     14 C8         3.0834    6.2111    5.0147 C.ar      1 RES1    0.0000
     15 H3         2.7895    7.1099    4.9254 H         1 RES1    0.0000
     16 C9         2.7629    5.4920    6.1865 C.ar      1 RES1    0.0000
     17 C10        3.1991    4.1827    6.3181 C.ar      1 RES1    0.0000
     18 C11        2.8218    3.4941    7.6181 C.2       1 RES1    0.0000
     19 C12        3.6740    3.7987    8.8146 C.3       1 RES1    0.0000
     20 H4         3.5604    4.7393    9.0658 H         1 RES1    0.0000
     21 H5         4.6142    3.6310    8.5963 H         1 RES1    0.0000
     22 H6         3.4040    3.2254    9.5622 H         1 RES1    0.0000
     23 C13        5.8183    0.2589    4.4012 C.3       1 RES1    0.0000
     24 H7         5.2904   -0.2499    5.0809 H         1 RES1    0.0000
     25 C14        7.2695    0.3169    4.8738 C.3       1 RES1    0.0000
     26 H8         7.7888    0.8829    4.2645 H         1 RES1    0.0000
     27 H9         7.6466   -0.5877    4.8821 H         1 RES1    0.0000
     28 H10        7.3041    0.6927    5.7777 H         1 RES1    0.0000
     29 C15        5.7064   -0.4767    3.0687 C.3       1 RES1    0.0000
     30 H11        4.7695   -0.4935    2.7827 H         1 RES1    0.0000
     31 H12        6.0329   -1.3945    3.1745 H         1 RES1    0.0000
     32 H13        6.2453   -0.0136    2.3939 H         1 RES1    0.0000
     33 C16        5.4426    4.5654    1.8489 C.3       1 RES1    0.0000
     34 H14        6.0101    4.0294    1.2560 H         1 RES1    0.0000
     35 H15        5.9212    5.3795    2.1113 H         1 RES1    0.0000
     36 H16        4.6172    4.8082    1.3786 H         1 RES1    0.0000
     37 C17        1.9051    6.1770    7.2248 C.3       1 RES1    0.0000
     38 H17        1.7119    7.0936    6.9366 H         1 RES1    0.0000
     39 H18        1.0644    5.6838    7.3313 H         1 RES1    0.0000
     40 H19        2.3824    6.1981    8.0804 H         1 RES1    0.0000
     41 H20        1.7276    5.5570    7.9623 Du        2 SUP2    0.0000
     42 H21        2.3740    6.9659    7.5676 Du        2 SUP2    0.0000
     43 H22        1.0572    6.4525    6.8184 Du        2 SUP2    0.0000
@<TRIPOS>BOND
     1    1   18 2
     2    2    4 2
     3    3    4 2
     4    4    6 1
     5    5    6 ar
     6    6    7 ar
     7    7    8 ar
     8    8    9 1
     9   10    8 ar
    10   11    5 ar
    11   12   11 ar
    12   13   12 1
    13   14   12 ar
    14   15   14 1
    15   16   14 ar
    16   17    5 ar
    17   18   17 1
    18   19   18 1
    19   20   19 1
    20   21   19 1
    21   22   19 1
    22   23    7 1
    23   24   23 1
    24   25   23 1
    25   26   25 1
    26   27   25 1
    27   28   25 1
    28   29   23 1
    29   30   29 1
    30   31   29 1
    31   32   29 1
    32   33   10 1
    33   34   33 1
    34   35   33 1
    35   36   33 1
    36   37   16 1
    37   38   37 1
    38   39   37 1
    39   40   37 1
    40   10   11 ar
    41   16   17 ar
@<TRIPOS>SUBSTRUCTURE
     1 RES1 1
     2 SUP2 41

@<TRIPOS>CRYSIN
  10.8570    9.0549   14.9550  90.0000  91.0060  90.0000 231 1

