# MOL2 file generated by ConQuest
# Please check atom types

@<TRIPOS>MOLECULE
GANNAN
    40    43     1
SMALL
USER_CHARGES
****
Generated from CSD

@<TRIPOS>ATOM
      1 O1         0.3968    2.1727    2.6249 O.2       1 RES1   -1.0000
      2 N1         1.6689    3.9686    3.2828 N.pl3     1 RES1    1.0000
      3 N2         2.4699    4.3426    4.2806 N.2       1 RES1    0.0000
      4 N3         1.2138    2.6990    3.4494 N.pl3     1 RES1    0.0000
      5 N4         2.4618    6.1801    0.8554 N.ar      1 RES1    0.0000
      6 N5        -0.7308    5.1482    3.8547 N.ar      1 RES1    0.0000
      7 C1         1.8510    6.0919    2.0365 C.ar      1 RES1    0.0000
      8 C2         1.0687    4.8045    2.2480 C.3       1 RES1    0.0000
      9 H1         1.0926    4.3009    1.4079 H         1 RES1    0.0000
     10 C3        -0.3881    5.0902    2.5722 C.ar      1 RES1    0.0000
     11 C4         3.4149    3.2388    6.2649 C.ar      1 RES1    0.0000
     12 C5         2.5655    3.2642    5.0695 C.2       1 RES1    0.0000
     13 C6         1.8491    7.1178    2.9608 C.ar      1 RES1    0.0000
     14 H2         1.4141    7.0175    3.7768 H         1 RES1    0.0000
     15 C7         3.1131    8.4094    1.4337 C.ar      1 RES1    0.0000
     16 H3         3.5436    9.1983    1.1934 H         1 RES1    0.0000
     17 C8         1.7786    2.2375    4.5630 C.2       1 RES1    0.0000
     18 H4         1.6677    1.3912    4.9315 H         1 RES1    0.0000
     19 C9        -1.2741    5.3013    1.5352 C.ar      1 RES1    0.0000
     20 H5        -0.9927    5.2446    0.6503 H         1 RES1    0.0000
     21 C10        3.0767    7.3404    0.5725 C.ar      1 RES1    0.0000
     22 H6         3.5004    7.4238   -0.2512 H         1 RES1    0.0000
     23 C11        4.0976    4.3586    6.7008 C.ar      1 RES1    0.0000
     24 H7         3.9991    5.1646    6.2480 H         1 RES1    0.0000
     25 C12        2.5021    8.2915    2.6552 C.ar      1 RES1    0.0000
     26 H8         2.5287    8.9918    3.2665 H         1 RES1    0.0000
     27 C13       -2.0151    5.4428    4.1193 C.ar      1 RES1    0.0000
     28 H9        -2.2786    5.4925    5.0099 H         1 RES1    0.0000
     29 C14       -2.5856    5.5982    1.8398 C.ar      1 RES1    0.0000
     30 H10       -3.2051    5.7446    1.1626 H         1 RES1    0.0000
     31 C15       -2.9618    5.6737    3.1513 C.ar      1 RES1    0.0000
     32 H11       -3.8393    5.8777    3.3836 H         1 RES1    0.0000
     33 C16        3.5762    2.0600    6.9724 C.ar      1 RES1    0.0000
     34 H12        3.1195    1.2965    6.7017 H         1 RES1    0.0000
     35 C17        5.0744    3.1143    8.4935 C.ar      1 RES1    0.0000
     36 H13        5.6266    3.0757    9.2405 H         1 RES1    0.0000
     37 C18        4.9233    4.2893    7.8018 C.ar      1 RES1    0.0000
     38 H14        5.3839    5.0478    8.0788 H         1 RES1    0.0000
     39 C19        4.4028    2.0020    8.0709 C.ar      1 RES1    0.0000
     40 H15        4.5063    1.2002    8.5296 H         1 RES1    0.0000
@<TRIPOS>BOND
     1    1    4 1
     2    2    3 2
     3    3   12 1
     4    4    2 1
     5    5    7 ar
     6    6   10 ar
     7    7    8 1
     8    8    2 1
     9    9    8 1
    10   10    8 1
    11   11   12 1
    12   12   17 2
    13   13    7 ar
    14   14   13 1
    15   15   16 1
    16   17    4 1
    17   18   17 1
    18   19   10 ar
    19   20   19 1
    20   21    5 ar
    21   22   21 1
    22   23   11 ar
    23   24   23 1
    24   25   13 ar
    25   26   25 1
    26   27    6 ar
    27   28   27 1
    28   29   19 ar
    29   30   29 1
    30   31   27 ar
    31   32   31 1
    32   33   11 ar
    33   34   33 1
    34   35   36 1
    35   37   23 ar
    36   38   37 1
    37   39   33 ar
    38   40   39 1
    39   15   21 ar
    40   15   25 ar
    41   29   31 ar
    42   35   37 ar
    43   35   39 ar
@<TRIPOS>SUBSTRUCTURE
     1 RES1 1

@<TRIPOS>CRYSIN
   8.6191    9.8759   10.7583  68.0300  89.0490  73.8070   2 1

