# MOL2 file generated by ConQuest
# Please check atom types

@<TRIPOS>MOLECULE
GAPHOW01
    49    53     1
SMALL
NO_CHARGES
****
Generated from CSD

@<TRIPOS>ATOM
      1 O1        14.9794    2.9272    6.3781 O.3       1 RES1    0.0000
      2 O2        15.7301    1.0118    7.1378 O.2       1 RES1    0.0000
      3 O3        12.0139    3.0646    9.2401 O.3       1 RES1    0.0000
      4 H1        11.8145    2.2952    9.5096 H         1 RES1    0.0000
      5 O4        11.0062   -1.3612    9.1569 O.3       1 RES1    0.0000
      6 O5        11.2274    0.6751    9.9346 O.2       1 RES1    0.0000
      7 O6        14.8398   -1.3672    7.6660 O.3       1 RES1    0.0000
      8 H2        15.1603   -0.5918    7.6206 H         1 RES1    0.0000
      9 O7        19.7614    0.8528   12.2597 O.2       1 RES1    0.0000
     10 O8        18.9857   -1.0604   12.9427 O.2       1 RES1    0.0000
     11 N1        18.9085   -0.0392   12.2658 N.pl3     1 RES1    0.0000
     12 C1        14.0357    3.9293    6.3824 C.ar      1 RES1    0.0000
     13 C2        14.1267    4.8700    5.3393 C.ar      1 RES1    0.0000
     14 H3        14.8238    4.8226    4.6961 H         1 RES1    0.0000
     15 C3        13.1701    5.8645    5.2804 C.ar      1 RES1    0.0000
     16 H4        13.2149    6.5188    4.5932 H         1 RES1    0.0000
     17 C4        12.1469    5.9163    6.2124 C.ar      1 RES1    0.0000
     18 H5        11.4864    6.5967    6.1455 H         1 RES1    0.0000
     19 C5        12.0732    5.0049    7.2264 C.ar      1 RES1    0.0000
     20 H6        11.3709    5.0590    7.8636 H         1 RES1    0.0000
     21 C6        13.0263    3.9986    7.3260 C.ar      1 RES1    0.0000
     22 C7        13.0206    2.9825    8.3585 C.2       1 RES1    0.0000
     23 C8        13.9697    2.0031    8.3795 C.2       1 RES1    0.0000
     24 C9        14.9331    1.9279    7.3035 C.2       1 RES1    0.0000
     25 C10       13.9924    0.9079    9.4351 C.3       1 RES1    0.0000
     26 H7        13.4777    1.2927   10.2014 H         1 RES1    0.0000
     27 C11       13.1787   -0.3003    9.0057 C.2       1 RES1    0.0000
     28 C12       13.6289   -1.3145    8.2149 C.2       1 RES1    0.0000
     29 C13       12.7771   -2.4611    7.9357 C.ar      1 RES1    0.0000
     30 C14       13.1773   -3.5456    7.1660 C.ar      1 RES1    0.0000
     31 H8        14.0534   -3.5709    6.7982 H         1 RES1    0.0000
     32 C15       12.3115   -4.5753    6.9392 C.ar      1 RES1    0.0000
     33 H9        12.5891   -5.3139    6.4101 H         1 RES1    0.0000
     34 C16       11.0238   -4.5552    7.4765 C.ar      1 RES1    0.0000
     35 H10       10.4337   -5.2813    7.3087 H         1 RES1    0.0000
     36 C17       10.5973   -3.4954    8.2463 C.ar      1 RES1    0.0000
     37 H11        9.7245   -3.4817    8.6202 H         1 RES1    0.0000
     38 C18       11.4901   -2.4403    8.4597 C.ar      1 RES1    0.0000
     39 C19       11.7874   -0.2794    9.4045 C.2       1 RES1    0.0000
     40 C20       15.3713    0.5945   10.0253 C.ar      1 RES1    0.0000
     41 C21       16.3569    1.5694   10.0886 C.ar      1 RES1    0.0000
     42 H12       16.2186    2.4000    9.6506 H         1 RES1    0.0000
     43 C22       17.5413    1.3547   10.7793 C.ar      1 RES1    0.0000
     44 H13       18.2183    2.0219   10.8036 H         1 RES1    0.0000
     45 C23       17.7133    0.1499   11.4303 C.ar      1 RES1    0.0000
     46 C24       16.7786   -0.8650   11.3444 C.ar      1 RES1    0.0000
     47 H14       16.9319   -1.7019   11.7660 H         1 RES1    0.0000
     48 C25       15.6149   -0.6352   10.6324 C.ar      1 RES1    0.0000
     49 H15       14.9698   -1.3281   10.5565 H         1 RES1    0.0000
@<TRIPOS>BOND
     1    1   12 1
     2    2   24 2
     3    3    4 1
     4    5   38 1
     5    6   39 2
     6    7    8 1
     7    9   11 2
     8   10   11 2
     9   11   45 1
    10   12   13 ar
    11   13   14 1
    12   15   13 ar
    13   16   15 1
    14   17   15 ar
    15   18   17 1
    16   19   17 ar
    17   20   19 1
    18   21   12 ar
    19   22    3 1
    20   23   22 2
    21   24    1 1
    22   25   23 1
    23   26   25 1
    24   27   25 1
    25   28    7 1
    26   29   28 1
    27   30   29 ar
    28   31   30 1
    29   32   30 ar
    30   33   32 1
    31   34   32 ar
    32   35   34 1
    33   36   34 ar
    34   37   36 1
    35   38   29 ar
    36   39    5 1
    37   40   25 1
    38   41   40 ar
    39   42   41 1
    40   43   41 ar
    41   44   43 1
    42   45   43 ar
    43   46   45 ar
    44   47   46 1
    45   48   40 ar
    46   49   48 1
    47   19   21 ar
    48   21   22 1
    49   23   24 1
    50   27   28 2
    51   27   39 1
    52   36   38 ar
    53   46   48 ar
@<TRIPOS>SUBSTRUCTURE
     1 RES1 1

@<TRIPOS>CRYSIN
  13.9060   14.1590   10.2940  90.0000  90.0000  90.0000  33 1

