# MOL2 file generated by ConQuest
# Please check atom types

@<TRIPOS>MOLECULE
GAQDAG
    32    33     1
SMALL
NO_CHARGES
****
Generated from CSD

@<TRIPOS>ATOM
      1 O1         3.8928    8.8200    9.6234 O.3       1 RES1    0.0000
      2 H1         4.6064    8.8628   10.0819 H         1 RES1    0.0000
      3 O2         0.9881    7.7006    8.8738 O.2       1 RES1    0.0000
      4 O3         1.6678    9.3556    7.6517 O.2       1 RES1    0.0000
      5 O4         5.3953    4.3089    5.6437 O.3       1 RES1    0.0000
      6 O5        -1.0756    3.2269    4.3850 O.3       1 RES1    0.0000
      7 N1         3.2324    4.6942    5.0346 N.ar      1 RES1    0.0000
      8 N2         2.0212    6.3510    6.2727 N.ar      1 RES1    0.0000
      9 N3         4.3070    5.8850    6.7984 N.ar      1 RES1    0.0000
     10 N4         1.8135    8.2624    8.1818 N.pl3     1 RES1    0.0000
     11 N5         4.1358    7.8676    8.6854 N.2       1 RES1    0.0000
     12 N6         1.0081    5.0955    4.6047 N.3       1 RES1    0.0000
     13 C1         4.2617    4.9754    5.8026 C.ar      1 RES1    0.0000
     14 C2         2.1086    5.3844    5.3232 C.ar      1 RES1    0.0000
     15 C3         3.1528    6.5377    6.9387 C.ar      1 RES1    0.0000
     16 C4         3.1160    7.5834    7.9758 C.2       1 RES1    0.0000
     17 C5         5.4126    3.3215    4.5894 C.3       1 RES1    0.0000
     18 H2         6.3281    2.9987    4.4591 H         1 RES1    0.0000
     19 H3         5.0875    3.7257    3.7581 H         1 RES1    0.0000
     20 H4         4.8325    2.5706    4.8359 H         1 RES1    0.0000
     21 C6        -0.3353    5.4605    5.0386 C.3       1 RES1    0.0000
     22 H5        -0.8160    5.9177    4.3041 H         1 RES1    0.0000
     23 H6        -0.2856    6.0782    5.8112 H         1 RES1    0.0000
     24 C7        -1.0754    4.1942    5.4344 C.3       1 RES1    0.0000
     25 H7        -0.6480    3.8036    6.2380 H         1 RES1    0.0000
     26 H8        -2.0097    4.4225    5.6681 H         1 RES1    0.0000
     27 C8         0.2623    2.8720    4.0347 C.3       1 RES1    0.0000
     28 H9         0.2468    2.1836    3.3241 H         1 RES1    0.0000
     29 H10        0.7188    2.4874    4.8252 H         1 RES1    0.0000
     30 C9         1.0241    4.0795    3.5503 C.3       1 RES1    0.0000
     31 H11        1.9580    3.8280    3.3372 H         1 RES1    0.0000
     32 H12        0.6039    4.4379    2.7291 H         1 RES1    0.0000
@<TRIPOS>BOND
     1    1    2 1
     2    3   10 2
     3    4   10 2
     4    5   13 1
     5    6   24 1
     6    7   13 ar
     7    8   14 ar
     8    9   13 ar
     9   10   16 1
    10   11    1 1
    11   12   14 1
    12   14    7 ar
    13   15    8 ar
    14   16   11 2
    15   17    5 1
    16   18   17 1
    17   19   17 1
    18   20   17 1
    19   21   12 1
    20   22   21 1
    21   23   21 1
    22   24   21 1
    23   25   24 1
    24   26   24 1
    25   27    6 1
    26   28   27 1
    27   29   27 1
    28   30   12 1
    29   31   30 1
    30   32   30 1
    31    9   15 ar
    32   15   16 1
    33   27   30 1
@<TRIPOS>SUBSTRUCTURE
     1 RES1 1

@<TRIPOS>CRYSIN
  17.3530    5.9450   12.7610  90.0000 110.8820  90.0000  14 1

