# MOL2 file generated by ConQuest
# Please check atom types

@<TRIPOS>MOLECULE
GAQMAO
    40    38     2
SMALL
NO_CHARGES
****
Generated from CSD

@<TRIPOS>ATOM
      1 N1         3.8344    0.1413    1.4776 N.pl3     1 RES1    0.0000
      2 H1         3.2997    0.6797    1.9223 H         1 RES1    0.0000
      3 N2         5.1070    0.1597    1.5935 N.2       1 RES1    0.0000
      4 N3         5.1909    2.0037    3.2220 N.2       1 RES1    0.0000
      5 N4         3.9021    2.1696    3.2955 N.2       1 RES1    0.0000
      6 N5         7.1154    0.9596    2.4509 N.pl3     1 RES1    0.0000
      7 O1         7.6515   -0.0574    2.0840 O.2       1 RES1    0.0000
      8 O2         7.7688    1.9203    2.7979 O.2       1 RES1    0.0000
      9 C1         1.0692   -0.4419    1.4499 C.3       1 RES1    0.0000
     10 H2         1.3480   -0.5711    2.3803 H         1 RES1    0.0000
     11 H3         0.1729   -0.8171    1.3220 H         1 RES1    0.0000
     12 H4         1.0550    0.5157    1.2431 H         1 RES1    0.0000
     13 C2         2.0166   -1.1226    0.5563 C.ar      1 RES1    0.0000
     14 C3         1.5757   -2.1448   -0.3110 C.ar      1 RES1    0.0000
     15 H5         0.6564   -2.3857   -0.3117 H         1 RES1    0.0000
     16 C4         2.4278   -2.7917   -1.1426 C.ar      1 RES1    0.0000
     17 H6         2.1041   -3.4776   -1.7145 H         1 RES1    0.0000
     18 C5         3.7727   -2.4544   -1.1588 C.ar      1 RES1    0.0000
     19 H7         4.3635   -2.8932   -1.7607 H         1 RES1    0.0000
     20 C6         4.2488   -1.5020   -0.3206 C.ar      1 RES1    0.0000
     21 H8         5.1723   -1.2826   -0.3252 H         1 RES1    0.0000
     22 C7         3.3690   -0.8397    0.5557 C.ar      1 RES1    0.0000
     23 C8         5.6400    1.0591    2.4184 C.2       1 RES1    0.0000
     24 C9         3.4466    3.1605    4.1897 C.ar      1 RES1    0.0000
     25 C10        4.3349    3.9676    4.9026 C.ar      1 RES1    0.0000
     26 H9         5.2720    3.8456    4.8029 H         1 RES1    0.0000
     27 C11        3.8543    4.9447    5.7539 C.ar      1 RES1    0.0000
     28 H10        4.4588    5.5024    6.2307 H         1 RES1    0.0000
     29 C12        2.4890    5.1067    5.9088 C.ar      1 RES1    0.0000
     30 H11        2.1525    5.7741    6.4943 H         1 RES1    0.0000
     31 C13        1.6185    4.2978    5.2130 C.ar      1 RES1    0.0000
     32 H12        0.6843    4.4187    5.3321 H         1 RES1    0.0000
     33 C14        2.0641    3.3094    4.3394 C.ar      1 RES1    0.0000
     34 C15        1.0989    2.4482    3.5933 C.3       1 RES1    0.0000
     35 H13        0.1832    2.6851    3.8504 H         1 RES1    0.0000
     36 H14        1.2660    1.5071    3.8100 H         1 RES1    0.0000
     37 H15        1.2147    2.5867    2.6304 H         1 RES1    0.0000
     38 H16        3.3452    1.6896    2.8133 Du        2 SUP2    0.0000
     39 O3         7.5021    0.1230    1.6741 Du        2 SUP2    0.0000
     40 O4         7.6457    1.5891    3.3097 Du        2 SUP2    0.0000
@<TRIPOS>BOND
     1    1    2 1
     2    3    1 1
     3    4    5 2
     4    5   24 1
     5    6    7 2
     6    8    6 2
     7    9   10 1
     8   11    9 1
     9   12    9 1
    10   13    9 1
    11   14   13 ar
    12   15   14 1
    13   16   14 ar
    14   17   16 1
    15   18   16 ar
    16   19   18 1
    17   20   18 ar
    18   21   20 1
    19   22    1 1
    20   23    3 2
    21   24   25 ar
    22   25   26 1
    23   27   25 ar
    24   28   27 1
    25   29   27 ar
    26   30   29 1
    27   31   29 ar
    28   32   31 1
    29   33   24 ar
    30   34   33 1
    31   35   34 1
    32   36   34 1
    33   37   34 1
    34    4   23 1
    35    6   23 1
    36   13   22 ar
    37   20   22 ar
    38   31   33 ar
@<TRIPOS>SUBSTRUCTURE
     1 RES1 1
     2 SUP2 38

@<TRIPOS>CRYSIN
  14.6525   10.2523   19.2425  90.0000  90.0000  90.0000  61 1

