# MOL2 file generated by ConQuest
# Please check atom types

@<TRIPOS>MOLECULE
GAQMOB
    20    21     1
SMALL
NO_CHARGES
****
Generated from CSD

@<TRIPOS>ATOM
      1 N1         8.3878   -0.4505   11.0553 N.2       1 RES1    0.0000
      2 N2         8.2471   -0.3101   12.4007 N.pl3     1 RES1    0.0000
      3 C1         9.3221   -0.7879   13.2516 C.3       1 RES1    0.0000
      4 H1        10.0156   -0.1261   13.2946 H         1 RES1    0.0000
      5 H2         9.6776   -1.6025   12.8907 H         1 RES1    0.0000
      6 H3         8.9814   -0.9522   14.1347 H         1 RES1    0.0000
      7 C2         7.1239    0.2819   12.7739 C.2       1 RES1    0.0000
      8 H4         6.8527    0.4566   13.6479 H         1 RES1    0.0000
      9 C3         6.4235    0.5928   11.6144 C.2       1 RES1    0.0000
     10 C4         5.1901    1.2002   11.3410 C.2       1 RES1    0.0000
     11 H5         4.6572    1.5176   12.0337 H         1 RES1    0.0000
     12 C5         4.7836    1.3198   10.0431 C.2       1 RES1    0.0000
     13 H6         3.9649    1.7139    9.8481 H         1 RES1    0.0000
     14 C6         5.5974    0.8508    9.0080 C.2       1 RES1    0.0000
     15 H7         5.3051    0.9395    8.1294 H         1 RES1    0.0000
     16 C7         6.8066    0.2680    9.2430 C.2       1 RES1    0.0000
     17 N3         7.5788   -0.1982    8.1064 N.pl3     1 RES1    0.0000
     18 O1         7.0795   -0.1620    6.9990 O.2       1 RES1    0.0000
     19 O2         8.7012   -0.6109    8.2876 O.2       1 RES1    0.0000
     20 C8         7.2675    0.1080   10.5715 C.2       1 RES1    0.0000
@<TRIPOS>BOND
     1    1    2 1
     2    2    3 1
     3    3    4 1
     4    5    3 1
     5    6    3 1
     6    7    2 1
     7    8    7 1
     8    9    7 2
     9   10    9 1
    10   11   10 1
    11   12   10 2
    12   13   12 1
    13   14   12 1
    14   15   14 1
    15   16   14 2
    16   17   16 1
    17   18   17 2
    18   19   17 2
    19   20    1 2
    20    9   20 1
    21   16   20 1
@<TRIPOS>SUBSTRUCTURE
     1 RES1 1

@<TRIPOS>CRYSIN
  13.3848    3.8567   15.9359  90.0000 105.4660  90.0000  14 1

