# MOL2 file generated by ConQuest
# Please check atom types

@<TRIPOS>MOLECULE
GAQQEX
    42    43     2
SMALL
NO_CHARGES
****
Generated from CSD

@<TRIPOS>ATOM
      1 O1         5.3612    5.3000   12.0395 O.2       1 RES1    0.0000
      2 O2        -0.8732    4.5948    2.4631 O.2       1 RES1    0.0000
      3 O3         5.5479    3.1321   11.5936 O.3       1 RES1    0.0000
      4 O4        -0.7534    6.7485    2.9581 O.3       1 RES1    0.0000
      5 C1         2.6822    4.5747    7.8344 C.ar      1 RES1    0.0000
      6 C2         1.8735    4.7417    6.6585 C.ar      1 RES1    0.0000
      7 C3         3.1515    5.7132    8.4848 C.ar      1 RES1    0.0000
      8 C4         4.2708    4.4128   10.1346 C.ar      1 RES1    0.0000
      9 C5         3.9412    5.6390    9.6258 C.ar      1 RES1    0.0000
     10 H1         4.2435    6.4153   10.0385 H         1 RES1    0.0000
     11 C6         1.6249    6.0616    6.2508 C.ar      1 RES1    0.0000
     12 C7         3.8181    3.2616    9.4947 C.ar      1 RES1    0.0000
     13 H2         4.0519    2.4284    9.8335 H         1 RES1    0.0000
     14 C8         3.0342    3.3347    8.3748 C.ar      1 RES1    0.0000
     15 H3         2.7335    2.5531    7.9693 H         1 RES1    0.0000
     16 C9         1.3267    3.7024    5.9151 C.ar      1 RES1    0.0000
     17 H4         1.4754    2.8237    6.1771 H         1 RES1    0.0000
     18 C10        0.8558    6.3147    5.1118 C.ar      1 RES1    0.0000
     19 H5         0.6980    7.1903    4.8420 H         1 RES1    0.0000
     20 C11        0.5741    3.9529    4.8043 C.ar      1 RES1    0.0000
     21 H6         0.2173    3.2459    4.3184 H         1 RES1    0.0000
     22 C12        0.3354    5.2705    4.3935 C.ar      1 RES1    0.0000
     23 C13        5.1084    4.3552   11.3584 C.2       1 RES1    0.0000
     24 C14       -0.4841    5.4773    3.1741 C.2       1 RES1    0.0000
     25 C15        6.4004    2.9243   12.7511 C.3       1 RES1    0.0000
     26 H7         5.8709    2.9257   13.5647 H         1 RES1    0.0000
     27 H8         7.0629    3.6284   12.8140 H         1 RES1    0.0000
     28 C16        7.0596    1.6137   12.5703 C.3       1 RES1    0.0000
     29 H9         7.6056    1.6364   11.7808 H         1 RES1    0.0000
     30 H10        6.3921    0.9294   12.4788 H         1 RES1    0.0000
     31 H11        7.6089    1.4239   13.3348 H         1 RES1    0.0000
     32 C17       -1.5505    7.0160    1.7592 C.3       1 RES1    0.0000
     33 H12       -1.1904    6.5144    1.0111 H         1 RES1    0.0000
     34 H13       -2.4650    6.7255    1.9058 H         1 RES1    0.0000
     35 C18       -1.5348    8.3435    1.4689 C.3       1 RES1    0.0000
     36 H14       -2.0123    8.4980    0.6510 H         1 RES1    0.0000
     37 H15       -0.6270    8.6382    1.3712 H         1 RES1    0.0000
     38 H16       -1.9553    8.8323    2.1800 H         1 RES1    0.0000
     39 N1         2.8392    7.0018    7.9773 N.pl3     1 RES1    0.0000
     40 O5         3.3076    8.0208    8.5784 O.2       1 RES1    0.0000
     41 N2         2.1032    7.1720    6.9197 N.ar      1 RES1    0.0000
     42 O6         1.6356    8.0942    6.4596 Du        2 SUP2    0.0000
@<TRIPOS>BOND
     1    1   23 2
     2    2   24 2
     3    3   23 1
     4    4   24 1
     5    5    6 ar
     6    6   11 ar
     7    7    5 ar
     8    8    9 ar
     9    9    7 ar
    10   10    9 1
    11   11   18 ar
    12   12    8 ar
    13   13   12 1
    14   14    5 ar
    15   15   14 1
    16   16    6 ar
    17   17   16 1
    18   18   19 1
    19   20   16 ar
    20   21   20 1
    21   22   18 ar
    22   23    8 1
    23   24   22 1
    24   25    3 1
    25   26   25 1
    26   27   25 1
    27   28   25 1
    28   29   28 1
    29   30   28 1
    30   31   28 1
    31   32    4 1
    32   33   32 1
    33   34   32 1
    34   35   32 1
    35   36   35 1
    36   37   35 1
    37   38   35 1
    38   39    7 ar
    39   40   39 1
    40   41   11 ar
    41   12   14 ar
    42   20   22 ar
    43   39   41 ar
@<TRIPOS>SUBSTRUCTURE
     1 RES1 1
     2 SUP2 42

@<TRIPOS>CRYSIN
   8.2607   14.1680   27.7000  90.0000  90.0000  90.0000  60 1

