# MOL2 file generated by ConQuest
# Please check atom types

@<TRIPOS>MOLECULE
GARBUY
    19    19     1
SMALL
NO_CHARGES
****
Generated from CSD

@<TRIPOS>ATOM
      1 C1         1.9147    6.1338    8.5184 C.ar      1 RES1    0.0000
      2 C2         2.4987    6.0107    9.8097 C.ar      1 RES1    0.0000
      3 C3         2.8095    4.7556   10.2947 C.ar      1 RES1    0.0000
      4 H1         3.2026    4.6768   11.1338 H         1 RES1    0.0000
      5 C4         2.5521    3.6227    9.5678 C.ar      1 RES1    0.0000
      6 C5         1.9792    3.7217    8.2951 C.ar      1 RES1    0.0000
      7 H2         1.8051    2.9549    7.7985 H         1 RES1    0.0000
      8 C6         1.6806    4.9412    7.7915 C.ar      1 RES1    0.0000
      9 H3         1.3098    4.9981    6.9407 H         1 RES1    0.0000
     10 C7         2.7962    7.1933   10.6313 C.2       1 RES1    0.0000
     11 N1         1.5832    7.3020    7.9749 N.3       1 RES1    0.0000
     12 H4         1.2309    7.3278    7.1919 H         1 RES1    0.0000
     13 H5         1.7216    8.0316    8.4085 H         1 RES1    0.0000
     14 N2         2.9103    2.3321   10.0925 N.pl3     1 RES1    0.0000
     15 O1         2.4859    8.3318   10.2960 O.2       1 RES1    0.0000
     16 O2         3.4088    6.9333   11.7665 O.3       1 RES1    0.0000
     17 H6         3.5428    7.6334   12.1716 H         1 RES1    0.0000
     18 O3         3.4613    2.2668   11.1852 O.2       1 RES1    0.0000
     19 O4         2.6615    1.3417    9.4287 O.2       1 RES1    0.0000
@<TRIPOS>BOND
     1    1    2 ar
     2    2    3 ar
     3    3    4 1
     4    5    3 ar
     5    6    5 ar
     6    7    6 1
     7    8    1 ar
     8    9    8 1
     9   10    2 1
    10   11    1 1
    11   12   11 1
    12   13   11 1
    13   14    5 1
    14   15   10 2
    15   16   10 1
    16   17   16 1
    17   18   14 2
    18   19   14 2
    19    6    8 ar
@<TRIPOS>SUBSTRUCTURE
     1 RES1 1

@<TRIPOS>CRYSIN
   3.7026   17.4638   11.6953  90.0000  92.2100  90.0000  14 1

