# MOL2 file generated by ConQuest
# Please check atom types

@<TRIPOS>MOLECULE
GARDIO
    65    68     1
SMALL
NO_CHARGES
****
Generated from CSD

@<TRIPOS>ATOM
      1 C1         7.3677    3.2039    0.8814 C.3       1 RES1    0.0000
      2 H1         8.2447    3.1492    0.4469 H         1 RES1    0.0000
      3 C2         7.4435    2.4423    2.2199 C.3       1 RES1    0.0000
      4 H2         6.5326    2.4060    2.5810 H         1 RES1    0.0000
      5 C3         8.2807    3.1825    3.2161 C.2       1 RES1    0.0000
      6 C4         7.9567    4.6323    3.3359 C.3       1 RES1    0.0000
      7 H3         8.5983    5.0618    3.9217 H         1 RES1    0.0000
      8 H4         7.0746    4.7387    3.7239 H         1 RES1    0.0000
      9 C5         7.9949    5.2919    1.9597 C.3       1 RES1    0.0000
     10 H5         8.8934    5.1747    1.5860 H         1 RES1    0.0000
     11 C6         6.3521    2.5329   -0.0154 C.ar      1 RES1    0.0000
     12 C7         5.0106    2.4659    0.3442 C.ar      1 RES1    0.0000
     13 H6         4.7288    2.8757    1.1293 H         1 RES1    0.0000
     14 C8         4.0936    1.8063   -0.4356 C.ar      1 RES1    0.0000
     15 H7         3.2033    1.7659   -0.1721 H         1 RES1    0.0000
     16 C9         4.4939    1.2074   -1.6057 C.ar      1 RES1    0.0000
     17 C10        5.8050    1.2654   -1.9914 C.ar      1 RES1    0.0000
     18 H8         6.0782    0.8621   -2.7833 H         1 RES1    0.0000
     19 C11        6.7248    1.9286   -1.1927 C.ar      1 RES1    0.0000
     20 H9         7.6154    1.9660   -1.4600 H         1 RES1    0.0000
     21 C12        3.8574   -0.0882   -3.4846 C.3       1 RES1    0.0000
     22 H10        4.1426    0.5470   -4.1452 H         1 RES1    0.0000
     23 H11        3.1000   -0.5767   -3.8153 H         1 RES1    0.0000
     24 H12        4.5733   -0.6996   -3.2966 H         1 RES1    0.0000
     25 C13        7.0453    5.2843   -0.2469 C.3       1 RES1    0.0000
     26 H13        6.7765    6.2014   -0.1502 H         1 RES1    0.0000
     27 H14        6.4373    4.8319   -0.8372 H         1 RES1    0.0000
     28 H15        7.9327    5.2481   -0.6115 H         1 RES1    0.0000
     29 C14        7.7165    6.7690    2.0811 C.ar      1 RES1    0.0000
     30 C15        6.4809    7.2450    2.4927 C.ar      1 RES1    0.0000
     31 H16        5.8088    6.6413    2.7131 H         1 RES1    0.0000
     32 C16        6.2333    8.5917    2.5802 C.ar      1 RES1    0.0000
     33 H17        5.3951    8.8908    2.8490 H         1 RES1    0.0000
     34 C17        7.2233    9.5040    2.2700 C.ar      1 RES1    0.0000
     35 C18        8.4687    9.0579    1.9023 C.ar      1 RES1    0.0000
     36 H18        9.1483    9.6637    1.7159 H         1 RES1    0.0000
     37 C19        8.7018    7.6985    1.8110 C.ar      1 RES1    0.0000
     38 H19        9.5470    7.4004    1.5604 H         1 RES1    0.0000
     39 C20        7.8338   11.7925    2.0156 C.3       1 RES1    0.0000
     40 H20        8.5734   11.7210    2.6225 H         1 RES1    0.0000
     41 H21        7.4470   12.6683    2.0850 H         1 RES1    0.0000
     42 H22        8.1404   11.6476    1.1173 H         1 RES1    0.0000
     43 C21       10.7632    2.6579    5.5244 C.3       1 RES1    0.0000
     44 H23       11.5115    2.4833    4.9333 H         1 RES1    0.0000
     45 H24       10.4081    1.8075    5.8271 H         1 RES1    0.0000
     46 C22       11.2124    3.4673    6.6914 C.ar      1 RES1    0.0000
     47 C23       11.3846    2.8896    7.9242 C.ar      1 RES1    0.0000
     48 H25       11.2104    1.9839    8.0510 H         1 RES1    0.0000
     49 C24       11.8298    3.6919    8.9976 C.ar      1 RES1    0.0000
     50 H26       11.9499    3.3157    9.8394 H         1 RES1    0.0000
     51 C25       12.0829    5.0120    8.8021 C.ar      1 RES1    0.0000
     52 H27       12.3872    5.5335    9.5095 H         1 RES1    0.0000
     53 C26       11.8989    5.5662    7.6086 C.ar      1 RES1    0.0000
     54 H28       12.0599    6.4749    7.4894 H         1 RES1    0.0000
     55 C27       11.4772    4.8097    6.5601 C.ar      1 RES1    0.0000
     56 H29       11.3653    5.2124    5.7289 H         1 RES1    0.0000
     57 C28        7.8895    1.0034    1.9937 C.3       1 RES1    0.0000
     58 H30        8.7733    0.9969    1.6170 H         1 RES1    0.0000
     59 H31        7.2813    0.5708    1.3898 H         1 RES1    0.0000
     60 H32        7.8962    0.5351    2.8316 H         1 RES1    0.0000
     61 N1         7.0293    4.6291    1.0669 N.3       1 RES1    0.0000
     62 N2         9.1545    2.5392    3.8728 N.2       1 RES1    0.0000
     63 O1         3.5019    0.5855   -2.3145 O.3       1 RES1    0.0000
     64 O2         6.8582   10.8190    2.3429 O.3       1 RES1    0.0000
     65 O3         9.7662    3.3833    4.8415 O.3       1 RES1    0.0000
@<TRIPOS>BOND
     1    1    2 1
     2    3    1 1
     3    4    3 1
     4    5    3 1
     5    6    5 1
     6    7    6 1
     7    8    6 1
     8    9    6 1
     9   10    9 1
    10   11    1 1
    11   12   11 ar
    12   13   12 1
    13   14   12 ar
    14   15   14 1
    15   16   14 ar
    16   17   16 ar
    17   18   17 1
    18   19   11 ar
    19   20   19 1
    20   21   22 1
    21   23   21 1
    22   24   21 1
    23   25   26 1
    24   27   25 1
    25   28   25 1
    26   29    9 1
    27   30   29 ar
    28   31   30 1
    29   32   30 ar
    30   33   32 1
    31   34   32 ar
    32   35   34 ar
    33   36   35 1
    34   37   29 ar
    35   38   37 1
    36   39   40 1
    37   41   39 1
    38   42   39 1
    39   43   44 1
    40   45   43 1
    41   46   43 1
    42   47   46 ar
    43   48   47 1
    44   49   47 ar
    45   50   49 1
    46   51   49 ar
    47   52   51 1
    48   53   51 ar
    49   54   53 1
    50   55   46 ar
    51   56   55 1
    52   57    3 1
    53   58   57 1
    54   59   57 1
    55   60   57 1
    56   61    1 1
    57   62    5 2
    58   63   16 1
    59   64   34 1
    60   65   43 1
    61    9   61 1
    62   17   19 ar
    63   21   63 1
    64   25   61 1
    65   35   37 ar
    66   39   64 1
    67   53   55 ar
    68   62   65 1
@<TRIPOS>SUBSTRUCTURE
     1 RES1 1

@<TRIPOS>CRYSIN
  16.6740   19.8190    7.5490  90.0000  90.0800  90.0000 231 1

