# MOL2 file generated by ConQuest
# Please check atom types

@<TRIPOS>MOLECULE
GARJOA
    43    42     2
SMALL
NO_CHARGES
****
Generated from CSD

@<TRIPOS>ATOM
      1 N1         4.1142    6.6537    8.1610 N.3       1 RES1    0.0000
      2 C1         3.9463    5.7181    9.2712 C.3       1 RES1    0.0000
      3 H1         4.7039    5.1182    9.3548 H         1 RES1    0.0000
      4 H2         3.1299    5.2017    9.1872 H         1 RES1    0.0000
      5 C2         3.8728    6.7308   10.4588 C.3       1 RES1    0.0000
      6 H3         2.9675    7.0582   10.5733 H         1 RES1    0.0000
      7 H4         4.1601    6.3102   11.2842 H         1 RES1    0.0000
      8 C3         3.7780    6.4008    6.8614 C.ar      1 RES1    0.0000
      9 C4         3.0841    5.9464    4.2287 C.ar      1 RES1    0.0000
     10 O1         1.7430    9.0280    7.4461 O.2       1 RES1    0.0000
     11 C5         3.4858    7.2087    4.6099 C.ar      1 RES1    0.0000
     12 H5         3.5134    7.8963    3.9838 H         1 RES1    0.0000
     13 C6         3.3411    5.1346    6.4468 C.ar      1 RES1    0.0000
     14 H6         3.2867    4.4432    7.0658 H         1 RES1    0.0000
     15 C7         4.7830    7.8795    8.5702 C.3       1 RES1    0.0000
     16 H7         5.7161    7.8223    8.2762 H         1 RES1    0.0000
     17 C8         4.3090    8.8351    6.3265 C.3       1 RES1    0.0000
     18 H8         3.8036    9.4977    5.8300 H         1 RES1    0.0000
     19 H9         5.2449    8.9395    6.0959 H         1 RES1    0.0000
     20 O2         2.5076    9.6821    9.4419 O.3       1 RES1    0.0000
     21 O3         2.4116    4.5751    2.4985 O.2       1 RES1    0.0000
     22 C9         3.8480    7.4548    5.9204 C.ar      1 RES1    0.0000
     23 N2         2.7177    5.7152    2.8460 N.pl3     1 RES1    0.0000
     24 O4         2.7279    6.6600    2.0648 O.2       1 RES1    0.0000
     25 C10        4.1285    9.0875    7.8391 C.3       1 RES1    0.0000
     26 C11        2.9932    4.9027    5.1398 C.ar      1 RES1    0.0000
     27 H10        2.7021    4.0620    4.8693 H         1 RES1    0.0000
     28 C12        2.6410    9.2550    8.1929 C.2       1 RES1    0.0000
     29 N3         5.4688   11.2434    8.4301 N.1       1 RES1    0.0000
     30 C13        4.8589   10.3147    8.2053 C.1       1 RES1    0.0000
     31 C14        4.7730    7.8227   10.0970 C.3       1 RES1    0.0000
     32 H11        5.6658    7.6537   10.4368 H         1 RES1    0.0000
     33 H12        4.4544    8.6620   10.4657 H         1 RES1    0.0000
     34 C15        1.1453    9.7844    9.9594 C.3       1 RES1    0.0000
     35 H13        0.6702    8.9508    9.8207 H         1 RES1    0.0000
     36 H14        0.6653   10.4924    9.5016 H         1 RES1    0.0000
     37 C16        1.2464   10.0842   11.4056 C.3       1 RES1    0.0000
     38 H15        1.8112    9.4327   11.8287 H         1 RES1    0.0000
     39 H16        0.3719   10.0545   11.7998 H         1 RES1    0.0000
     40 H17        1.6225   10.9597   11.5247 H         1 RES1    0.0000
     41 C17        4.6315    6.2977   10.4345 Du        2 SUP2    0.0000
     42 H18        5.5033    5.8908   10.5594 Du        2 SUP2    0.0000
     43 H19        4.1077    6.1710   11.2415 Du        2 SUP2    0.0000
@<TRIPOS>BOND
     1    1    2 1
     2    2    3 1
     3    4    2 1
     4    5    2 1
     5    6    5 1
     6    7    5 1
     7    8    1 1
     8    9   11 ar
     9   10   28 2
    10   11   12 1
    11   13    8 ar
    12   14   13 1
    13   15    1 1
    14   16   15 1
    15   17   18 1
    16   19   17 1
    17   20   28 1
    18   21   23 2
    19   22    8 ar
    20   23    9 1
    21   24   23 2
    22   25   15 1
    23   26    9 ar
    24   27   26 1
    25   28   25 1
    26   29   30 3
    27   30   25 1
    28   31    5 1
    29   32   31 1
    30   33   31 1
    31   34   20 1
    32   35   34 1
    33   36   34 1
    34   37   34 1
    35   38   37 1
    36   39   37 1
    37   40   37 1
    38   11   22 ar
    39   13   26 ar
    40   15   31 1
    41   17   22 1
    42   17   25 1
@<TRIPOS>SUBSTRUCTURE
     1 RES1 1
     2 SUP2 41

@<TRIPOS>CRYSIN
   7.2292    9.1589   11.8243  79.3320  82.6090  80.4290   2 1

