# MOL2 file generated by ConQuest
# Please check atom types

@<TRIPOS>MOLECULE
GARNEU
    38    39     1
SMALL
NO_CHARGES
****
Generated from CSD

@<TRIPOS>ATOM
      1 C1        -1.8480   -0.9997    6.9994 C.2       1 RES1    0.0000
      2 H1        -1.7777   -0.4087    7.7139 H         1 RES1    0.0000
      3 C2        -0.7647   -1.9483    6.7457 C.ar      1 RES1    0.0000
      4 C3        -0.8643   -2.9738    5.8080 C.ar      1 RES1    0.0000
      5 H2        -1.6320   -3.0456    5.2884 H         1 RES1    0.0000
      6 C4         0.1572   -3.8836    5.6379 C.ar      1 RES1    0.0000
      7 H3         0.0788   -4.5561    5.0006 H         1 RES1    0.0000
      8 C5         1.2908   -3.7968    6.4109 C.ar      1 RES1    0.0000
      9 H4         1.9694   -4.4254    6.3091 H         1 RES1    0.0000
     10 C6         1.4272   -2.7849    7.3345 C.ar      1 RES1    0.0000
     11 H5         2.1991   -2.7247    7.8497 H         1 RES1    0.0000
     12 C7         0.4097   -1.8545    7.4942 C.ar      1 RES1    0.0000
     13 C8         1.3559   -0.8755    9.4597 C.3       1 RES1    0.0000
     14 H6         2.2678   -0.6711    9.1989 H         1 RES1    0.0000
     15 H7         1.3341   -1.7728    9.8290 H         1 RES1    0.0000
     16 C9         0.8688    0.1189   10.4763 C.2       1 RES1    0.0000
     17 C10       -0.5593    0.1304   10.6338 C.1       1 RES1    0.0000
     18 C11        1.7017    0.9225   11.1444 C.2       1 RES1    0.0000
     19 H8         2.6002    0.8458   10.9160 H         1 RES1    0.0000
     20 C12        1.3970    1.9073   12.1865 C.ar      1 RES1    0.0000
     21 C13        0.2772    1.7810   13.0094 C.ar      1 RES1    0.0000
     22 H9        -0.2661    1.0306   12.9317 H         1 RES1    0.0000
     23 C14       -0.0348    2.7528   13.9371 C.ar      1 RES1    0.0000
     24 H10       -0.7892    2.6618   14.4723 H         1 RES1    0.0000
     25 C15        0.7749    3.8552   14.0658 C.ar      1 RES1    0.0000
     26 H11        0.5558    4.5248   14.6724 H         1 RES1    0.0000
     27 C16        1.9045    3.9667   13.2997 C.ar      1 RES1    0.0000
     28 H12        2.4510    4.7114   13.4089 H         1 RES1    0.0000
     29 C17        2.2592    3.0048   12.3671 C.ar      1 RES1    0.0000
     30 C18        3.5216    3.1630   11.5751 C.3       1 RES1    0.0000
     31 H13        3.9510    3.9862   11.8179 H         1 RES1    0.0000
     32 H14        3.3126    3.1756   10.6379 H         1 RES1    0.0000
     33 H15        4.1108    2.4284   11.7612 H         1 RES1    0.0000
     34 N1        -2.8792   -0.9671    6.2665 N.2       1 RES1    0.0000
     35 N2        -1.6996    0.1131   10.6809 N.1       1 RES1    0.0000
     36 O1        -3.8079   -0.0195    6.7182 O.3       1 RES1    0.0000
     37 H16       -4.4442    0.0070    6.2021 H         1 RES1    0.0000
     38 O2         0.4879   -0.7823    8.3366 O.3       1 RES1    0.0000
@<TRIPOS>BOND
     1    1    2 1
     2    3    1 1
     3    4    3 ar
     4    5    4 1
     5    6    4 ar
     6    7    6 1
     7    8    6 ar
     8    9    8 1
     9   10    8 ar
    10   11   10 1
    11   12    3 ar
    12   13   14 1
    13   15   13 1
    14   16   13 1
    15   17   16 1
    16   18   16 2
    17   19   18 1
    18   20   18 1
    19   21   20 ar
    20   22   21 1
    21   23   21 ar
    22   24   23 1
    23   25   23 ar
    24   26   25 1
    25   27   25 ar
    26   28   27 1
    27   29   20 ar
    28   30   29 1
    29   31   30 1
    30   32   30 1
    31   33   30 1
    32   34    1 2
    33   35   17 3
    34   36   34 1
    35   37   36 1
    36   38   12 1
    37   10   12 ar
    38   13   38 1
    39   27   29 ar
@<TRIPOS>SUBSTRUCTURE
     1 RES1 1

@<TRIPOS>CRYSIN
   7.0214   10.5094   10.8854  97.6360  95.9530  99.6420   2 1

