# MOL2 file generated by ConQuest
# Please check atom types

@<TRIPOS>MOLECULE
GASKER
    59    62     1
SMALL
NO_CHARGES
****
Generated from CSD

@<TRIPOS>ATOM
      1 O1         7.8002    1.7104    6.0380 O.3       1 RES1    0.0000
      2 N1         7.2958    2.3218    7.2700 N.3       1 RES1    0.0000
      3 C1         6.4198    3.4370    6.8590 C.3       1 RES1    0.0000
      4 H1         5.4946    3.1151    6.8351 H         1 RES1    0.0000
      5 C2         6.8709    3.7478    5.4120 C.3       1 RES1    0.0000
      6 H2         6.1271    4.1167    4.8906 H         1 RES1    0.0000
      7 C3         7.2167    2.3519    4.9317 C.3       1 RES1    0.0000
      8 O2         6.0028    1.7124    4.5391 O.3       1 RES1    0.0000
      9 C4         6.3336    0.5695    3.7241 C.3       1 RES1    0.0000
     10 H3         5.6095    0.4078    3.0837 H         1 RES1    0.0000
     11 C5         7.5913    0.9715    2.9674 C.3       1 RES1    0.0000
     12 H4         8.2329    0.2338    2.8936 H         1 RES1    0.0000
     13 C6         8.1652    2.1679    3.7458 C.3       1 RES1    0.0000
     14 H5         9.0918    2.0218    4.0281 H         1 RES1    0.0000
     15 C7         6.5449    1.2763    7.9570 C.3       1 RES1    0.0000
     16 H6         7.1412    0.5686    8.2123 H         1 RES1    0.0000
     17 H7         5.8688    0.9299    7.3699 H         1 RES1    0.0000
     18 H8         6.1293    1.6432    8.7409 H         1 RES1    0.0000
     19 C8         6.5050    4.5874    7.8450 C.ar      1 RES1    0.0000
     20 C9         5.4043    5.3950    8.0406 C.ar      1 RES1    0.0000
     21 H9         4.6092    5.2113    7.5956 H         1 RES1    0.0000
     22 C10        5.4819    6.4827    8.9012 C.ar      1 RES1    0.0000
     23 H10        4.7378    7.0272    9.0223 H         1 RES1    0.0000
     24 C11        6.6321    6.7573    9.5660 C.ar      1 RES1    0.0000
     25 H11        6.6767    7.4922   10.1336 H         1 RES1    0.0000
     26 C12        7.7333    5.9458    9.3991 C.ar      1 RES1    0.0000
     27 H12        8.5178    6.1253    9.8647 H         1 RES1    0.0000
     28 C13        7.6717    4.8611    8.5346 C.ar      1 RES1    0.0000
     29 H13        8.4168    4.3173    8.4194 H         1 RES1    0.0000
     30 C14        8.0542    4.6916    5.3939 C.2       1 RES1    0.0000
     31 O3         9.2009    4.3861    5.5250 O.2       1 RES1    0.0000
     32 O4         7.6277    5.9523    5.2778 O.3       1 RES1    0.0000
     33 C15        8.6294    6.9698    5.4936 C.3       1 RES1    0.0000
     34 H14        8.2308    7.8376    5.3976 H         1 RES1    0.0000
     35 H15        9.3331    6.8678    4.8489 H         1 RES1    0.0000
     36 H16        8.9919    6.8798    6.3776 H         1 RES1    0.0000
     37 O5         8.0363    3.2663    2.8543 O.3       1 RES1    0.0000
     38 C16        7.9119    2.7497    1.5358 C.3       1 RES1    0.0000
     39 C17        7.0424    3.6783    0.7317 C.3       1 RES1    0.0000
     40 H17        7.4899    4.5219    0.6229 H         1 RES1    0.0000
     41 H18        6.2100    3.8152    1.1902 H         1 RES1    0.0000
     42 H19        6.8744    3.2931   -0.1314 H         1 RES1    0.0000
     43 C18        9.2630    2.5545    0.9127 C.3       1 RES1    0.0000
     44 H20        9.6967    3.4060    0.8161 H         1 RES1    0.0000
     45 H21        9.1620    2.1467    0.0495 H         1 RES1    0.0000
     46 H22        9.7955    1.9860    1.4746 H         1 RES1    0.0000
     47 O6         7.2384    1.5132    1.6921 O.3       1 RES1    0.0000
     48 C19        6.5417   -0.6728    4.5702 C.3       1 RES1    0.0000
     49 H23        7.3145   -0.5646    5.1456 H         1 RES1    0.0000
     50 H24        5.7636   -0.8395    5.1240 H         1 RES1    0.0000
     51 O7         6.7447   -1.7495    3.6638 O.3       1 RES1    0.0000
     52 C20        7.1210   -2.9460    4.2989 C.3       1 RES1    0.0000
     53 H25        6.4492   -3.1749    4.9602 H         1 RES1    0.0000
     54 H26        7.1412   -3.6584    3.6401 H         1 RES1    0.0000
     55 O8         8.3605   -2.8767    4.9221 O.3       1 RES1    0.0000
     56 C21        9.4363   -2.7604    4.0136 C.3       1 RES1    0.0000
     57 H27       10.2633   -2.7179    4.4995 H         1 RES1    0.0000
     58 H28        9.3310   -1.9607    3.4917 H         1 RES1    0.0000
     59 H29        9.4469   -3.5229    3.4315 H         1 RES1    0.0000
@<TRIPOS>BOND
     1    1    2 1
     2    2    3 1
     3    3    4 1
     4    5    3 1
     5    6    5 1
     6    7    1 1
     7    8    7 1
     8    9    8 1
     9   10    9 1
    10   11    9 1
    11   12   11 1
    12   13    7 1
    13   14   13 1
    14   15    2 1
    15   16   15 1
    16   17   15 1
    17   18   15 1
    18   19    3 1
    19   20   19 ar
    20   21   20 1
    21   22   20 ar
    22   23   22 1
    23   24   22 ar
    24   25   24 1
    25   26   24 ar
    26   27   26 1
    27   28   19 ar
    28   29   28 1
    29   30    5 1
    30   31   30 2
    31   32   30 1
    32   33   32 1
    33   34   33 1
    34   35   33 1
    35   36   33 1
    36   37   13 1
    37   38   37 1
    38   39   38 1
    39   40   39 1
    40   41   39 1
    41   42   39 1
    42   43   38 1
    43   44   43 1
    44   45   43 1
    45   46   43 1
    46   47   11 1
    47   48    9 1
    48   49   48 1
    49   50   48 1
    50   51   48 1
    51   52   51 1
    52   53   52 1
    53   54   52 1
    54   55   52 1
    55   56   55 1
    56   57   56 1
    57   58   56 1
    58   59   56 1
    59    5    7 1
    60   11   13 1
    61   26   28 ar
    62   38   47 1
@<TRIPOS>SUBSTRUCTURE
     1 RES1 1

@<TRIPOS>CRYSIN
  10.6300   13.2840   15.4570  90.0000  90.0000  90.0000  19 1

