# MOL2 file generated by ConQuest
# Please check atom types

@<TRIPOS>MOLECULE
GASKUG
    47    49     1
SMALL
NO_CHARGES
****
Generated from CSD

@<TRIPOS>ATOM
      1 O1        -1.1932    1.3453    6.5056 O.3       1 RES1    0.0000
      2 N1         0.0700    1.1800    7.1394 N.2       1 RES1    0.0000
      3 C1         0.9171    1.4183    6.1973 C.2       1 RES1    0.0000
      4 C2         0.2990    1.7354    4.9525 C.2       1 RES1    0.0000
      5 C3        -0.9992    1.6950    5.2230 C.2       1 RES1    0.0000
      6 C4        -2.2566    1.9429    4.4446 C.3       1 RES1    0.0000
      7 C5        -2.9338    3.2536    4.8608 C.3       1 RES1    0.0000
      8 N2        -2.0780    4.3721    4.5231 N.am      1 RES1    0.0000
      9 C6        -1.6110    5.2331    5.4094 C.2       1 RES1    0.0000
     10 O2        -1.8268    5.1427    6.5945 O.2       1 RES1    0.0000
     11 C7        -0.7652    6.3573    4.8996 C.3       1 RES1    0.0000
     12 C8         0.4536    6.4515    5.4538 C.2       1 RES1    0.0000
     13 O3         0.9430    6.9608    6.3874 O.2       1 RES1    0.0000
     14 C9         1.4616    5.3906    4.6669 C.3       1 RES1    0.0000
     15 O4         2.2410    1.3529    6.3874 O.3       1 RES1    0.0000
     16 C10        2.6423    0.9205    7.7040 C.3       1 RES1    0.0000
     17 C11        4.1453    0.9667    7.7977 C.ar      1 RES1    0.0000
     18 C12        4.9058   -0.0250    7.2444 C.ar      1 RES1    0.0000
     19 C13        6.2590   -0.0154    7.3730 C.ar      1 RES1    0.0000
     20 C14        6.8819    0.9571    8.0597 C.ar      1 RES1    0.0000
     21 C15        6.1602    1.9218    8.6300 C.ar      1 RES1    0.0000
     22 C16        4.7677    1.9333    8.4976 C.ar      1 RES1    0.0000
     23 C17       -4.3214    3.3804    4.2403 C.ar      1 RES1    0.0000
     24 C18       -4.5165    3.9013    2.9908 C.ar      1 RES1    0.0000
     25 C19       -5.8153    3.9743    2.4678 C.ar      1 RES1    0.0000
     26 C20       -6.8795    3.5303    3.2046 C.ar      1 RES1    0.0000
     27 C21       -6.6742    3.0057    4.4011 C.ar      1 RES1    0.0000
     28 C22       -5.4087    2.9211    4.9355 C.ar      1 RES1    0.0000
     29 H1        -1.8114    4.5354    3.5470 H         1 RES1    0.0000
     30 H2         2.3216   -0.0192    7.8601 H         1 RES1    0.0000
     31 H3         2.2432    1.5182    8.3898 H         1 RES1    0.0000
     32 H4        -2.0290    1.9795    3.4713 H         1 RES1    0.0000
     33 H5        -2.8880    1.1915    4.6063 H         1 RES1    0.0000
     34 H6        -0.6430    6.2458    3.9159 H         1 RES1    0.0000
     35 H7        -1.2546    7.2260    5.0698 H         1 RES1    0.0000
     36 H8         0.7448    1.9410    4.0767 H         1 RES1    0.0000
     37 H9        -3.0549    3.1902    5.8360 H         1 RES1    0.0000
     38 H10        4.4614   -0.7687    6.7440 H         1 RES1    0.0000
     39 H11        6.8085   -0.7495    6.9521 H         1 RES1    0.0000
     40 H12        7.8842    0.9609    8.1439 H         1 RES1    0.0000
     41 H13        6.6206    2.6521    9.1559 H         1 RES1    0.0000
     42 H14        4.2305    2.6713    8.9289 H         1 RES1    0.0000
     43 H15       -3.7281    4.2280    2.4498 H         1 RES1    0.0000
     44 H16       -5.9651    4.3625    1.5512 H         1 RES1    0.0000
     45 H17       -7.8085    3.5361    2.8376 H         1 RES1    0.0000
     46 H18       -7.4597    2.6713    4.9279 H         1 RES1    0.0000
     47 H19       -5.2819    2.5176    5.8454 H         1 RES1    0.0000
@<TRIPOS>BOND
     1    1    2 1
     2    2    3 2
     3    3    4 1
     4    4    5 2
     5    5    1 1
     6    6    5 1
     7    7    6 1
     8    8    7 1
     9    9    8 1
    10   10    9 2
    11   11    9 1
    12   12   11 1
    13   13   12 2
    14   14   12 1
    15   15    3 1
    16   16   15 1
    17   17   16 1
    18   18   17 ar
    19   19   18 ar
    20   20   19 ar
    21   21   20 ar
    22   22   17 ar
    23   23    7 1
    24   24   23 ar
    25   25   24 ar
    26   26   25 ar
    27   27   26 ar
    28   28   23 ar
    29   29    8 1
    30   30   16 1
    31   31   16 1
    32   32    6 1
    33   33    6 1
    34   34   11 1
    35   35   11 1
    36   36    4 1
    37   37    7 1
    38   38   18 1
    39   39   19 1
    40   40   20 1
    41   41   21 1
    42   42   22 1
    43   43   24 1
    44   44   25 1
    45   45   26 1
    46   46   27 1
    47   47   28 1
    48   21   22 ar
    49   27   28 ar
@<TRIPOS>SUBSTRUCTURE
     1 RES1 1

@<TRIPOS>CRYSIN
  11.3560   19.2180    9.5340  90.0000  97.2100  90.0000  14 1

