# MOL2 file generated by ConQuest
# Please check atom types

@<TRIPOS>MOLECULE
GASKIV
    78    65     2
SMALL
NO_CHARGES
****
Generated from CSD

@<TRIPOS>ATOM
      1 O1         5.7301    3.6588    9.4020 O.3       1 RES1    0.0000
      2 N1         5.5139    2.5546    8.4512 N.3       1 RES1    0.0000
      3 C1         5.4425    3.2745    7.1684 C.3       1 RES1    0.0000
      4 H1         4.6059    3.7831    7.1247 H         1 RES1    0.0000
      5 C2         6.6167    4.2354    7.2983 C.3       1 RES1    0.0000
      6 H2         7.4167    3.8112    6.9236 H         1 RES1    0.0000
      7 C3         6.7990    4.3845    8.8272 C.3       1 RES1    0.0000
      8 O2         8.0558    3.8245    9.1608 O.3       1 RES1    0.0000
      9 C4         8.3185    4.1575   10.5484 C.3       1 RES1    0.0000
     10 H3         7.8169    3.5520   11.1355 H         1 RES1    0.0000
     11 C5         7.7815    5.5856   10.6983 C.3       1 RES1    0.0000
     12 H4         7.3460    5.7272   11.5652 H         1 RES1    0.0000
     13 C6         6.7881    5.7396    9.5142 C.3       1 RES1    0.0000
     14 H5         5.8914    5.9997    9.8102 H         1 RES1    0.0000
     15 C7         4.2170    1.9914    8.8984 C.3       1 RES1    0.0000
     16 H6         4.3367    1.5382    9.7365 H         1 RES1    0.0000
     17 H7         3.8955    1.3693    8.2414 H         1 RES1    0.0000
     18 H8         3.5801    2.7012    9.0058 H         1 RES1    0.0000
     19 C8         5.5163    2.3310    6.0105 C.3       1 RES1    0.0000
     20 H9         4.8571    1.6310    6.1367 H         1 RES1    0.0000
     21 H10        6.3910    1.9118    6.0056 H         1 RES1    0.0000
     22 C9         5.2823    2.9804    4.6603 C.3       1 RES1    0.0000
     23 H11        4.4213    3.4252    4.6715 H         1 RES1    0.0000
     24 H12        5.9625    3.6580    4.5167 H         1 RES1    0.0000
     25 C10        5.3136    2.0253    3.5286 C.3       1 RES1    0.0000
     26 H13        5.1590    2.4975    2.7067 H         1 RES1    0.0000
     27 H14        4.6288    1.3635    3.6510 H         1 RES1    0.0000
     28 H15        6.1714    1.5962    3.4949 H         1 RES1    0.0000
     29 C11        6.3746    5.5508    6.5776 C.2       1 RES1    0.0000
     30 O3         5.3467    6.1580    6.6026 O.2       1 RES1    0.0000
     31 O4         7.4524    5.8995    5.8550 O.3       1 RES1    0.0000
     32 C12        7.3556    7.1743    5.1924 C.3       1 RES1    0.0000
     33 H16        8.1654    7.3458    4.7078 H         1 RES1    0.0000
     34 H17        7.2211    7.8652    5.8457 H         1 RES1    0.0000
     35 H18        6.6139    7.1627    4.5829 H         1 RES1    0.0000
     36 O5         7.3898    6.7196    8.6988 O.3       1 RES1    0.0000
     37 C13        8.2856    7.4949    9.4967 C.3       1 RES1    0.0000
     38 C14        7.5324    8.5825   10.2449 C.3       1 RES1    0.0000
     39 H19        8.1495    9.0895   10.7795 H         1 RES1    0.0000
     40 H20        6.8721    8.1800   10.8145 H         1 RES1    0.0000
     41 H21        7.1011    9.1640    9.6154 H         1 RES1    0.0000
     42 C15        9.4044    8.0043    8.6861 C.3       1 RES1    0.0000
     43 H22        9.9951    8.5188    9.2419 H         1 RES1    0.0000
     44 H23        9.0626    8.5593    7.9816 H         1 RES1    0.0000
     45 H24        9.8870    7.2655    8.3063 H         1 RES1    0.0000
     46 O6         8.7855    6.5431   10.4460 O.3       1 RES1    0.0000
     47 C16        9.7952    4.0067   10.8033 Du        2 SUP2    0.0000
     48 H25       10.3073    4.4499   10.0963 Du        2 SUP2    0.0000
     49 C17       10.2387    4.5112   12.1685 Du        2 SUP2    0.0000
     50 H26       10.5642    5.4232   12.1135 Du        2 SUP2    0.0000
     51 H27        9.5076    4.4756   12.8068 Du        2 SUP2    0.0000
     52 O7        11.2778    3.6240   12.5395 Du        2 SUP2    0.0000
     53 C18       11.0678    2.4163   11.8750 Du        2 SUP2    0.0000
     54 C19       12.4563    2.4685   11.2204 Du        2 SUP2    0.0000
     55 H28       12.5480    1.7362   10.6059 Du        2 SUP2    0.0000
     56 H29       13.1327    2.4047   11.8987 Du        2 SUP2    0.0000
     57 H30       12.5560    3.2968   10.7458 Du        2 SUP2    0.0000
     58 C20       10.7881    1.0967   12.5470 Du        2 SUP2    0.0000
     59 H31       10.9527    0.3819   11.9274 Du        2 SUP2    0.0000
     60 H32        9.8729    1.0694   12.8305 Du        2 SUP2    0.0000
     61 H33       11.3635    0.9982   13.3089 Du        2 SUP2    0.0000
     62 O8        10.1047    2.6093   10.8382 Du        2 SUP2    0.0000
     63 C21        9.7952    4.0067   10.8033 C.3       1 RES1    0.0000
     64 H34       10.3073    4.4499   10.0963 H         1 RES1    0.0000
     65 C22       10.2387    4.5112   12.1685 C.3       1 RES1    0.0000
     66 H35       10.9878    5.1209   12.0811 H         1 RES1    0.0000
     67 H36        9.5117    4.9726   12.6157 H         1 RES1    0.0000
     68 O9        10.6169    3.3565   12.8967 O.3       1 RES1    0.0000
     69 C23       11.0678    2.4163   11.8750 C.3       1 RES1    0.0000
     70 C24       12.4563    2.4685   11.2204 C.3       1 RES1    0.0000
     71 H37       12.5553    1.7238   10.6221 H         1 RES1    0.0000
     72 H38       13.1324    2.4254   11.8999 H         1 RES1    0.0000
     73 H39       12.5478    3.2877   10.7283 H         1 RES1    0.0000
     74 C25       10.7881    1.0967   12.5470 C.3       1 RES1    0.0000
     75 H40       10.7793    0.3984   11.8887 H         1 RES1    0.0000
     76 H41        9.9355    1.1340   12.9854 H         1 RES1    0.0000
     77 H42       11.4736    0.9162   13.1952 H         1 RES1    0.0000
     78 O10       10.1047    2.6093   10.8382 O.3       1 RES1    0.0000
@<TRIPOS>BOND
     1    1    2 1
     2    2    3 1
     3    3    4 1
     4    5    3 1
     5    6    5 1
     6    7    1 1
     7    8    7 1
     8    9    8 1
     9   10    9 1
    10   11    9 1
    11   12   11 1
    12   13    7 1
    13   14   13 1
    14   15    2 1
    15   16   15 1
    16   17   15 1
    17   18   15 1
    18   19    3 1
    19   20   19 1
    20   21   19 1
    21   22   19 1
    22   23   22 1
    23   24   22 1
    24   25   22 1
    25   26   25 1
    26   27   25 1
    27   28   25 1
    28   29    5 1
    29   30   29 2
    30   31   29 1
    31   32   31 1
    32   33   32 1
    33   34   32 1
    34   35   32 1
    35   36   13 1
    36   37   36 1
    37   38   37 1
    38   39   38 1
    39   40   38 1
    40   41   38 1
    41   42   37 1
    42   43   42 1
    43   44   42 1
    44   45   42 1
    45   46   11 1
    46   63    9 1
    47   64   63 1
    48   65   63 1
    49   66   65 1
    50   67   65 1
    51   68   65 1
    52   69   68 1
    53   70   69 1
    54   71   70 1
    55   72   70 1
    56   73   70 1
    57   74   69 1
    58   75   74 1
    59   76   74 1
    60   77   74 1
    61   78   63 1
    62    5    7 1
    63   11   13 1
    64   37   46 1
    65   69   78 1
@<TRIPOS>SUBSTRUCTURE
     1 RES1 1
     2 SUP2 47

@<TRIPOS>CRYSIN
  11.1523    8.2835   13.0466  90.0000 106.7850  90.0000   4 1

