# MOL2 file generated by ConQuest
# Please check atom types

@<TRIPOS>MOLECULE
GASYEG
    42    44     1
SMALL
NO_CHARGES
****
Generated from CSD

@<TRIPOS>ATOM
      1 N1         7.1369    4.6402    3.3909 N.3       1 RES1    0.0000
      2 N2         4.4337    6.4953   10.0092 N.pl3     1 RES1    0.0000
      3 O1         6.1072    8.2390    1.8910 O.2       1 RES1    0.0000
      4 O2         8.0689    6.8809    4.7359 O.3       1 RES1    0.0000
      5 O3         3.2882    6.8587   10.2034 O.2       1 RES1    0.0000
      6 O4         5.1297    5.9992   10.8727 O.2       1 RES1    0.0000
      7 C1         5.8736    6.6913    3.6773 C.3       1 RES1    0.0000
      8 C2         5.8175    5.1656    3.8025 C.3       1 RES1    0.0000
      9 C3         4.6523    4.5479    3.0309 C.3       1 RES1    0.0000
     10 C4         4.8299    4.6773    1.5249 C.3       1 RES1    0.0000
     11 C5         6.1986    4.1513    1.1139 C.3       1 RES1    0.0000
     12 C6         7.3122    4.8025    1.9338 C.3       1 RES1    0.0000
     13 C7         7.4463    6.2960    1.6510 C.3       1 RES1    0.0000
     14 C8         6.4331    7.1638    2.3433 C.2       1 RES1    0.0000
     15 C9         7.3693    3.2763    3.8568 C.3       1 RES1    0.0000
     16 C10        6.7248    7.3229    4.8032 C.3       1 RES1    0.0000
     17 C11        6.1094    7.0735    6.1727 C.ar      1 RES1    0.0000
     18 C12        6.8383    6.4603    7.1756 C.ar      1 RES1    0.0000
     19 C13        6.2985    6.2694    8.4328 C.ar      1 RES1    0.0000
     20 C14        5.0122    6.6826    8.6729 C.ar      1 RES1    0.0000
     21 C15        4.2546    7.2929    7.6992 C.ar      1 RES1    0.0000
     22 C16        4.8112    7.4850    6.4528 C.ar      1 RES1    0.0000
     23 H1         4.9711    7.0558    3.7295 H         1 RES1    0.0000
     24 H2         5.7314    4.9399    4.7421 H         1 RES1    0.0000
     25 H3         4.6011    3.5714    3.2638 H         1 RES1    0.0000
     26 H4         6.2491    3.1687    1.2420 H         1 RES1    0.0000
     27 H5         4.1231    4.1954    1.0454 H         1 RES1    0.0000
     28 H6         3.8194    5.0022    3.3414 H         1 RES1    0.0000
     29 H7         6.3831    4.3304    0.1760 H         1 RES1    0.0000
     30 H8         4.7151    5.6513    1.2265 H         1 RES1    0.0000
     31 H9         8.1563    4.3527    1.7078 H         1 RES1    0.0000
     32 H10        7.4088    6.4719    0.7142 H         1 RES1    0.0000
     33 H11        8.3643    6.5798    2.0700 H         1 RES1    0.0000
     34 H12        7.2993    3.2516    4.8749 H         1 RES1    0.0000
     35 H13        8.2545    2.9626    3.5398 H         1 RES1    0.0000
     36 H14        6.6858    2.6276    3.5035 H         1 RES1    0.0000
     37 H15        6.7394    8.2819    4.6697 H         1 RES1    0.0000
     38 H16        6.8137    5.8784    9.1151 H         1 RES1    0.0000
     39 H17        7.7300    6.1651    7.0036 H         1 RES1    0.0000
     40 H18        3.3713    7.5968    7.8661 H         1 RES1    0.0000
     41 H19        4.2636    7.9032    5.7495 H         1 RES1    0.0000
     42 H20        7.9878    5.9920    4.3781 H         1 RES1    0.0000
@<TRIPOS>BOND
     1    1    8 1
     2    2    5 2
     3    3   14 2
     4    4   16 1
     5    6    2 2
     6    7    8 1
     7    8    9 1
     8    9   10 1
     9   10   11 1
    10   11   12 1
    11   12    1 1
    12   13   12 1
    13   14    7 1
    14   15    1 1
    15   16    7 1
    16   17   16 1
    17   18   17 ar
    18   19   18 ar
    19   20    2 1
    20   21   20 ar
    21   22   17 ar
    22   23    7 1
    23   24    8 1
    24   25    9 1
    25   26   11 1
    26   27   10 1
    27   28    9 1
    28   29   11 1
    29   30   10 1
    30   31   12 1
    31   32   13 1
    32   33   13 1
    33   34   15 1
    34   35   15 1
    35   36   15 1
    36   37   16 1
    37   38   19 1
    38   39   18 1
    39   40   21 1
    40   41   22 1
    41   42    4 1
    42   13   14 1
    43   19   20 ar
    44   21   22 ar
@<TRIPOS>SUBSTRUCTURE
     1 RES1 1

@<TRIPOS>CRYSIN
   6.2540    7.2689   17.5157  80.3500  89.1700  70.3690   2 1

