# MOL2 file generated by ConQuest
# Please check atom types

@<TRIPOS>MOLECULE
GASZUX
    51    55     1
SMALL
NO_CHARGES
****
Generated from CSD

@<TRIPOS>ATOM
      1 C1         7.6628   10.0950    2.5124 C.ar      1 RES1    0.0000
      2 H1         8.1126   10.3791    3.2770 H         1 RES1    0.0000
      3 C2         8.1836   10.3791    1.2678 C.ar      1 RES1    0.0000
      4 H2         8.9906   10.8339    1.1923 H         1 RES1    0.0000
      5 C3         7.5252    9.9968    0.1703 C.ar      1 RES1    0.0000
      6 H3         7.8756   10.1902   -0.6697 H         1 RES1    0.0000
      7 C4         6.3663    9.3380    0.2710 C.ar      1 RES1    0.0000
      8 H4         5.9071    9.0887   -0.4994 H         1 RES1    0.0000
      9 C5         5.8466    9.0267    1.5175 C.ar      1 RES1    0.0000
     10 H5         5.0470    8.5553    1.5853 H         1 RES1    0.0000
     11 C6         6.4989    9.4060    2.6325 C.ar      1 RES1    0.0000
     12 C7         4.9173    9.6523    4.4848 C.2       1 RES1    0.0000
     13 C8         4.8332    9.2095    5.9250 C.3       1 RES1    0.0000
     14 H6         3.9232    8.9648    6.1572 H         1 RES1    0.0000
     15 H7         5.1276    9.9167    6.5211 H         1 RES1    0.0000
     16 C9         5.7560    8.0053    6.0237 C.3       1 RES1    0.0000
     17 H8         6.2108    7.9932    6.8908 H         1 RES1    0.0000
     18 C10        6.7649    8.2395    4.8950 C.3       1 RES1    0.0000
     19 H9         7.4982    8.7880    5.2436 H         1 RES1    0.0000
     20 C11        7.3480    6.9808    4.3021 C.ar      1 RES1    0.0000
     21 C12        6.8115    5.7418    4.6207 C.ar      1 RES1    0.0000
     22 C13        4.9426    6.7255    5.8307 C.3       1 RES1    0.0000
     23 H10        4.3469    6.8418    5.0617 H         1 RES1    0.0000
     24 C14        8.4844    7.0216    3.5008 C.ar      1 RES1    0.0000
     25 H11        8.8697    7.8496    3.3254 H         1 RES1    0.0000
     26 C15        9.0695    5.9005    2.9538 C.ar      1 RES1    0.0000
     27 C16        8.4340    4.6977    3.2131 C.ar      1 RES1    0.0000
     28 H12        8.7621    3.9256    2.8125 H         1 RES1    0.0000
     29 C17        7.3533    4.5965    4.0280 C.ar      1 RES1    0.0000
     30 H13        6.9718    3.7654    4.1926 H         1 RES1    0.0000
     31 C18       10.3249    5.9775    2.1214 C.3       1 RES1    0.0000
     32 H14       10.9148    5.2613    2.3634 H         1 RES1    0.0000
     33 H15       10.7613    6.8176    2.2782 H         1 RES1    0.0000
     34 H16       10.0973    5.9035    1.1904 H         1 RES1    0.0000
     35 C19        4.1123    6.4187    7.0430 C.ar      1 RES1    0.0000
     36 C20        4.6791    6.1981    8.2942 C.ar      1 RES1    0.0000
     37 H17        5.6059    6.2178    8.3755 H         1 RES1    0.0000
     38 C21        3.9321    5.9549    9.3975 C.ar      1 RES1    0.0000
     39 H18        4.3387    5.8279   10.2240 H         1 RES1    0.0000
     40 C22        2.5801    5.9005    9.2794 C.ar      1 RES1    0.0000
     41 C23        1.9744    6.0606    8.0580 C.ar      1 RES1    0.0000
     42 H19        1.0500    6.0002    7.9786 H         1 RES1    0.0000
     43 C24        2.7542    6.3130    6.9508 C.ar      1 RES1    0.0000
     44 H20        2.3459    6.4127    6.1224 H         1 RES1    0.0000
     45 N1         5.9935    9.0516    3.9253 N.am      1 RES1    0.0000
     46 N2         5.8240    5.6058    5.5738 N.3       1 RES1    0.0000
     47 N3         1.7525    5.6889   10.4563 N.pl3     1 RES1    0.0000
     48 O1         4.1614   10.4350    3.9181 O.2       1 RES1    0.0000
     49 O2         0.5383    5.6496   10.3281 O.2       1 RES1    0.0000
     50 O3         2.3205    5.5877   11.5460 O.2       1 RES1    0.0000
     51 H21        5.3586    4.7596    5.5165 H         1 RES1    0.0000
@<TRIPOS>BOND
     1    1    2 1
     2    3    1 ar
     3    4    3 1
     4    5    3 ar
     5    6    5 1
     6    7    5 ar
     7    8    7 1
     8    9    7 ar
     9   10    9 1
    10   11    1 ar
    11   12   13 1
    12   13   14 1
    13   15   13 1
    14   16   13 1
    15   17   16 1
    16   18   16 1
    17   19   18 1
    18   20   18 1
    19   21   20 ar
    20   22   16 1
    21   23   22 1
    22   24   20 ar
    23   25   24 1
    24   26   24 ar
    25   27   26 ar
    26   28   27 1
    27   29   21 ar
    28   30   29 1
    29   31   26 1
    30   32   31 1
    31   33   31 1
    32   34   31 1
    33   35   22 1
    34   36   35 ar
    35   37   36 1
    36   38   36 ar
    37   39   38 1
    38   40   38 ar
    39   41   40 ar
    40   42   41 1
    41   43   35 ar
    42   44   43 1
    43   45   11 1
    44   46   21 1
    45   47   40 1
    46   48   12 2
    47   49   47 2
    48   50   47 2
    49   51   46 1
    50    9   11 ar
    51   12   45 1
    52   18   45 1
    53   22   46 1
    54   27   29 ar
    55   41   43 ar
@<TRIPOS>SUBSTRUCTURE
     1 RES1 1

@<TRIPOS>CRYSIN
   6.8810   15.1100   19.5800  90.0000  98.6700  90.0000 231 1

