# MOL2 file generated by ConQuest
# Please check atom types

@<TRIPOS>MOLECULE
GATDOX
    25    26     1
SMALL
USER_CHARGES
****
Generated from CSD

@<TRIPOS>ATOM
      1 C1         7.9009    5.4719    3.3755 C.3       1 RES1    0.0000
      2 H1         8.8295    5.4719    3.0726 H         1 RES1    0.0000
      3 H2         7.9019    5.4719    4.3538 H         1 RES1    0.0000
      4 O1         8.4882    7.0747    0.9682 O.2       1 RES1   -1.0000
      5 N1         6.1534    7.1791    3.5593 N.2       1 RES1    0.0000
      6 N2         6.5375    9.3786    0.8215 N.1       1 RES1    1.0000
      7 O2         4.3072    9.8625    2.4306 O.2       1 RES1    0.0000
      8 N3         7.2428    6.6698    2.8978 N.pl3     1 RES1    0.0000
      9 N4         4.6290    8.9826    3.2325 N.pl3     1 RES1    0.0000
     10 O3         4.0604    8.7447    4.2839 O.2       1 RES1    0.0000
     11 C2         6.5881    8.4098    1.7172 C.2       1 RES1    0.0000
     12 N5         6.5562   10.1654    0.0360 N.1       1 RES1    0.0000
     13 C3         7.5824    7.3544    1.7278 C.2       1 RES1    0.0000
     14 C4         5.7777    8.1986    2.8591 C.2       1 RES1    0.0000
     15 O1G        8.4882    3.8691    0.9682 O.2       1 RES1   -1.0000
     16 N1G        6.1534    3.7646    3.5593 N.2       1 RES1    0.0000
     17 N2G        6.5375    1.5652    0.8215 N.1       1 RES1    1.0000
     18 O2G        4.3072    1.0812    2.4306 O.2       1 RES1    0.0000
     19 N3G        7.2428    4.2740    2.8978 N.pl3     1 RES1    0.0000
     20 N4G        4.6290    1.9611    3.2325 N.pl3     1 RES1    0.0000
     21 O3G        4.0604    2.1990    4.2839 O.2       1 RES1    0.0000
     22 C2G        6.5881    2.5339    1.7172 C.2       1 RES1    0.0000
     23 N5G        6.5562    0.7783    0.0360 N.1       1 RES1    0.0000
     24 C3G        7.5824    3.5893    1.7278 C.2       1 RES1    0.0000
     25 C4G        5.7777    2.7451    2.8591 C.2       1 RES1    0.0000
@<TRIPOS>BOND
     1    1    2 1
     2    3    1 1
     3    4   13 1
     4    5    8 1
     5    6   11 1
     6    7    9 2
     7    8    1 1
     8    9   10 2
     9   11   13 2
    10   12    6 3
    11   13    8 1
    12   14    5 2
    13   15   24 1
    14   16   19 1
    15   17   22 1
    16   18   20 2
    17   19    1 1
    18   20   21 2
    19   22   24 2
    20   23   17 3
    21   24   19 1
    22   25   16 2
    23    9   14 1
    24   11   14 1
    25   20   25 1
    26   22   25 1
@<TRIPOS>SUBSTRUCTURE
     1 RES1 1

@<TRIPOS>CRYSIN
  10.3877   21.8875    5.2966  90.0000  90.0000  90.0000  62 1

