# MOL2 file generated by ConQuest
# Please check atom types

@<TRIPOS>MOLECULE
GATHOA
    64    65     2
SMALL
NO_CHARGES
****
Generated from CSD

@<TRIPOS>ATOM
      1 O1         8.8396    0.3649    6.4806 O.3       1 RES1    0.0000
      2 C1         7.5863    0.6015    5.7975 C.3       1 RES1    0.0000
      3 H1         6.8582    0.6135    6.4539 H         1 RES1    0.0000
      4 C2         7.7540    1.9987    5.2124 C.3       1 RES1    0.0000
      5 H2         6.8906    2.4167    5.0126 H         1 RES1    0.0000
      6 C3         8.4626    2.6922    6.3535 C.3       1 RES1    0.0000
      7 H3         9.0404    3.4220    6.0500 H         1 RES1    0.0000
      8 C4         9.2373    1.5841    7.0543 C.3       1 RES1    0.0000
      9 H4        10.2034    1.7174    6.9575 H         1 RES1    0.0000
     10 O2         8.8509    1.6717    8.4032 O.3       1 RES1    0.0000
     11 C5         7.9336    2.7612    8.6023 C.3       1 RES1    0.0000
     12 O3         7.5003    3.1182    7.3044 O.3       1 RES1    0.0000
     13 C6         7.3412   -0.5192    4.8010 C.3       1 RES1    0.0000
     14 H5         8.0396   -0.4623    4.1158 H         1 RES1    0.0000
     15 C7         6.0018   -0.3650    4.1008 C.2       1 RES1    0.0000
     16 C8         5.9191   -0.4074    2.7582 C.2       1 RES1    0.0000
     17 C9         4.6392   -0.2424    2.0098 C.2       1 RES1    0.0000
     18 C10        3.4156   -0.0255    2.7833 C.ar      1 RES1    0.0000
     19 C11        2.1963    0.2113    2.1470 C.ar      1 RES1    0.0000
     20 H6         2.1541    0.2574    1.2189 H         1 RES1    0.0000
     21 C12        1.0624    0.3765    2.8969 C.ar      1 RES1    0.0000
     22 H7         0.2478    0.5212    2.4716 H         1 RES1    0.0000
     23 C13        1.1100    0.3304    4.2634 C.ar      1 RES1    0.0000
     24 H8         0.3300    0.4380    4.7581 H         1 RES1    0.0000
     25 C14        2.3153    0.1263    4.9087 C.ar      1 RES1    0.0000
     26 H9         2.3488    0.1140    5.8382 H         1 RES1    0.0000
     27 C15        3.4729   -0.0611    4.1714 C.ar      1 RES1    0.0000
     28 C16        4.7620   -0.2884    4.8782 C.2       1 RES1    0.0000
     29 O4         8.5835    1.9282    4.0636 O.3       1 RES1    0.0000
     30 C17        8.3793    2.9943    3.1801 C.3       1 RES1    0.0000
     31 H10        8.5265    3.8331    3.6442 H         1 RES1    0.0000
     32 H11        7.4629    2.9815    2.8613 H         1 RES1    0.0000
     33 C18        9.3130    2.8918    2.0216 C.ar      1 RES1    0.0000
     34 C19        9.1821    1.9057    1.0883 C.ar      1 RES1    0.0000
     35 H12        8.4810    1.2986    1.1602 H         1 RES1    0.0000
     36 C20       10.0682    1.7943    0.0416 C.ar      1 RES1    0.0000
     37 H13        9.9708    1.1052   -0.5765 H         1 RES1    0.0000
     38 C21       11.0797    2.6831   -0.0918 C.ar      1 RES1    0.0000
     39 H14       11.6834    2.6011   -0.7936 H         1 RES1    0.0000
     40 C22       11.2106    3.7051    0.8135 C.ar      1 RES1    0.0000
     41 H15       11.8868    4.3352    0.7135 H         1 RES1    0.0000
     42 C23       10.3397    3.7922    1.8662 C.ar      1 RES1    0.0000
     43 H16       10.4457    4.4748    2.4894 H         1 RES1    0.0000
     44 C24        8.6325    3.9087    9.2860 C.3       1 RES1    0.0000
     45 H17        9.3043    4.2673    8.7013 H         1 RES1    0.0000
     46 H18        9.0447    3.5962   10.0945 H         1 RES1    0.0000
     47 H19        7.9920    4.5926    9.4967 H         1 RES1    0.0000
     48 C25        6.7489    2.2681    9.3689 C.3       1 RES1    0.0000
     49 H20        6.1138    2.9815    9.4700 H         1 RES1    0.0000
     50 H21        7.0313    1.9659   10.2351 H         1 RES1    0.0000
     51 H22        6.3399    1.5407    8.8934 H         1 RES1    0.0000
     52 O5         6.9966   -0.6010    2.0029 O.3       1 RES1    0.0000
     53 O6         4.6875   -0.2832    0.7879 O.2       1 RES1    0.0000
     54 O7         4.7730   -0.4372    6.0955 O.2       1 RES1    0.0000
     55 C26        7.4824   -1.8783    5.4902 C.3       1 RES1    0.0000
     56 H23        8.3101   -1.9095    5.9948 H         1 RES1    0.0000
     57 H24        6.7446   -2.0171    6.1033 H         1 RES1    0.0000
     58 N1         7.4824   -2.9635    4.4218 N.pl3     1 RES1    0.0000
     59 O8         8.5091   -3.1031    3.7883 O.2       1 RES1    0.0000
     60 O9         6.4481   -3.5258    4.1869 O.2       1 RES1    0.0000
     61 H25        6.7294   -0.6660    1.2527 H         1 RES1    0.0000
     62 N2         7.0648   -2.8175    4.6620 Du        2 SUP2    0.0000
     63 O10        7.6923   -3.2107    3.7385 Du        2 SUP2    0.0000
     64 O11        6.0316   -3.5962    5.0713 Du        2 SUP2    0.0000
@<TRIPOS>BOND
     1    1    2 1
     2    2    3 1
     3    4    2 1
     4    5    4 1
     5    6    4 1
     6    7    6 1
     7    8    1 1
     8    9    8 1
     9   10    8 1
    10   11   10 1
    11   12    6 1
    12   13    2 1
    13   14   13 1
    14   15   13 1
    15   16   15 2
    16   17   16 1
    17   18   17 1
    18   19   18 ar
    19   20   19 1
    20   21   19 ar
    21   22   21 1
    22   23   21 ar
    23   24   23 1
    24   25   23 ar
    25   26   25 1
    26   27   18 ar
    27   28   15 1
    28   29    4 1
    29   30   29 1
    30   31   30 1
    31   32   30 1
    32   33   30 1
    33   34   33 ar
    34   35   34 1
    35   36   34 ar
    36   37   36 1
    37   38   36 ar
    38   39   38 1
    39   40   38 ar
    40   41   40 1
    41   42   33 ar
    42   43   42 1
    43   44   11 1
    44   45   44 1
    45   46   44 1
    46   47   44 1
    47   48   11 1
    48   49   48 1
    49   50   48 1
    50   51   48 1
    51   52   16 1
    52   53   17 2
    53   54   28 2
    54   55   13 1
    55   56   55 1
    56   57   55 1
    57   58   55 1
    58   59   58 2
    59   60   58 2
    60   61   52 1
    61    6    8 1
    62   11   12 1
    63   25   27 ar
    64   27   28 1
    65   40   42 ar
@<TRIPOS>SUBSTRUCTURE
     1 RES1 1
     2 SUP2 62

@<TRIPOS>CRYSIN
  10.8190   12.8070   17.7940  90.0000  90.0000  90.0000  19 1

