# MOL2 file generated by ConQuest
# Please check atom types

@<TRIPOS>MOLECULE
GATTEA
    28    30     1
SMALL
USER_CHARGES
****
Generated from CSD

@<TRIPOS>ATOM
      1 O1         9.4473    5.1701   -2.7962 O.2       1 RES1   -1.0000
      2 N1         9.3668    5.7936   -1.7045 N.pl3     1 RES1    1.0000
      3 N2         5.2106    7.4497    0.8695 N.1       1 RES1    0.0000
      4 N3         8.5490    8.4593    3.2385 N.1       1 RES1    0.0000
      5 C1        10.5429    6.1602   -0.9357 C.ar      1 RES1    0.0000
      6 C2        11.8486    5.9282   -1.2656 C.ar      1 RES1    0.0000
      7 C3        12.8008    6.4507   -0.3761 C.ar      1 RES1    0.0000
      8 C4        12.4148    7.1362    0.7405 C.ar      1 RES1    0.0000
      9 C5        11.0646    7.3381    1.0627 C.ar      1 RES1    0.0000
     10 C6        10.1116    6.8404    0.1780 C.ar      1 RES1    0.0000
     11 C7         8.6350    6.8793    0.1159 C.2       1 RES1    0.0000
     12 C8         8.2549    6.2364   -1.1145 C.2       1 RES1    0.0000
     13 C9         6.9258    6.0504   -1.7059 C.ar      1 RES1    0.0000
     14 C10        6.2916    4.8301   -1.6355 C.ar      1 RES1    0.0000
     15 C11        5.0137    4.6866   -2.1951 C.ar      1 RES1    0.0000
     16 C12        4.4237    5.7334   -2.8321 C.ar      1 RES1    0.0000
     17 C13        5.0710    6.9573   -2.9273 C.ar      1 RES1    0.0000
     18 C14        6.3170    7.1167   -2.3538 C.ar      1 RES1    0.0000
     19 C15        7.7852    7.4018    1.0255 C.2       1 RES1    0.0000
     20 C16        6.3452    7.4089    0.8964 C.1       1 RES1    0.0000
     21 C17        8.2427    7.9881    2.2559 C.1       1 RES1    0.0000
     22 H1        12.0290    5.3189   -2.1033 H         1 RES1    0.0000
     23 H2        13.7686    6.2329   -0.6390 H         1 RES1    0.0000
     24 H3        13.1288    7.5205    1.3864 H         1 RES1    0.0000
     25 H4        10.8105    7.7809    1.9419 H         1 RES1    0.0000
     26 H5         6.6914    4.0543   -1.0662 H         1 RES1    0.0000
     27 H6         3.4575    5.7139   -3.3200 H         1 RES1    0.0000
     28 H7         4.7000    7.6658   -3.4807 H         1 RES1    0.0000
@<TRIPOS>BOND
     1    1    2 1
     2    2    5 1
     3    3   20 3
     4    4   21 3
     5    5    6 ar
     6    6    7 ar
     7    7    8 ar
     8    8    9 ar
     9    9   10 ar
    10   10    5 ar
    11   11   10 1
    12   12    2 2
    13   13   12 1
    14   14   13 ar
    15   15   14 ar
    16   16   15 ar
    17   17   16 ar
    18   18   13 ar
    19   19   11 2
    20   20   19 1
    21   21   19 1
    22   22    6 1
    23   23    7 1
    24   24    8 1
    25   25    9 1
    26   26   14 1
    27   27   16 1
    28   28   17 1
    29   11   12 1
    30   17   18 ar
@<TRIPOS>SUBSTRUCTURE
     1 RES1 1

@<TRIPOS>CRYSIN
  10.9130   17.7120    7.0040  90.0000  99.8500  90.0000  14 1

