# MOL2 file generated by ConQuest
# Please check atom types

@<TRIPOS>MOLECULE
GATWUU
    99   100     1
SMALL
NO_CHARGES
****
Generated from CSD

@<TRIPOS>ATOM
      1 O1         3.8093    4.3912   14.9654 O.2       1 RES1    0.0000
      2 O2         7.2853    1.6135   10.5486 O.3       1 RES1    0.0000
      3 O3         3.3588   10.0293   17.8757 O.3       1 RES1    0.0000
      4 N1         4.7449    4.9131   14.2821 N.pl3     1 RES1    0.0000
      5 N2         5.2123    6.1012   14.3768 N.2       1 RES1    0.0000
      6 C1         5.3993    4.0583   13.2906 C.ar      1 RES1    0.0000
      7 C2         5.0359    2.7231   13.2434 C.ar      1 RES1    0.0000
      8 C3         5.6480    1.8703   12.3369 C.ar      1 RES1    0.0000
      9 C4         6.6237    2.3656   11.4755 C.ar      1 RES1    0.0000
     10 C5         6.9775    3.7132   11.5338 C.ar      1 RES1    0.0000
     11 C6         6.3711    4.5630   12.4346 C.ar      1 RES1    0.0000
     12 C7         6.8824    0.2384   10.3841 C.3       1 RES1    0.0000
     13 C8         7.7297   -0.3496    9.2768 C.3       1 RES1    0.0000
     14 C9         7.3928   -1.8116    9.0246 C.3       1 RES1    0.0000
     15 C10        8.2728   -2.4659    7.9689 C.3       1 RES1    0.0000
     16 C11        7.7844   -3.8574    7.6102 C.3       1 RES1    0.0000
     17 C12        8.6025   -4.6043    6.5461 C.3       1 RES1    0.0000
     18 C13        7.9702   -5.9471    6.2095 C.3       1 RES1    0.0000
     19 C14        8.6992   -6.7581    5.1394 C.3       1 RES1    0.0000
     20 C15        7.9831   -8.0796    4.8774 C.3       1 RES1    0.0000
     21 C16        8.6180   -8.9593    3.8091 C.3       1 RES1    0.0000
     22 C17        7.8642  -10.2654    3.6142 C.3       1 RES1    0.0000
     23 C18        8.4751  -11.1820    2.5597 C.3       1 RES1    0.0000
     24 C19        4.6470    7.0123   15.3032 C.ar      1 RES1    0.0000
     25 C20        3.4951    6.8778   16.0970 C.ar      1 RES1    0.0000
     26 C21        3.1047    7.9074   16.9201 C.ar      1 RES1    0.0000
     27 C22        3.8450    9.0886   17.0065 C.ar      1 RES1    0.0000
     28 C23        4.9752    9.2458   16.2201 C.ar      1 RES1    0.0000
     29 C24        5.3611    8.2179   15.3750 C.ar      1 RES1    0.0000
     30 C25        4.0813   11.2645   18.0259 C.3       1 RES1    0.0000
     31 C26        3.3582   12.0627   19.0904 C.3       1 RES1    0.0000
     32 C27        4.0083   13.4183   19.3585 C.3       1 RES1    0.0000
     33 C28        3.2941   14.2013   20.4532 C.3       1 RES1    0.0000
     34 C29        3.9166   15.5699   20.7398 C.3       1 RES1    0.0000
     35 C30        3.2181   16.3375   21.8609 C.3       1 RES1    0.0000
     36 C31        3.8534   17.6980   22.1249 C.3       1 RES1    0.0000
     37 C32        3.1820   18.5017   23.2331 C.3       1 RES1    0.0000
     38 C33        3.8654   19.8403   23.4788 C.3       1 RES1    0.0000
     39 C34        3.2105   20.7019   24.5519 C.3       1 RES1    0.0000
     40 C35        3.9154   22.0291   24.7551 C.3       1 RES1    0.0000
     41 C36        3.2453   22.9268   25.7850 C.3       1 RES1    0.0000
     42 H1         4.3818    2.3990   13.8207 H         1 RES1    0.0000
     43 H2         5.4077    0.9726   12.3035 H         1 RES1    0.0000
     44 H3         7.6304    4.0420   10.9596 H         1 RES1    0.0000
     45 H4         6.6085    5.4616   12.4692 H         1 RES1    0.0000
     46 H5         5.9424    0.1903   10.1482 H         1 RES1    0.0000
     47 H6         7.0197   -0.2521   11.2083 H         1 RES1    0.0000
     48 H7         8.6664   -0.2736    9.5177 H         1 RES1    0.0000
     49 H8         7.5876    0.1566    8.4602 H         1 RES1    0.0000
     50 H9         6.4664   -1.8767    8.7440 H         1 RES1    0.0000
     51 H10        7.4842   -2.3023    9.8568 H         1 RES1    0.0000
     52 H11        8.2788   -1.9130    7.1716 H         1 RES1    0.0000
     53 H12        9.1824   -2.5211    8.2994 H         1 RES1    0.0000
     54 H13        6.8691   -3.7875    7.2972 H         1 RES1    0.0000
     55 H14        7.7742   -4.3935    8.4175 H         1 RES1    0.0000
     56 H15        8.6566   -4.0634    5.7423 H         1 RES1    0.0000
     57 H16        9.5042   -4.7453    6.8752 H         1 RES1    0.0000
     58 H17        7.0607   -5.7921    5.9106 H         1 RES1    0.0000
     59 H18        7.9259   -6.4776    7.0209 H         1 RES1    0.0000
     60 H19        8.7408   -6.2452    4.3180 H         1 RES1    0.0000
     61 H20        9.6073   -6.9340    5.4308 H         1 RES1    0.0000
     62 H21        7.9491   -8.5803    5.7071 H         1 RES1    0.0000
     63 H22        7.0694   -7.8880    4.6144 H         1 RES1    0.0000
     64 H23        8.6381   -8.4745    2.9691 H         1 RES1    0.0000
     65 H24        9.5344   -9.1544    4.0618 H         1 RES1    0.0000
     66 H25        6.9506  -10.0633    3.3610 H         1 RES1    0.0000
     67 H26        7.8367  -10.7391    4.4612 H         1 RES1    0.0000
     68 H27        8.6138  -10.6886    1.7483 H         1 RES1    0.0000
     69 H28        7.8805  -11.9161    2.3914 H         1 RES1    0.0000
     70 H29        9.3163  -11.5182    2.8787 H         1 RES1    0.0000
     71 H30        2.9971    6.0934   16.0663 H         1 RES1    0.0000
     72 H31        2.3320    7.8161   17.4303 H         1 RES1    0.0000
     73 H32        5.4690   10.0335   16.2598 H         1 RES1    0.0000
     74 H33        6.1140    8.3301   14.8405 H         1 RES1    0.0000
     75 H34        4.0949   11.7529   17.1867 H         1 RES1    0.0000
     76 H35        4.9962   11.0904   18.2969 H         1 RES1    0.0000
     77 H36        3.3438   11.5509   19.9146 H         1 RES1    0.0000
     78 H37        2.4402   12.2017   18.8119 H         1 RES1    0.0000
     79 H38        4.9331   13.2811   19.6182 H         1 RES1    0.0000
     80 H39        4.0038   13.9394   18.5406 H         1 RES1    0.0000
     81 H40        3.3028   13.6764   21.2685 H         1 RES1    0.0000
     82 H41        2.3678   14.3269   20.1934 H         1 RES1    0.0000
     83 H42        4.8490   15.4468   20.9772 H         1 RES1    0.0000
     84 H43        3.8875   16.1032   19.9297 H         1 RES1    0.0000
     85 H44        2.2860   16.4643   21.6252 H         1 RES1    0.0000
     86 H45        3.2499   15.8099   22.6752 H         1 RES1    0.0000
     87 H46        4.7859   17.5658   22.3587 H         1 RES1    0.0000
     88 H47        3.8278   18.2173   21.3062 H         1 RES1    0.0000
     89 H48        2.2548   18.6564   22.9942 H         1 RES1    0.0000
     90 H49        3.1957   17.9835   24.0543 H         1 RES1    0.0000
     91 H50        3.8766   20.3382   22.6476 H         1 RES1    0.0000
     92 H51        4.7861   19.6756   23.7353 H         1 RES1    0.0000
     93 H52        2.2877   20.8691   24.3030 H         1 RES1    0.0000
     94 H53        3.2075   20.2144   25.3906 H         1 RES1    0.0000
     95 H54        3.9486   22.4981   23.9061 H         1 RES1    0.0000
     96 H55        4.8283   21.8591   25.0339 H         1 RES1    0.0000
     97 H56        2.2921   22.8726   25.6870 H         1 RES1    0.0000
     98 H57        3.5304   23.8334   25.6519 H         1 RES1    0.0000
     99 H58        3.4926   22.6398   26.6667 H         1 RES1    0.0000
@<TRIPOS>BOND
     1    1    4 1
     2    2    9 1
     3    3   27 1
     4    4    5 2
     5    5   24 1
     6    6    4 1
     7    7    6 ar
     8    8    7 ar
     9    9    8 ar
    10   10    9 ar
    11   11    6 ar
    12   12    2 1
    13   13   12 1
    14   14   13 1
    15   15   14 1
    16   16   15 1
    17   17   16 1
    18   18   17 1
    19   19   18 1
    20   20   19 1
    21   21   20 1
    22   22   21 1
    23   23   22 1
    24   24   25 ar
    25   25   26 ar
    26   26   27 ar
    27   27   28 ar
    28   28   29 ar
    29   29   24 ar
    30   30    3 1
    31   31   30 1
    32   32   31 1
    33   33   32 1
    34   34   33 1
    35   35   34 1
    36   36   35 1
    37   37   36 1
    38   38   37 1
    39   39   38 1
    40   40   39 1
    41   41   40 1
    42   42    7 1
    43   43    8 1
    44   44   10 1
    45   45   11 1
    46   46   12 1
    47   47   12 1
    48   48   13 1
    49   49   13 1
    50   50   14 1
    51   51   14 1
    52   52   15 1
    53   53   15 1
    54   54   16 1
    55   55   16 1
    56   56   17 1
    57   57   17 1
    58   58   18 1
    59   59   18 1
    60   60   19 1
    61   61   19 1
    62   62   20 1
    63   63   20 1
    64   64   21 1
    65   65   21 1
    66   66   22 1
    67   67   22 1
    68   68   23 1
    69   69   23 1
    70   70   23 1
    71   71   25 1
    72   72   26 1
    73   73   28 1
    74   74   29 1
    75   75   30 1
    76   76   30 1
    77   77   31 1
    78   78   31 1
    79   79   32 1
    80   80   32 1
    81   81   33 1
    82   82   33 1
    83   83   34 1
    84   84   34 1
    85   85   35 1
    86   86   35 1
    87   87   36 1
    88   88   36 1
    89   89   37 1
    90   90   37 1
    91   91   38 1
    92   92   38 1
    93   93   39 1
    94   94   39 1
    95   95   40 1
    96   96   40 1
    97   97   41 1
    98   98   41 1
    99   99   41 1
   100   10   11 ar
@<TRIPOS>SUBSTRUCTURE
     1 RES1 1

@<TRIPOS>CRYSIN
   7.5140    8.8530   25.2100  85.1500  89.3600  86.1900   2 1

