# MOL2 file generated by ConQuest
# Please check atom types

@<TRIPOS>MOLECULE
GAVBAH
    65    69     1
SMALL
NO_CHARGES
****
Generated from CSD

@<TRIPOS>ATOM
      1 O1         1.2174    3.4670    2.9882 O.2       1 RES1    0.0000
      2 O2        -1.4071    7.4154    6.6286 O.2       1 RES1    0.0000
      3 N1         1.2165    4.7002    2.8141 N.2       1 RES1    0.0000
      4 N2         0.6976    5.3957    3.8185 N.3       1 RES1    0.0000
      5 O3        -0.3139    2.6860    6.7243 O.3       1 RES1    0.0000
      6 O4        -1.1620    6.7453    1.7205 O.3       1 RES1    0.0000
      7 C1        -0.3402    7.5398    4.4948 C.3       1 RES1    0.0000
      8 H1        -1.1599    7.3866    3.9429 H         1 RES1    0.0000
      9 C2        -0.5980    6.9233    5.8712 C.2       1 RES1    0.0000
     10 C3         0.8413    6.8722    3.7528 C.3       1 RES1    0.0000
     11 H2         1.6716    7.1068    4.2581 H         1 RES1    0.0000
     12 C4         0.2923    4.6971    5.0522 C.3       1 RES1    0.0000
     13 H3         1.0084    4.0342    5.2706 H         1 RES1    0.0000
     14 C5         1.0273    7.3868    2.3359 C.ar      1 RES1    0.0000
     15 C6         1.5164    6.0905    6.8759 C.ar      1 RES1    0.0000
     16 C7         0.0117    7.3583    1.3646 C.ar      1 RES1    0.0000
     17 C8         0.1882    5.6712    6.2407 C.3       1 RES1    0.0000
     18 H4        -0.3353    5.2026    6.9517 H         1 RES1    0.0000
     19 C9        -0.1239    9.0415    4.5693 C.ar      1 RES1    0.0000
     20 C10        2.2434    7.9894    2.0084 C.ar      1 RES1    0.0000
     21 H5         2.9381    8.0131    2.6569 H         1 RES1    0.0000
     22 C11        0.9415    9.5778    5.2947 C.ar      1 RES1    0.0000
     23 H6         1.5147    9.0028    5.7888 H         1 RES1    0.0000
     24 C12       -1.2742    2.8802    5.7733 C.ar      1 RES1    0.0000
     25 C13        2.7669    5.9087    6.2871 C.ar      1 RES1    0.0000
     26 H7         2.8305    5.5106    5.4273 H         1 RES1    0.0000
     27 C14        2.4634    8.5566    0.7537 C.ar      1 RES1    0.0000
     28 H8         3.3007    8.9535    0.5439 H         1 RES1    0.0000
     29 C15       -0.9547    9.9020    3.8654 C.ar      1 RES1    0.0000
     30 H9        -1.6877    9.5483    3.3751 H         1 RES1    0.0000
     31 C16        1.4427    8.5318   -0.1787 C.ar      1 RES1    0.0000
     32 H10        1.5782    8.9276   -1.0317 H         1 RES1    0.0000
     33 C17        3.9231    6.3074    6.9532 C.ar      1 RES1    0.0000
     34 H11        4.7696    6.1947    6.5374 H         1 RES1    0.0000
     35 C18        0.2237    7.9385    0.1126 C.ar      1 RES1    0.0000
     36 H12       -0.4670    7.9273   -0.5391 H         1 RES1    0.0000
     37 C19       -1.0049    3.9226    4.8600 C.ar      1 RES1    0.0000
     38 C20       -0.7290   11.2762    3.8665 C.ar      1 RES1    0.0000
     39 H13       -1.3066   11.8533    3.3815 H         1 RES1    0.0000
     40 C21       -1.9091    4.1781    3.8430 C.ar      1 RES1    0.0000
     41 H14       -1.7389    4.8817    3.2279 H         1 RES1    0.0000
     42 C22        0.3401   11.8002    4.5764 C.ar      1 RES1    0.0000
     43 H15        0.5043   12.7361    4.5700 H         1 RES1    0.0000
     44 C23       -2.2047    6.6796    0.7352 C.3       1 RES1    0.0000
     45 H16       -2.5078    7.5864    0.5199 H         1 RES1    0.0000
     46 H17       -2.9560    6.1594    1.0893 H         1 RES1    0.0000
     47 H18       -1.8617    6.2487   -0.0752 H         1 RES1    0.0000
     48 C24        1.4540    6.6723    8.1437 C.ar      1 RES1    0.0000
     49 H19        0.6088    6.8130    8.5545 H         1 RES1    0.0000
     50 C25       -3.3123    2.3871    4.6120 C.ar      1 RES1    0.0000
     51 H20       -4.0980    1.8619    4.5204 H         1 RES1    0.0000
     52 C26        2.6084    7.0465    8.8092 C.ar      1 RES1    0.0000
     53 H21        2.5502    7.4289    9.6774 H         1 RES1    0.0000
     54 C27       -2.4303    2.1169    5.6412 C.ar      1 RES1    0.0000
     55 H22       -2.6120    1.4141    6.2543 H         1 RES1    0.0000
     56 C28        3.8484    6.8667    8.2156 C.ar      1 RES1    0.0000
     57 H23        4.6402    7.1256    8.6729 H         1 RES1    0.0000
     58 C29        1.1677   10.9523    5.2963 C.ar      1 RES1    0.0000
     59 H24        1.8933   11.3115    5.7936 H         1 RES1    0.0000
     60 C30       -0.5456    1.6771    7.7144 C.3       1 RES1    0.0000
     61 H25       -1.3917    1.8596    8.1738 H         1 RES1    0.0000
     62 H26        0.1882    1.6833    8.3642 H         1 RES1    0.0000
     63 H27       -0.5912    0.7993    7.2812 H         1 RES1    0.0000
     64 C31       -3.0697    3.4091    3.7139 C.ar      1 RES1    0.0000
     65 H28       -3.6867    3.5875    3.0136 H         1 RES1    0.0000
@<TRIPOS>BOND
     1    1    3 2
     2    2    9 2
     3    3    4 1
     4    4   10 1
     5    5   24 1
     6    6   16 1
     7    7    8 1
     8    9    7 1
     9   10    7 1
    10   11   10 1
    11   12    4 1
    12   13   12 1
    13   14   10 1
    14   15   17 1
    15   16   14 ar
    16   17    9 1
    17   18   17 1
    18   19    7 1
    19   20   14 ar
    20   21   20 1
    21   22   19 ar
    22   23   22 1
    23   24   37 ar
    24   25   15 ar
    25   26   25 1
    26   27   20 ar
    27   28   27 1
    28   29   19 ar
    29   30   29 1
    30   31   27 ar
    31   32   31 1
    32   33   25 ar
    33   34   33 1
    34   35   16 ar
    35   36   35 1
    36   37   12 1
    37   38   29 ar
    38   39   38 1
    39   40   37 ar
    40   41   40 1
    41   42   38 ar
    42   43   42 1
    43   44    6 1
    44   45   44 1
    45   46   44 1
    46   47   44 1
    47   48   15 ar
    48   49   48 1
    49   50   51 1
    50   52   48 ar
    51   53   52 1
    52   54   24 ar
    53   55   54 1
    54   56   33 ar
    55   57   56 1
    56   58   22 ar
    57   59   58 1
    58   60    5 1
    59   61   60 1
    60   62   60 1
    61   63   60 1
    62   64   40 ar
    63   65   64 1
    64   12   17 1
    65   31   35 ar
    66   42   58 ar
    67   50   54 ar
    68   50   64 ar
    69   52   56 ar
@<TRIPOS>SUBSTRUCTURE
     1 RES1 1

@<TRIPOS>CRYSIN
  13.4969   11.7546   16.1467  90.0000  97.8420  90.0000 231 1

