# MOL2 file generated by ConQuest
# Please check atom types

@<TRIPOS>MOLECULE
GAVCEN
    58    62     1
SMALL
NO_CHARGES
****
Generated from CSD

@<TRIPOS>ATOM
      1 O1         3.1621    4.2811    4.8850 O.2       1 RES1    0.0000
      2 O2        -1.5102    0.9482    5.0669 O.3       1 RES1    0.0000
      3 H1        -2.0889    0.4195    5.3088 H         1 RES1    0.0000
      4 N1         3.8553    2.1597    4.3714 N.am      1 RES1    0.0000
      5 N2         0.6450    5.1639    1.1034 N.3       1 RES1    0.0000
      6 O3         4.4950    1.4658    9.7029 O.3       1 RES1    0.0000
      7 N3        -0.4367    0.9170    5.9735 N.2       1 RES1    0.0000
      8 C1         1.3546    4.3100    0.2925 C.ar      1 RES1    0.0000
      9 C2         0.7055    4.6837    2.3914 C.2       1 RES1    0.0000
     10 H2         0.3059    5.0887    3.1271 H         1 RES1    0.0000
     11 C3         1.9909    1.2561    3.3914 C.ar      1 RES1    0.0000
     12 C4         0.4541    2.8221    4.6581 C.3       1 RES1    0.0000
     13 H3         0.4521    3.7085    5.0512 H         1 RES1    0.0000
     14 H4        -0.3663    2.7234    4.1508 H         1 RES1    0.0000
     15 C5         3.2945    0.9940    3.8112 C.ar      1 RES1    0.0000
     16 C6         2.9609    3.1779    4.3886 C.2       1 RES1    0.0000
     17 C7         1.5884    1.7151    6.7425 C.ar      1 RES1    0.0000
     18 C8         1.4331    3.5313    2.4407 C.2       1 RES1    0.0000
     19 C9         1.5637    4.3822   -1.0839 C.ar      1 RES1    0.0000
     20 H5         1.1701    5.0506   -1.5971 H         1 RES1    0.0000
     21 C10        1.6655    2.7027    3.6902 C.3       1 RES1    0.0000
     22 C11        2.3675    3.4352   -1.6491 C.ar      1 RES1    0.0000
     23 H6         2.5371    3.4649   -2.5626 H         1 RES1    0.0000
     24 C12        0.4719    1.7994    5.7584 C.2       1 RES1    0.0000
     25 C13        3.5595    1.4713    8.7047 C.ar      1 RES1    0.0000
     26 C14        1.9525    2.8051    7.5231 C.ar      1 RES1    0.0000
     27 H7         1.5374    3.6269    7.3898 H         1 RES1    0.0000
     28 C15        5.1512    2.2065    5.0210 C.3       1 RES1    0.0000
     29 H8         5.1540    1.6090    5.7725 H         1 RES1    0.0000
     30 H9         5.3255    3.1015    5.3223 H         1 RES1    0.0000
     31 H10        5.8311    1.9406    4.3972 H         1 RES1    0.0000
     32 C16        3.8738   -0.2510    3.6855 C.ar      1 RES1    0.0000
     33 H11        4.7438   -0.4142    3.9693 H         1 RES1    0.0000
     34 C17        1.8869    3.2856    1.0902 C.ar      1 RES1    0.0000
     35 C18        3.2288    0.3844    7.9299 C.ar      1 RES1    0.0000
     36 H12        3.6604   -0.4290    8.0551 H         1 RES1    0.0000
     37 C19        2.9199    2.6790    8.4908 C.ar      1 RES1    0.0000
     38 H13        3.1479    3.4161    9.0094 H         1 RES1    0.0000
     39 C20        2.9355    2.4268   -0.8828 C.ar      1 RES1    0.0000
     40 H14        3.4841    1.7976   -1.2925 H         1 RES1    0.0000
     41 C21        2.2439    0.5103    6.9573 C.ar      1 RES1    0.0000
     42 H15        2.0187   -0.2288    6.4401 H         1 RES1    0.0000
     43 C22        1.2393    0.2573    2.8258 C.ar      1 RES1    0.0000
     44 H16        0.3702    0.4216    2.5379 H         1 RES1    0.0000
     45 C23       -0.1004    6.3291    0.6760 C.3       1 RES1    0.0000
     46 H17        0.5047    6.9838    0.3226 H         1 RES1    0.0000
     47 H18       -0.5709    6.6999    1.4269 H         1 RES1    0.0000
     48 H19       -0.7297    6.0749   -0.0022 H         1 RES1    0.0000
     49 C24        2.7037    2.3357    0.4731 C.ar      1 RES1    0.0000
     50 H20        3.0875    1.6493    0.9722 H         1 RES1    0.0000
     51 C25        1.8054   -1.0042    2.6914 C.ar      1 RES1    0.0000
     52 H21        1.3075   -1.6927    2.3117 H         1 RES1    0.0000
     53 C26        3.0963   -1.2489    3.1132 C.ar      1 RES1    0.0000
     54 H22        3.4539   -2.1016    3.0128 H         1 RES1    0.0000
     55 C27        5.1910    0.2436    9.9602 C.3       1 RES1    0.0000
     56 H23        5.6587   -0.0318    9.1684 H         1 RES1    0.0000
     57 H24        4.5616   -0.4364   10.2123 H         1 RES1    0.0000
     58 H25        5.8194    0.3771   10.6737 H         1 RES1    0.0000
@<TRIPOS>BOND
     1    1   16 2
     2    2    3 1
     3    4   15 1
     4    5    8 1
     5    6   25 1
     6    7    2 1
     7    8   19 ar
     8    9    5 1
     9   10    9 1
    10   11   15 ar
    11   12   13 1
    12   14   12 1
    13   15   32 ar
    14   16    4 1
    15   17   24 1
    16   18    9 2
    17   19   20 1
    18   21   11 1
    19   22   19 ar
    20   23   22 1
    21   24    7 2
    22   25   35 ar
    23   26   17 ar
    24   27   26 1
    25   28    4 1
    26   29   28 1
    27   30   28 1
    28   31   28 1
    29   32   33 1
    30   34    8 ar
    31   35   36 1
    32   37   25 ar
    33   38   37 1
    34   39   22 ar
    35   40   39 1
    36   41   17 ar
    37   42   41 1
    38   43   11 ar
    39   44   43 1
    40   45    5 1
    41   46   45 1
    42   47   45 1
    43   48   45 1
    44   49   34 ar
    45   50   49 1
    46   51   43 ar
    47   52   51 1
    48   53   32 ar
    49   54   53 1
    50   55    6 1
    51   56   55 1
    52   57   55 1
    53   58   55 1
    54   12   21 1
    55   12   24 1
    56   16   21 1
    57   18   21 1
    58   18   34 1
    59   26   37 ar
    60   35   41 ar
    61   39   49 ar
    62   51   53 ar
@<TRIPOS>SUBSTRUCTURE
     1 RES1 1

@<TRIPOS>CRYSIN
   9.7429   10.5927   22.4002  90.0000  90.0000  90.0000  19 1

