# MOL2 file generated by ConQuest
# Please check atom types

@<TRIPOS>MOLECULE
GAVGIU
    32    33     1
SMALL
NO_CHARGES
****
Generated from CSD

@<TRIPOS>ATOM
      1 O1         1.0541   -2.8956   -3.9779 O.2       1 RES1    0.0000
      2 O2         1.2989   -1.4542   -2.4243 O.2       1 RES1    0.0000
      3 O3         2.9776    2.1872    3.5223 O.3       1 RES1    0.0000
      4 H1         2.7998    2.8676    3.9452 H         1 RES1    0.0000
      5 N1         1.2266   -2.5997   -2.8105 N.pl3     1 RES1    0.0000
      6 N2         3.8959    0.0232    2.1958 N.2       1 RES1    0.0000
      7 C1         1.3444   -3.6826   -1.8259 C.ar      1 RES1    0.0000
      8 C2         0.6964   -4.8629   -2.1251 C.ar      1 RES1    0.0000
      9 H2         0.2777   -4.9753   -2.9479 H         1 RES1    0.0000
     10 C3         0.6764   -5.8673   -1.1942 C.ar      1 RES1    0.0000
     11 H3         0.2410   -6.6680   -1.3808 H         1 RES1    0.0000
     12 C4         1.3038   -5.6877    0.0207 C.ar      1 RES1    0.0000
     13 H4         1.2734   -6.3609    0.6622 H         1 RES1    0.0000
     14 C5         1.9796   -4.5112    0.2884 C.ar      1 RES1    0.0000
     15 H5         2.4120   -4.4154    1.1053 H         1 RES1    0.0000
     16 C6         2.0314   -3.4698   -0.6262 C.ar      1 RES1    0.0000
     17 C7         2.8249   -2.2707   -0.3432 C.2       1 RES1    0.0000
     18 H6         3.2209   -1.8383   -1.0661 H         1 RES1    0.0000
     19 C8         3.0255   -1.7530    0.8620 C.2       1 RES1    0.0000
     20 H7         2.6417   -2.1696    1.6000 H         1 RES1    0.0000
     21 C9         3.8177   -0.5660    1.0644 C.2       1 RES1    0.0000
     22 H8         4.2898   -0.2151    0.3444 H         1 RES1    0.0000
     23 C10        4.7255    1.1637    2.3236 C.ar      1 RES1    0.0000
     24 C11        4.2596    2.2534    3.0724 C.ar      1 RES1    0.0000
     25 C12        5.0818    3.3461    3.2850 C.ar      1 RES1    0.0000
     26 H9         4.7664    4.0766    3.7683 H         1 RES1    0.0000
     27 C13        6.3656    3.3559    2.7831 C.ar      1 RES1    0.0000
     28 H10        6.9193    4.0849    2.9448 H         1 RES1    0.0000
     29 C14        6.8325    2.2926    2.0434 C.ar      1 RES1    0.0000
     30 H11        7.6982    2.3062    1.7018 H         1 RES1    0.0000
     31 C15        6.0145    1.2082    1.8096 C.ar      1 RES1    0.0000
     32 H12        6.3298    0.4966    1.3010 H         1 RES1    0.0000
@<TRIPOS>BOND
     1    1    5 2
     2    2    5 2
     3    3    4 1
     4    5    7 1
     5    6   21 2
     6    7    8 ar
     7    8    9 1
     8   10    8 ar
     9   11   10 1
    10   12   10 ar
    11   13   12 1
    12   14   12 ar
    13   15   14 1
    14   16    7 ar
    15   17   16 1
    16   18   17 1
    17   19   17 2
    18   20   19 1
    19   21   19 1
    20   22   21 1
    21   23    6 1
    22   24    3 1
    23   25   24 ar
    24   26   25 1
    25   27   25 ar
    26   28   27 1
    27   29   27 ar
    28   30   29 1
    29   31   23 ar
    30   32   31 1
    31   14   16 ar
    32   23   24 ar
    33   29   31 ar
@<TRIPOS>SUBSTRUCTURE
     1 RES1 1

@<TRIPOS>CRYSIN
  22.6540    7.5464   18.8160  90.0000 123.6920  90.0000  15 1

