# MOL2 file generated by ConQuest
# Please check atom types

@<TRIPOS>MOLECULE
GAVHIV
    55    59     1
SMALL
NO_CHARGES
****
Generated from CSD

@<TRIPOS>ATOM
      1 C1         0.5468   10.7394    5.1106 C.ar      1 RES1    0.0000
      2 C2        -0.1332   11.6454    5.9390 C.ar      1 RES1    0.0000
      3 H1        -0.7947   11.3504    6.5226 H         1 RES1    0.0000
      4 C3         1.5197   11.1265    4.2361 C.ar      1 RES1    0.0000
      5 H2         1.9570   10.5042    3.7019 H         1 RES1    0.0000
      6 C4         1.8325   12.4423    4.1673 C.ar      1 RES1    0.0000
      7 H3         2.4867   12.7206    3.5669 H         1 RES1    0.0000
      8 C5         1.1992   13.3971    4.9748 C.ar      1 RES1    0.0000
      9 C6         0.1986   12.9791    5.8703 C.ar      1 RES1    0.0000
     10 C7        -0.4672   13.9674    6.7951 C.3       1 RES1    0.0000
     11 H4        -0.9040   14.6558    6.2677 H         1 RES1    0.0000
     12 H5        -1.1490   13.5106    7.3133 H         1 RES1    0.0000
     13 C8         1.6017   14.8409    4.8800 C.3       1 RES1    0.0000
     14 H6         2.2657   14.9345    4.1782 H         1 RES1    0.0000
     15 H7         0.8273   15.3665    4.6251 H         1 RES1    0.0000
     16 C9         1.0217   13.9206    8.7782 C.2       1 RES1    0.0000
     17 C10        3.4613   15.1697    6.4698 C.2       1 RES1    0.0000
     18 C11        1.3201   15.6866    7.2655 C.3       1 RES1    0.0000
     19 C12        0.4481   16.9257    7.0056 C.2       1 RES1    0.0000
     20 C13       -1.2009   18.3187    8.0193 C.3       1 RES1    0.0000
     21 H8        -1.2716   18.7333    8.8930 H         1 RES1    0.0000
     22 H9        -0.8635   18.9813    7.3972 H         1 RES1    0.0000
     23 C14       -2.5097   17.8718    7.5892 C.3       1 RES1    0.0000
     24 H10       -2.4955   17.7031    6.6442 H         1 RES1    0.0000
     25 H11       -3.1595   18.5518    7.7820 H         1 RES1    0.0000
     26 H12       -2.7418   17.0665    8.0554 H         1 RES1    0.0000
     27 C15        2.3594   15.8124    8.4294 C.3       1 RES1    0.0000
     28 C16        2.3716   17.1261    9.2091 C.2       1 RES1    0.0000
     29 C17        2.6266   19.4821    9.0163 C.3       1 RES1    0.0000
     30 H13        2.2563   20.1368    8.4034 H         1 RES1    0.0000
     31 H14        2.0951   19.4951    9.8280 H         1 RES1    0.0000
     32 C18        4.0090   19.8303    9.3299 C.3       1 RES1    0.0000
     33 H15        4.3396   19.2420   10.0133 H         1 RES1    0.0000
     34 H16        4.0464   20.7375    9.6435 H         1 RES1    0.0000
     35 H17        4.5478   19.7405    8.5417 H         1 RES1    0.0000
     36 C19        3.1350   14.1397   10.0686 C.3       1 RES1    0.0000
     37 H18        3.3806   14.7581   10.7738 H         1 RES1    0.0000
     38 H19        2.8441   13.3137   10.4837 H         1 RES1    0.0000
     39 C20        4.6917   15.0674    8.6004 C.3       1 RES1    0.0000
     40 H20        5.4668   14.8680    8.0520 H         1 RES1    0.0000
     41 H21        4.9541   15.7244    9.2645 H         1 RES1    0.0000
     42 N1         0.2129    9.3219    5.2397 N.pl3     1 RES1    0.0000
     43 N2         0.4897   14.5940    7.7049 N.am      1 RES1    0.0000
     44 N3         2.1496   15.3801    6.1235 N.am      1 RES1    0.0000
     45 N4         2.0422   14.7006    9.2930 N.am      1 RES1    0.0000
     46 N5         3.6438   15.6219    7.7661 N.am      1 RES1    0.0000
     47 O1        -0.7461    8.9875    5.8669 O.2       1 RES1    0.0000
     48 O2         0.9163    8.5169    4.6335 O.2       1 RES1    0.0000
     49 O3         0.6170   12.8822    9.2351 O.2       1 RES1    0.0000
     50 O4         4.3176   14.7249    5.7378 O.2       1 RES1    0.0000
     51 O5         0.4150   17.5067    5.9650 O.2       1 RES1    0.0000
     52 O6        -0.2726   17.1938    8.0856 O.3       1 RES1    0.0000
     53 O7         2.2514   17.1759   10.3990 O.2       1 RES1    0.0000
     54 O8         2.5651   18.1458    8.4067 O.3       1 RES1    0.0000
     55 O9         4.2621   13.8851    9.2519 O.3       1 RES1    0.0000
@<TRIPOS>BOND
     1    1    2 ar
     2    2    3 1
     3    4    1 ar
     4    5    4 1
     5    6    4 ar
     6    7    6 1
     7    8    6 ar
     8    9    2 ar
     9   10    9 1
    10   11   10 1
    11   12   10 1
    12   13    8 1
    13   14   13 1
    14   15   13 1
    15   16   43 1
    16   17   44 1
    17   18   19 1
    18   19   51 2
    19   20   21 1
    20   22   20 1
    21   23   20 1
    22   24   23 1
    23   25   23 1
    24   26   23 1
    25   27   18 1
    26   28   27 1
    27   29   30 1
    28   31   29 1
    29   32   29 1
    30   33   32 1
    31   34   32 1
    32   35   32 1
    33   36   37 1
    34   38   36 1
    35   39   40 1
    36   41   39 1
    37   42    1 1
    38   43   10 1
    39   44   13 1
    40   45   16 1
    41   46   17 1
    42   47   42 2
    43   48   42 2
    44   49   16 2
    45   50   17 2
    46   52   19 1
    47   53   28 2
    48   54   28 1
    49   55   36 1
    50    8    9 ar
    51   18   43 1
    52   18   44 1
    53   20   52 1
    54   27   45 1
    55   27   46 1
    56   29   54 1
    57   36   45 1
    58   39   46 1
    59   39   55 1
@<TRIPOS>SUBSTRUCTURE
     1 RES1 1

@<TRIPOS>CRYSIN
  10.0454   25.5640    8.4997  90.0000  99.4270  90.0000  14 1

