# MOL2 file generated by ConQuest
# Please check atom types

@<TRIPOS>MOLECULE
GAVKUJ
    30    29     1
SMALL
NO_CHARGES
****
Generated from CSD

@<TRIPOS>ATOM
      1 O1         0.8455    8.8800    3.6492 O.2       1 RES1    0.0000
      2 N1         0.0888    9.4813    4.4651 N.pl3     1 RES1    0.0000
      3 C1        -0.4912    8.7209    5.6637 C.3       1 RES1    0.0000
      4 C2        -2.0078    8.7086    5.5406 C.3       1 RES1    0.0000
      5 C3         0.0509    7.3161    5.5695 C.3       1 RES1    0.0000
      6 C4        -0.0068    9.3708    6.9397 C.3       1 RES1    0.0000
      7 H1        -2.3043    8.1806    6.2214 H         1 RES1    0.0000
      8 H2        -2.2413    8.3020    4.6813 H         1 RES1    0.0000
      9 H3        -2.4038    9.5761    5.7051 H         1 RES1    0.0000
     10 H4        -0.3018    6.8559    6.3264 H         1 RES1    0.0000
     11 H5         1.0374    7.2604    5.5301 H         1 RES1    0.0000
     12 H6        -0.2155    6.8964    4.8213 H         1 RES1    0.0000
     13 H7        -0.2609    8.8379    7.6476 H         1 RES1    0.0000
     14 H8        -0.3771   10.2536    7.0526 H         1 RES1    0.0000
     15 H9         0.9291    9.4345    6.9214 H         1 RES1    0.0000
     16 N1B       -0.2110   10.7427    4.2850 N.pl3     1 RES1    0.0000
     17 O1B       -0.9677   11.3440    5.1010 O.2       1 RES1    0.0000
     18 C1B        0.3690   11.5031    3.0864 C.3       1 RES1    0.0000
     19 C2B        1.8857   11.5154    3.2096 C.3       1 RES1    0.0000
     20 C3B       -0.1731   12.9079    3.1807 C.3       1 RES1    0.0000
     21 C4B       -0.1154   10.8532    1.8104 C.3       1 RES1    0.0000
     22 H1B        2.1821   12.0434    2.5288 H         1 RES1    0.0000
     23 H2B        2.1191   11.9220    4.0688 H         1 RES1    0.0000
     24 H3B        2.2816   10.6479    3.0451 H         1 RES1    0.0000
     25 H4B        0.1796   13.3681    2.4238 H         1 RES1    0.0000
     26 H5B       -1.1596   12.9636    3.2201 H         1 RES1    0.0000
     27 H6B        0.0934   13.3276    3.9288 H         1 RES1    0.0000
     28 H7B        0.1388   11.3861    1.1025 H         1 RES1    0.0000
     29 H8B        0.2550    9.9704    1.6975 H         1 RES1    0.0000
     30 H9B       -1.0513   10.7895    1.8288 H         1 RES1    0.0000
@<TRIPOS>BOND
     1    1    2 1
     2    2    3 1
     3    3    4 1
     4    4    7 1
     5    5    3 1
     6    6    3 1
     7    8    4 1
     8    9    4 1
     9   10    5 1
    10   11    5 1
    11   12    5 1
    12   13    6 1
    13   14    6 1
    14   15    6 1
    15   16    2 2
    16   17   16 1
    17   18   16 1
    18   19   18 1
    19   20   18 1
    20   21   18 1
    21   22   19 1
    22   23   19 1
    23   24   19 1
    24   25   20 1
    25   26   20 1
    26   27   20 1
    27   28   21 1
    28   29   21 1
    29   30   21 1
@<TRIPOS>SUBSTRUCTURE
     1 RES1 1

@<TRIPOS>CRYSIN
   5.9290   10.1120    8.7510  90.0000  90.8000  90.0000 231 1

