# MOL2 file generated by ConQuest
# Please check atom types

@<TRIPOS>MOLECULE
GAVLIB
    27    28     1
SMALL
NO_CHARGES
****
Generated from CSD

@<TRIPOS>ATOM
      1 O1         0.3857   10.6561    2.3450 O.3       1 RES1    0.0000
      2 O2        -2.3911   12.6904    0.2183 O.3       1 RES1    0.0000
      3 O3        -3.3388   10.6873   -0.1993 O.2       1 RES1    0.0000
      4 C1        -2.4730   11.3592    0.2966 C.2       1 RES1    0.0000
      5 C2         0.8339    8.3129    2.6408 C.ar      1 RES1    0.0000
      6 N1        -0.4984   11.5475    1.7217 N.2       1 RES1    0.0000
      7 C3         2.6899    7.6111    4.0022 C.ar      1 RES1    0.0000
      8 H1         3.4120    7.8265    4.5477 H         1 RES1    0.0000
      9 C4         0.0144    9.3767    2.0411 C.2       1 RES1    0.0000
     10 C5        -1.3482   10.7750    1.0781 C.2       1 RES1    0.0000
     11 C6         1.9052    8.6177    3.4589 C.ar      1 RES1    0.0000
     12 H2         2.1020    9.5069    3.6472 H         1 RES1    0.0000
     13 C7         2.3961    6.2808    3.7302 C.ar      1 RES1    0.0000
     14 H3         2.9256    5.6044    4.0869 H         1 RES1    0.0000
     15 C8         0.5249    6.9648    2.3755 C.ar      1 RES1    0.0000
     16 H4        -0.2002    6.7451    1.8363 H         1 RES1    0.0000
     17 C9        -3.1493   14.8234   -0.4894 C.3       1 RES1    0.0000
     18 H5        -3.1894   15.1248    0.4212 H         1 RES1    0.0000
     19 H6        -3.7964   15.3007   -1.0134 H         1 RES1    0.0000
     20 H7        -2.2706   14.9848   -0.8412 H         1 RES1    0.0000
     21 C10       -1.0675    9.4000    1.2473 C.2       1 RES1    0.0000
     22 H8        -1.5280    8.6756    0.8894 H         1 RES1    0.0000
     23 C11       -3.4472   13.3525   -0.5434 C.3       1 RES1    0.0000
     24 H9        -4.3151   13.1679   -0.1510 H         1 RES1    0.0000
     25 H10       -3.4497   13.0405   -1.4619 H         1 RES1    0.0000
     26 C12        1.3185    5.9656    2.9305 C.ar      1 RES1    0.0000
     27 H11        1.1194    5.0734    2.7597 H         1 RES1    0.0000
@<TRIPOS>BOND
     1    1    6 1
     2    2    4 1
     3    3    4 2
     4    4   10 1
     5    5    9 1
     6    6   10 2
     7    7    8 1
     8    9    1 1
     9   10   21 1
    10   11    5 ar
    11   12   11 1
    12   13    7 ar
    13   14   13 1
    14   15    5 ar
    15   16   15 1
    16   17   18 1
    17   19   17 1
    18   20   17 1
    19   21    9 2
    20   22   21 1
    21   23    2 1
    22   24   23 1
    23   25   23 1
    24   26   13 ar
    25   27   26 1
    26    7   11 ar
    27   15   26 ar
    28   17   23 1
@<TRIPOS>SUBSTRUCTURE
     1 RES1 1

@<TRIPOS>CRYSIN
   5.4447   17.1800   11.7603  90.0000  94.5080  90.0000 231 1

