# MOL2 file generated by ConQuest
# Please check atom types

@<TRIPOS>MOLECULE
GAVMEW
    44    47     1
SMALL
NO_CHARGES
****
Generated from CSD

@<TRIPOS>ATOM
      1 O1         6.6966   -0.5975   16.2751 O.2       1 RES1    0.0000
      2 O2         5.2377   -0.6264   14.7086 O.2       1 RES1    0.0000
      3 O3         5.5229    1.3790   11.8376 O.2       1 RES1    0.0000
      4 N1         8.2739    1.7329   12.9073 N.3       1 RES1    0.0000
      5 N2         6.2369   -0.1789   15.2375 N.pl3     1 RES1    0.0000
      6 N3         6.2946   -0.7705   11.6145 N.am      1 RES1    0.0000
      7 H1         5.7412   -1.0476   11.0176 H         1 RES1    0.0000
      8 C1         8.9429    2.1219   14.1518 C.3       1 RES1    0.0000
      9 H2         8.9992    3.0886   14.2180 H         1 RES1    0.0000
     10 H3         9.8401    1.7548   14.1836 H         1 RES1    0.0000
     11 C2         8.0894    1.5525   15.2980 C.3       1 RES1    0.0000
     12 H4         8.5817    0.8124   15.7097 H         1 RES1    0.0000
     13 C3         6.8943    0.9736   14.5459 C.3       1 RES1    0.0000
     14 H5         6.2298    1.6841   14.4240 H         1 RES1    0.0000
     15 C4         7.4407    0.5710   13.1630 C.3       1 RES1    0.0000
     16 C5         9.1443    1.6532   11.7513 C.3       1 RES1    0.0000
     17 H6         9.8253    0.9950   11.9084 H         1 RES1    0.0000
     18 H7         9.5549    2.5080   11.5993 H         1 RES1    0.0000
     19 H8         8.6301    1.4045   10.9790 H         1 RES1    0.0000
     20 C6         7.6958    2.5264   16.3873 C.ar      1 RES1    0.0000
     21 C7         7.0707    3.7193   16.0853 C.ar      1 RES1    0.0000
     22 H9         6.9177    3.9421   15.1946 H         1 RES1    0.0000
     23 C8         6.6680    4.5874   17.0774 C.ar      1 RES1    0.0000
     24 H10        6.2386    5.3795   16.8452 H         1 RES1    0.0000
     25 C9         6.8920    4.3016   18.4069 C.ar      1 RES1    0.0000
     26 C10        7.5276    3.1175   18.7018 C.ar      1 RES1    0.0000
     27 H11        7.6934    2.9044   19.5926 H         1 RES1    0.0000
     28 C11        7.9244    2.2390   17.7175 C.ar      1 RES1    0.0000
     29 H12        8.3498    1.4456   17.9506 H         1 RES1    0.0000
     30 C12        6.4508    5.2690   19.4851 C.3       1 RES1    0.0000
     31 H13        5.5004    5.2002   19.6076 H         1 RES1    0.0000
     32 H14        6.6749    6.1640   19.2234 H         1 RES1    0.0000
     33 H15        6.8960    5.0555   20.3074 H         1 RES1    0.0000
     34 C13        6.2900    0.4748   12.1258 C.2       1 RES1    0.0000
     35 C14        7.3134   -1.5658   12.1748 C.ar      1 RES1    0.0000
     36 C15        7.5997   -2.8859   11.9123 C.ar      1 RES1    0.0000
     37 H16        7.0835   -3.3829   11.3181 H         1 RES1    0.0000
     38 C16        8.6834   -3.4472   12.5622 C.ar      1 RES1    0.0000
     39 H17        8.9044   -4.3352   12.3978 H         1 RES1    0.0000
     40 C17        9.4384   -2.7129   13.4476 C.ar      1 RES1    0.0000
     41 H18       10.1707   -3.1066   13.8638 H         1 RES1    0.0000
     42 C18        9.1196   -1.3912   13.7251 C.ar      1 RES1    0.0000
     43 H19        9.6230   -0.9012   14.3339 H         1 RES1    0.0000
     44 C19        8.0443   -0.8156   13.0840 C.ar      1 RES1    0.0000
@<TRIPOS>BOND
     1    1    5 2
     2    2    5 2
     3    3   34 2
     4    4    8 1
     5    5   13 1
     6    6    7 1
     7    8    9 1
     8   10    8 1
     9   11    8 1
    10   12   11 1
    11   13   11 1
    12   14   13 1
    13   15    4 1
    14   16    4 1
    15   17   16 1
    16   18   16 1
    17   19   16 1
    18   20   11 1
    19   21   20 ar
    20   22   21 1
    21   23   21 ar
    22   24   23 1
    23   25   23 ar
    24   26   25 ar
    25   27   26 1
    26   28   20 ar
    27   29   28 1
    28   30   25 1
    29   31   30 1
    30   32   30 1
    31   33   30 1
    32   34    6 1
    33   35    6 1
    34   36   35 ar
    35   37   36 1
    36   38   36 ar
    37   39   38 1
    38   40   38 ar
    39   41   40 1
    40   42   40 ar
    41   43   42 1
    42   44   15 1
    43   13   15 1
    44   15   34 1
    45   26   28 ar
    46   35   44 ar
    47   42   44 ar
@<TRIPOS>SUBSTRUCTURE
     1 RES1 1

@<TRIPOS>CRYSIN
   9.8697   16.4460   21.4643  90.0000  90.0000  90.0000  61 1

