# MOL2 file generated by ConQuest
# Please check atom types

@<TRIPOS>MOLECULE
GAVQIE
    26    26     1
SMALL
NO_CHARGES
****
Generated from CSD

@<TRIPOS>ATOM
      1 C1         2.0041    1.6835    2.5065 C.ar      1 RES1    0.0000
      2 C2         2.9250    2.1496    3.4498 C.ar      1 RES1    0.0000
      3 N1         3.4779    1.2672    4.4952 N.pl3     1 RES1    0.0000
      4 O1         2.7371    0.4610    5.0352 O.2       1 RES1    0.0000
      5 O2         4.6586    1.4414    4.8006 O.2       1 RES1    0.0000
      6 C3         3.3352    3.4714    3.5153 C.ar      1 RES1    0.0000
      7 C4         2.7626    4.3895    2.6593 C.ar      1 RES1    0.0000
      8 C5         1.8049    3.9390    1.7578 C.ar      1 RES1    0.0000
      9 C6         1.4258    2.6067    1.6069 C.ar      1 RES1    0.0000
     10 C7         0.5118    2.1002    0.5221 C.3       1 RES1    0.0000
     11 N2         1.1900    4.9923    0.9209 N.pl3     1 RES1    0.0000
     12 O3         1.8860    5.9567    0.6271 O.2       1 RES1    0.0000
     13 O4         0.0196    4.8590    0.5937 O.2       1 RES1    0.0000
     14 N3         1.6408    0.3243    2.3956 N.am      1 RES1    0.0000
     15 C8         2.5278   -0.7010    2.3249 C.2       1 RES1    0.0000
     16 O5         3.7396   -0.5464    2.4566 O.2       1 RES1    0.0000
     17 C9         1.9157   -2.0536    2.0708 C.3       1 RES1    0.0000
     18 H1         3.9757    3.7493    4.1390 H         1 RES1    0.0000
     19 H2         3.0002    5.3036    2.6877 H         1 RES1    0.0000
     20 H3         0.9383   -2.0116    2.1817 H         1 RES1    0.0000
     21 H4         2.1054   -2.2821    1.1723 H         1 RES1    0.0000
     22 H5         2.2903   -2.7053    2.6669 H         1 RES1    0.0000
     23 H6         0.8235    0.1387    2.3004 H         1 RES1    0.0000
     24 H7         0.8245    1.2157    0.1984 H         1 RES1    0.0000
     25 H8        -0.4032    2.0128    0.8699 H         1 RES1    0.0000
     26 H9         0.5101    2.7441   -0.2426 H         1 RES1    0.0000
@<TRIPOS>BOND
     1    1    2 ar
     2    2    3 1
     3    3    4 2
     4    5    3 2
     5    6    2 ar
     6    7    6 ar
     7    8    7 ar
     8    9    1 ar
     9   10    9 1
    10   11    8 1
    11   12   11 2
    12   13   11 2
    13   14    1 1
    14   15   14 1
    15   16   15 2
    16   17   15 1
    17   18    6 1
    18   19    7 1
    19   20   17 1
    20   21   17 1
    21   22   17 1
    22   23   14 1
    23   24   10 1
    24   25   10 1
    25   26   10 1
    26    8    9 ar
@<TRIPOS>SUBSTRUCTURE
     1 RES1 1

@<TRIPOS>CRYSIN
   4.9309   11.7571    8.7944  90.0000  99.8608  90.0000   4 1

