# MOL2 file generated by ConQuest
# Please check atom types

@<TRIPOS>MOLECULE
GAVVAB
    43    45     1
SMALL
NO_CHARGES
****
Generated from CSD

@<TRIPOS>ATOM
      1 O1         1.8735   17.4407    1.3736 O.3       1 RES1    0.0000
      2 O2        11.6082    9.4519   -2.7278 O.2       1 RES1    0.0000
      3 O3        11.4430   11.4410   -3.5819 O.2       1 RES1    0.0000
      4 N1         5.7462   12.5156    0.1632 N.2       1 RES1    0.0000
      5 N2         6.3649   11.2966    0.1014 N.pl3     1 RES1    0.0000
      6 H1         6.0369   10.6288    0.5324 H         1 RES1    0.0000
      7 N3        11.0300   10.5383   -2.8609 N.pl3     1 RES1    0.0000
      8 C1        -0.7529   19.5797    2.0068 C.ar      1 RES1    0.0000
      9 H2        -1.3583   19.0695    1.5188 H         1 RES1    0.0000
     10 C2        -1.0485   20.8988    2.2825 C.ar      1 RES1    0.0000
     11 H3        -1.8476   21.2686    1.9831 H         1 RES1    0.0000
     12 C3        -0.1638   21.6644    2.9964 C.ar      1 RES1    0.0000
     13 H4        -0.3592   22.5550    3.1826 H         1 RES1    0.0000
     14 C4         1.0200   21.1051    3.4377 C.ar      1 RES1    0.0000
     15 H5         1.6236   21.6204    3.9241 H         1 RES1    0.0000
     16 C5         1.3085   19.7857    3.1572 C.ar      1 RES1    0.0000
     17 H6         2.1096   19.4177    3.4543 H         1 RES1    0.0000
     18 C6         0.4227   19.0002    2.4410 C.ar      1 RES1    0.0000
     19 C7         0.7155   17.5496    2.2112 C.3       1 RES1    0.0000
     20 H7         0.8775   17.1050    3.0582 H         1 RES1    0.0000
     21 H8        -0.0430   17.1233    1.7834 H         1 RES1    0.0000
     22 C8         2.4638   16.2052    1.2534 C.ar      1 RES1    0.0000
     23 C9         1.9849   15.0320    1.8072 C.ar      1 RES1    0.0000
     24 H9         1.1790   15.0269    2.2715 H         1 RES1    0.0000
     25 C10        2.7148   13.8665    1.6662 C.ar      1 RES1    0.0000
     26 H10        2.3899   13.0844    2.0480 H         1 RES1    0.0000
     27 C11        3.9149   13.8259    0.9729 C.ar      1 RES1    0.0000
     28 C12        4.3539   15.0122    0.3779 C.ar      1 RES1    0.0000
     29 H11        5.1420   15.0122   -0.1157 H         1 RES1    0.0000
     30 C13        3.6424   16.1767    0.5102 C.ar      1 RES1    0.0000
     31 H12        3.9488   16.9548    0.1006 H         1 RES1    0.0000
     32 C14        4.6663   12.5904    0.8525 C.2       1 RES1    0.0000
     33 H13        4.3553   11.8309    1.2874 H         1 RES1    0.0000
     34 C15        7.5011   11.1324   -0.6425 C.ar      1 RES1    0.0000
     35 C16        8.0958    9.8635   -0.6948 C.ar      1 RES1    0.0000
     36 H14        7.7100    9.1481   -0.2440 H         1 RES1    0.0000
     37 C17        9.2502    9.6828   -1.4150 C.ar      1 RES1    0.0000
     38 H15        9.6574    8.8476   -1.4388 H         1 RES1    0.0000
     39 C18        9.8063   10.7424   -2.1043 C.ar      1 RES1    0.0000
     40 C19        9.2254   11.9871   -2.0766 C.ar      1 RES1    0.0000
     41 H16        9.6041   12.6922   -2.5519 H         1 RES1    0.0000
     42 C20        8.0805   12.1854   -1.3405 C.ar      1 RES1    0.0000
     43 H17        7.6913   13.0294   -1.3104 H         1 RES1    0.0000
@<TRIPOS>BOND
     1    1   19 1
     2    2    7 2
     3    3    7 2
     4    4    5 1
     5    5    6 1
     6    7   39 1
     7    8    9 1
     8   10    8 ar
     9   11   10 1
    10   12   10 ar
    11   13   12 1
    12   14   12 ar
    13   15   14 1
    14   16   14 ar
    15   17   16 1
    16   18    8 ar
    17   19   18 1
    18   20   19 1
    19   21   19 1
    20   22    1 1
    21   23   22 ar
    22   24   23 1
    23   25   23 ar
    24   26   25 1
    25   27   25 ar
    26   28   27 ar
    27   29   28 1
    28   30   22 ar
    29   31   30 1
    30   32    4 2
    31   33   32 1
    32   34    5 1
    33   35   34 ar
    34   36   35 1
    35   37   35 ar
    36   38   37 1
    37   39   37 ar
    38   40   39 ar
    39   41   40 1
    40   42   34 ar
    41   43   42 1
    42   16   18 ar
    43   27   32 1
    44   28   30 ar
    45   40   42 ar
@<TRIPOS>SUBSTRUCTURE
     1 RES1 1

@<TRIPOS>CRYSIN
   6.1480   36.6510    7.9380  90.0000  93.5510  90.0000  14 1

