# MOL2 file generated by ConQuest
# Please check atom types

@<TRIPOS>MOLECULE
GAVXEH
    56    58     1
SMALL
NO_CHARGES
****
Generated from CSD

@<TRIPOS>ATOM
      1 C1        -0.0285    7.9028   16.6846 C.2       1 RES1    0.0000
      2 C2         1.1141    8.4541   17.0868 C.2       1 RES1    0.0000
      3 C3         1.8038    7.9288   18.3218 C.3       1 RES1    0.0000
      4 H1         2.2567    8.6861   18.7483 H         1 RES1    0.0000
      5 C4         0.8113    7.3898   19.3054 C.2       1 RES1    0.0000
      6 C5        -0.3636    6.9020   18.8368 C.2       1 RES1    0.0000
      7 C6         2.8533    6.9590   17.9155 C.2       1 RES1    0.0000
      8 C7         2.9684    6.1651   16.8495 C.2       1 RES1    0.0000
      9 H2         2.3810    6.0983   16.1314 H         1 RES1    0.0000
     10 C8         4.1602    5.4542   17.0426 C.2       1 RES1    0.0000
     11 H3         4.5225    4.8264   16.4593 H         1 RES1    0.0000
     12 C9         4.6882    5.8402   18.2213 C.2       1 RES1    0.0000
     13 C10        5.8282    5.4770   19.0319 C.ar      1 RES1    0.0000
     14 C11        6.8013    4.6464   18.5391 C.ar      1 RES1    0.0000
     15 H4         6.7560    4.3589   17.6561 H         1 RES1    0.0000
     16 C12        7.8287    4.2392   19.3195 C.ar      1 RES1    0.0000
     17 H5         8.4822    3.6717   18.9776 H         1 RES1    0.0000
     18 C13        7.8973    4.6716   20.6229 C.ar      1 RES1    0.0000
     19 C14        6.9565    5.5275   21.1257 C.ar      1 RES1    0.0000
     20 H6         7.0096    5.8320   22.0027 H         1 RES1    0.0000
     21 C15        5.9408    5.9232   20.3091 C.ar      1 RES1    0.0000
     22 H7         5.3054    6.5177   20.6370 H         1 RES1    0.0000
     23 C16       -0.7363    8.0950   15.3611 C.3       1 RES1    0.0000
     24 H8        -0.9550    9.0224   15.2464 H         1 RES1    0.0000
     25 H9        -1.5412    7.5722   15.3490 H         1 RES1    0.0000
     26 H10       -0.1605    7.8116   14.6470 H         1 RES1    0.0000
     27 C17        1.8452    9.4939   16.4110 C.2       1 RES1    0.0000
     28 C18        1.8116   11.1470   14.8019 C.3       1 RES1    0.0000
     29 H11        2.4987   10.7675   14.2307 H         1 RES1    0.0000
     30 H12        2.2309   11.7585   15.4254 H         1 RES1    0.0000
     31 C19        0.7971   11.8562   13.9853 C.3       1 RES1    0.0000
     32 H13        0.4089   11.2455   13.3537 H         1 RES1    0.0000
     33 H14        1.2151   12.5809   13.5126 H         1 RES1    0.0000
     34 H15        0.1100   12.2031   14.5585 H         1 RES1    0.0000
     35 C20        1.0986    7.3873   20.7295 C.2       1 RES1    0.0000
     36 C21        2.4586    8.2407   22.3748 C.3       1 RES1    0.0000
     37 H16        1.7029    7.9142   22.8857 H         1 RES1    0.0000
     38 H17        2.4910    9.2081   22.4734 H         1 RES1    0.0000
     39 C22        3.6801    7.6634   22.8877 C.3       1 RES1    0.0000
     40 H18        3.7539    7.8507   23.8270 H         1 RES1    0.0000
     41 H19        4.4320    8.0404   22.4251 H         1 RES1    0.0000
     42 H20        3.6646    6.7131   22.7509 H         1 RES1    0.0000
     43 C23       -1.3833    6.2017   19.6252 C.3       1 RES1    0.0000
     44 H21       -0.9990    5.4159   20.0195 H         1 RES1    0.0000
     45 H22       -2.1131    5.9501   19.0560 H         1 RES1    0.0000
     46 H23       -1.7055    6.7823   20.3192 H         1 RES1    0.0000
     47 N1        -0.6431    7.0209   17.5032 N.pl3     1 RES1    0.0000
     48 H24       -1.2435    6.5054   17.1673 H         1 RES1    0.0000
     49 N2         8.9571    4.2059   21.4878 N.pl3     1 RES1    0.0000
     50 O1         3.8742    6.7742   18.7541 O.3       1 RES1    0.0000
     51 O2         9.8098    3.5438   21.0493 O.2       1 RES1    0.0000
     52 O3         8.8768    4.4827   22.6926 O.2       1 RES1    0.0000
     53 O4         1.1258   10.1201   15.4998 O.3       1 RES1    0.0000
     54 O5         2.9684    9.8107   16.6705 O.2       1 RES1    0.0000
     55 O6         2.2852    7.9142   21.0111 O.3       1 RES1    0.0000
     56 O7         0.3688    7.0502   21.6024 O.2       1 RES1    0.0000
@<TRIPOS>BOND
     1    1    2 2
     2    2    3 1
     3    3    4 1
     4    5    3 1
     5    6    5 2
     6    7    3 1
     7    8    7 2
     8    9    8 1
     9   10    8 1
    10   11   10 1
    11   12   10 2
    12   13   12 1
    13   14   13 ar
    14   15   14 1
    15   16   14 ar
    16   17   16 1
    17   18   16 ar
    18   19   18 ar
    19   20   19 1
    20   21   13 ar
    21   22   21 1
    22   23    1 1
    23   24   23 1
    24   25   23 1
    25   26   23 1
    26   27    2 1
    27   28   29 1
    28   30   28 1
    29   31   28 1
    30   32   31 1
    31   33   31 1
    32   34   31 1
    33   35    5 1
    34   36   37 1
    35   38   36 1
    36   39   36 1
    37   40   39 1
    38   41   39 1
    39   42   39 1
    40   43    6 1
    41   44   43 1
    42   45   43 1
    43   46   43 1
    44   47    1 1
    45   48   47 1
    46   49   18 1
    47   50    7 1
    48   51   49 2
    49   52   49 2
    50   53   27 1
    51   54   27 2
    52   55   35 1
    53   56   35 2
    54    6   47 1
    55   12   50 1
    56   19   21 ar
    57   28   53 1
    58   36   55 1
@<TRIPOS>SUBSTRUCTURE
     1 RES1 1

@<TRIPOS>CRYSIN
  12.9400    8.1430   20.1140  90.0000  90.0000  90.0000  29 1

