# MOL2 file generated by ConQuest
# Please check atom types

@<TRIPOS>MOLECULE
GAVZUA
    32    34     1
SMALL
NO_CHARGES
****
Generated from CSD

@<TRIPOS>ATOM
      1 O1         5.7376    4.8615    2.5145 O.3       1 RES1    0.0000
      2 C1         5.2423    6.0781    1.9328 C.3       1 RES1    0.0000
      3 H1         5.1663    5.9635    0.9428 H         1 RES1    0.0000
      4 C2         3.8524    6.2331    2.5293 C.3       1 RES1    0.0000
      5 N1         3.3373    7.6044    2.5844 N.pl3     1 RES1    0.0000
      6 O2         2.8905    8.0496    3.6371 O.2       1 RES1    0.0000
      7 O3         3.3766    8.2402    1.5351 O.2       1 RES1    0.0000
      8 C3         3.7030    5.2544    3.6558 C.3       1 RES1    0.0000
      9 H2         3.2791    5.5583    4.5084 H         1 RES1    0.0000
     10 C4         2.8403    5.0960    2.4247 C.3       1 RES1    0.0000
     11 C5         3.0769    3.9898    1.4148 C.3       1 RES1    0.0000
     12 H3         4.0363    3.7943    1.3625 H         1 RES1    0.0000
     13 H4         2.7542    4.2762    0.5351 H         1 RES1    0.0000
     14 H5         2.5942    3.1836    1.6943 H         1 RES1    0.0000
     15 C6         1.3755    5.4449    2.6024 C.3       1 RES1    0.0000
     16 H6         0.8974    4.6712    2.9678 H         1 RES1    0.0000
     17 H7         0.9900    5.6871    1.7348 H         1 RES1    0.0000
     18 H8         1.2925    6.2008    3.2197 H         1 RES1    0.0000
     19 C7         5.0165    4.5189    3.7153 C.3       1 RES1    0.0000
     20 H9         5.5295    4.7942    4.5155 H         1 RES1    0.0000
     21 H10        4.8631    3.5425    3.7589 H         1 RES1    0.0000
     22 C8         6.1620    7.2407    2.2332 C.ar      1 RES1    0.0000
     23 C9         6.7831    7.9080    1.1872 C.ar      1 RES1    0.0000
     24 H11        6.5871    7.6624    0.2903 H         1 RES1    0.0000
     25 C10        7.6912    8.9344    1.4405 C.ar      1 RES1    0.0000
     26 H12        8.1130    9.3844    0.7182 H         1 RES1    0.0000
     27 C11        7.9790    9.2973    2.7447 C.ar      1 RES1    0.0000
     28 H13        8.6073    9.9879    2.9203 H         1 RES1    0.0000
     29 C12        7.3481    8.6498    3.7909 C.ar      1 RES1    0.0000
     30 H14        7.5355    8.9055    4.6865 H         1 RES1    0.0000
     31 C13        6.4405    7.6251    3.5406 C.ar      1 RES1    0.0000
     32 H15        6.0100    7.1863    4.2646 H         1 RES1    0.0000
@<TRIPOS>BOND
     1    1    2 1
     2    2    3 1
     3    4    2 1
     4    5    4 1
     5    6    5 2
     6    7    5 2
     7    8    4 1
     8    9    8 1
     9   10    4 1
    10   11   10 1
    11   12   11 1
    12   13   11 1
    13   14   11 1
    14   15   10 1
    15   16   15 1
    16   17   15 1
    17   18   15 1
    18   19    1 1
    19   20   19 1
    20   21   19 1
    21   22    2 1
    22   23   22 ar
    23   24   23 1
    24   25   23 ar
    25   26   25 1
    26   27   25 ar
    27   28   27 1
    28   29   27 ar
    29   30   29 1
    30   31   22 ar
    31   32   31 1
    32    8   10 1
    33    8   19 1
    34   29   31 ar
@<TRIPOS>SUBSTRUCTURE
     1 RES1 1

@<TRIPOS>CRYSIN
   7.9674   14.4710   10.1270  90.0000  92.7460  90.0000  14 1

