# MOL2 file generated by ConQuest
# Please check atom types

@<TRIPOS>MOLECULE
GAWJIA
    62    64     1
SMALL
NO_CHARGES
****
Generated from CSD

@<TRIPOS>ATOM
      1 O1        -2.9335   -1.2622   -8.5825 O.2       1 RES1    0.0000
      2 O2        -6.2553   -0.0298   -9.4556 O.3       1 RES1    0.0000
      3 O3        -6.6416    2.0977   -6.7223 O.2       1 RES1    0.0000
      4 O4        -7.4238    0.0337   -7.2216 O.3       1 RES1    0.0000
      5 N1        -3.8113    0.6174   -7.6840 N.am      1 RES1    0.0000
      6 H1        -4.0826    0.9994   -6.9618 H         1 RES1    0.0000
      7 N2        -3.8158   -0.4589   -5.2610 N.ar      1 RES1    0.0000
      8 N3        -6.3214    1.2026   -8.7763 N.am      1 RES1    0.0000
      9 C1        -2.6527    3.5215   -8.3097 C.ar      1 RES1    0.0000
     10 H2        -3.3729    3.7427   -7.7628 H         1 RES1    0.0000
     11 C2        -1.5739    4.3766   -8.3942 C.ar      1 RES1    0.0000
     12 H3        -1.5811    5.1783   -7.9241 H         1 RES1    0.0000
     13 C3        -0.4941    4.0518   -9.1658 C.ar      1 RES1    0.0000
     14 H4         0.2369    4.6245   -9.2088 H         1 RES1    0.0000
     15 C4        -0.4950    2.8814   -9.8737 C.ar      1 RES1    0.0000
     16 H5         0.2382    2.6562  -10.3998 H         1 RES1    0.0000
     17 C5        -1.5866    2.0294   -9.8051 C.ar      1 RES1    0.0000
     18 H6        -1.5825    1.2379  -10.2932 H         1 RES1    0.0000
     19 C6        -2.6772    2.3417   -9.0259 C.ar      1 RES1    0.0000
     20 C7        -3.8416    1.3697   -8.9323 C.3       1 RES1    0.0000
     21 H7        -3.7538    0.7280   -9.6691 H         1 RES1    0.0000
     22 C8        -5.1963    2.0828   -9.0928 C.3       1 RES1    0.0000
     23 H8        -5.2126    2.8076   -8.4338 H         1 RES1    0.0000
     24 C9        -5.3639    2.7292  -10.4560 C.ar      1 RES1    0.0000
     25 C10       -5.0396    2.0655  -11.6310 C.ar      1 RES1    0.0000
     26 H9        -4.6954    1.2026  -11.5883 H         1 RES1    0.0000
     27 C11       -5.2167    2.6594  -12.8564 C.ar      1 RES1    0.0000
     28 H10       -4.9853    2.2020  -13.6324 H         1 RES1    0.0000
     29 C12       -5.7321    3.9177  -12.9375 C.ar      1 RES1    0.0000
     30 H11       -5.8589    4.3162  -13.7676 H         1 RES1    0.0000
     31 C13       -6.0605    4.5931  -11.7958 C.ar      1 RES1    0.0000
     32 H12       -6.4110    5.4529  -11.8536 H         1 RES1    0.0000
     33 C14       -5.8757    4.0032  -10.5460 C.ar      1 RES1    0.0000
     34 H13       -6.0985    4.4707   -9.7731 H         1 RES1    0.0000
     35 C15       -3.3774   -0.6456   -7.6232 C.2       1 RES1    0.0000
     36 C16       -3.4775   -1.2740   -6.2649 C.ar      1 RES1    0.0000
     37 C17       -3.2220   -2.6186   -6.1003 C.ar      1 RES1    0.0000
     38 H14       -2.9861   -3.1528   -6.8240 H         1 RES1    0.0000
     39 C18       -3.3276   -3.1512   -4.8273 C.ar      1 RES1    0.0000
     40 H15       -3.1682   -4.0549   -4.6811 H         1 RES1    0.0000
     41 C19       -3.6682   -2.3354   -3.7922 C.ar      1 RES1    0.0000
     42 H16       -3.7438   -2.6735   -2.9283 H         1 RES1    0.0000
     43 C20       -3.8978   -0.9947   -4.0471 C.ar      1 RES1    0.0000
     44 H17       -4.1206   -0.4409   -3.3340 H         1 RES1    0.0000
     45 C21       -7.4514   -0.2306  -10.2165 C.3       1 RES1    0.0000
     46 H18       -8.2136   -0.1718   -9.6353 H         1 RES1    0.0000
     47 H19       -7.4287   -1.0983  -10.6261 H         1 RES1    0.0000
     48 H20       -7.5143    0.4432  -10.8966 H         1 RES1    0.0000
     49 C22       -6.7797    1.1602   -7.4765 C.2       1 RES1    0.0000
     50 C23       -8.2770   -0.0949   -6.0215 C.3       1 RES1    0.0000
     51 C24       -7.4491    0.0275   -4.7739 C.3       1 RES1    0.0000
     52 H21       -7.0469    0.8982   -4.7409 H         1 RES1    0.0000
     53 H22       -6.7616   -0.6425   -4.7799 H         1 RES1    0.0000
     54 H23       -8.0107   -0.0949   -4.0049 H         1 RES1    0.0000
     55 C25       -9.3776    0.9296   -6.0984 C.3       1 RES1    0.0000
     56 H24       -9.8260    0.8543   -6.9436 H         1 RES1    0.0000
     57 H25       -9.0022    1.8090   -6.0126 H         1 RES1    0.0000
     58 H26      -10.0049    0.7782   -5.3885 H         1 RES1    0.0000
     59 C26       -8.8513   -1.4803   -6.1967 C.3       1 RES1    0.0000
     60 H27       -8.1389   -2.1244   -6.2051 H         1 RES1    0.0000
     61 H28       -9.3319   -1.5250   -7.0268 H         1 RES1    0.0000
     62 H29       -9.4492   -1.6733   -5.4717 H         1 RES1    0.0000
@<TRIPOS>BOND
     1    1   35 2
     2    2    8 1
     3    3   49 2
     4    4   49 1
     5    5    6 1
     6    7   36 ar
     7    8   22 1
     8    9   10 1
     9   11    9 ar
    10   12   11 1
    11   13   11 ar
    12   14   13 1
    13   15   13 ar
    14   16   15 1
    15   17   15 ar
    16   18   17 1
    17   19    9 ar
    18   20    5 1
    19   21   20 1
    20   22   20 1
    21   23   22 1
    22   24   22 1
    23   25   24 ar
    24   26   25 1
    25   27   25 ar
    26   28   27 1
    27   29   27 ar
    28   30   29 1
    29   31   29 ar
    30   32   31 1
    31   33   24 ar
    32   34   33 1
    33   35    5 1
    34   36   35 1
    35   37   36 ar
    36   38   37 1
    37   39   37 ar
    38   40   39 1
    39   41   39 ar
    40   42   41 1
    41   43    7 ar
    42   44   43 1
    43   45    2 1
    44   46   45 1
    45   47   45 1
    46   48   45 1
    47   49    8 1
    48   50    4 1
    49   51   50 1
    50   52   51 1
    51   53   51 1
    52   54   51 1
    53   55   50 1
    54   56   55 1
    55   57   55 1
    56   58   55 1
    57   59   50 1
    58   60   59 1
    59   61   59 1
    60   62   59 1
    61   17   19 ar
    62   19   20 1
    63   31   33 ar
    64   41   43 ar
@<TRIPOS>SUBSTRUCTURE
     1 RES1 1

@<TRIPOS>CRYSIN
   9.0583    9.0583   26.0061  90.0000  90.0000 120.0000 145 1

