# MOL2 file generated by ConQuest
# Please check atom types

@<TRIPOS>MOLECULE
GAWMIB
    56    57     1
SMALL
NO_CHARGES
****
Generated from CSD

@<TRIPOS>ATOM
      1 O1        -4.6193    5.8860    1.6427 O.2       1 RES1    0.0000
      2 O2        -4.7521    3.7482    1.4886 O.2       1 RES1    0.0000
      3 N1        -4.3237    4.7643    2.0145 N.pl3     1 RES1    0.0000
      4 N2        -1.7898    8.0018    5.1383 N.2       1 RES1    0.0000
      5 C1        -1.9892    5.6277    4.7866 C.ar      1 RES1    0.0000
      6 C2        -1.6021    4.3596    5.1919 C.ar      1 RES1    0.0000
      7 C3        -2.1113    3.2174    4.5756 C.ar      1 RES1    0.0000
      8 C4        -3.0085    3.3433    3.5285 C.ar      1 RES1    0.0000
      9 C5        -3.3828    4.6150    3.1393 C.ar      1 RES1    0.0000
     10 C6        -2.9026    5.7599    3.7395 C.ar      1 RES1    0.0000
     11 C7        -1.4462    6.8243    5.4586 C.2       1 RES1    0.0000
     12 C8        -1.1717    9.0987    5.8665 C.3       1 RES1    0.0000
     13 C9        -0.2837    9.9240    4.9501 C.3       1 RES1    0.0000
     14 C10        0.9135    9.1530    4.4182 C.3       1 RES1    0.0000
     15 C11        1.8664    9.9973    3.5828 C.3       1 RES1    0.0000
     16 H1        -0.9780    4.2667    5.9021 H         1 RES1    0.0000
     17 H2        -1.8450    2.3556    4.8737 H         1 RES1    0.0000
     18 H3        -3.3577    2.5769    3.0897 H         1 RES1    0.0000
     19 H4        -3.1872    6.6184    3.4474 H         1 RES1    0.0000
     20 H5        -0.8140    6.7089    6.1586 H         1 RES1    0.0000
     21 H6        -0.6303    8.7354    6.6122 H         1 RES1    0.0000
     22 H7        -1.8759    9.6784    6.2518 H         1 RES1    0.0000
     23 H8        -0.8233   10.2461    4.1850 H         1 RES1    0.0000
     24 H9         0.0403   10.7177    5.4458 H         1 RES1    0.0000
     25 H10        0.5872    8.3986    3.8655 H         1 RES1    0.0000
     26 H11        1.4124    8.7720    5.1832 H         1 RES1    0.0000
     27 H12        1.3805   10.3385    2.7902 H         1 RES1    0.0000
     28 H13        2.1538   10.7792    4.1180 H         1 RES1    0.0000
     29 O1B        9.5793   13.3592    5.0566 O.2       1 RES1    0.0000
     30 O2B        9.7121   15.4970    5.2107 O.2       1 RES1    0.0000
     31 N1B        9.2837   14.4809    4.6848 N.pl3     1 RES1    0.0000
     32 N2B        6.7497   11.2434    1.5609 N.2       1 RES1    0.0000
     33 C1B        6.9491   13.6175    1.9126 C.ar      1 RES1    0.0000
     34 C2B        6.5621   14.8856    1.5073 C.ar      1 RES1    0.0000
     35 C3B        7.0712   16.0278    2.1237 C.ar      1 RES1    0.0000
     36 C4B        7.9684   15.9019    3.1708 C.ar      1 RES1    0.0000
     37 C5B        8.3428   14.6302    3.5600 C.ar      1 RES1    0.0000
     38 C6B        7.8626   13.4853    2.9597 C.ar      1 RES1    0.0000
     39 C7B        6.4061   12.4209    1.2407 C.2       1 RES1    0.0000
     40 C8B        6.1317   10.1465    0.8327 C.3       1 RES1    0.0000
     41 C9B        5.2436    9.3212    1.7492 C.3       1 RES1    0.0000
     42 C10B       4.0465   10.0922    2.2811 C.3       1 RES1    0.0000
     43 C11B       3.0935    9.2479    3.1165 C.3       1 RES1    0.0000
     44 H1B        5.9380   14.9785    0.7972 H         1 RES1    0.0000
     45 H2B        6.8050   16.8896    1.8255 H         1 RES1    0.0000
     46 H3B        8.3177   16.6683    3.6096 H         1 RES1    0.0000
     47 H4B        8.1471   12.6268    3.2518 H         1 RES1    0.0000
     48 H5B        5.7740   12.5363    0.5406 H         1 RES1    0.0000
     49 H6B        5.5902   10.5098    0.0871 H         1 RES1    0.0000
     50 H7B        6.8359    9.5668    0.4475 H         1 RES1    0.0000
     51 H8B        5.7832    8.9991    2.5142 H         1 RES1    0.0000
     52 H9B        4.9197    8.5275    1.2534 H         1 RES1    0.0000
     53 H10B       4.3728   10.8466    2.8338 H         1 RES1    0.0000
     54 H11B       3.5475   10.4732    1.5160 H         1 RES1    0.0000
     55 H12B       3.5795    8.9067    3.9090 H         1 RES1    0.0000
     56 H13B       2.8062    8.4660    2.5812 H         1 RES1    0.0000
@<TRIPOS>BOND
     1    1    3 2
     2    2    3 2
     3    3    9 1
     4    4   11 2
     5    5    6 ar
     6    6    7 ar
     7    7    8 ar
     8    8    9 ar
     9    9   10 ar
    10   10    5 ar
    11   11    5 1
    12   12    4 1
    13   13   12 1
    14   14   13 1
    15   15   14 1
    16   16    6 1
    17   17    7 1
    18   18    8 1
    19   19   10 1
    20   20   11 1
    21   21   12 1
    22   22   12 1
    23   23   13 1
    24   24   13 1
    25   25   14 1
    26   26   14 1
    27   27   15 1
    28   28   15 1
    29   29   31 2
    30   30   31 2
    31   31   37 1
    32   32   39 2
    33   33   34 ar
    34   34   35 ar
    35   35   36 ar
    36   36   37 ar
    37   37   38 ar
    38   38   33 ar
    39   39   33 1
    40   40   32 1
    41   41   40 1
    42   42   41 1
    43   43   15 1
    44   44   34 1
    45   45   35 1
    46   46   36 1
    47   47   38 1
    48   48   39 1
    49   49   40 1
    50   50   40 1
    51   51   41 1
    52   52   41 1
    53   53   42 1
    54   54   42 1
    55   55   43 1
    56   56   43 1
    57   42   43 1
@<TRIPOS>SUBSTRUCTURE
     1 RES1 1

@<TRIPOS>CRYSIN
   8.1297   19.2452    7.4113  90.0000 115.3210  90.0000  14 1

