# MOL2 file generated by ConQuest
# Please check atom types

@<TRIPOS>MOLECULE
GAWNAT
    61    65     1
SMALL
NO_CHARGES
****
Generated from CSD

@<TRIPOS>ATOM
      1 C1         1.9830   11.0875    6.2697 C.3       1 RES1    0.0000
      2 C2         1.4837   10.3321    4.9819 C.3       1 RES1    0.0000
      3 C3         2.7850   10.1721    4.1635 C.3       1 RES1    0.0000
      4 C4         3.8227   10.9042    5.0221 C.3       1 RES1    0.0000
      5 C5         3.5380   12.4058    4.8986 C.3       1 RES1    0.0000
      6 C6         2.2589   12.5517    5.7729 C.3       1 RES1    0.0000
      7 C7         3.4415   10.5681    6.4391 C.3       1 RES1    0.0000
      8 C8         3.5865    9.0695    6.8210 C.3       1 RES1    0.0000
      9 C9         4.2378   11.3396    7.5145 C.3       1 RES1    0.0000
     10 C10        1.1055   11.0500    7.4800 C.3       1 RES1    0.0000
     11 C11        0.2894   10.9933    4.2784 C.ar      1 RES1    0.0000
     12 C12        0.5659   11.7720    3.1585 C.ar      1 RES1    0.0000
     13 C13       -0.4817   12.4646    2.5024 C.ar      1 RES1    0.0000
     14 C14       -1.7216   12.4129    2.9073 C.ar      1 RES1    0.0000
     15 C15       -2.0847   11.6242    4.0602 C.ar      1 RES1    0.0000
     16 C16       -3.4719   11.5340    4.5067 C.ar      1 RES1    0.0000
     17 C17       -3.8052   10.7483    5.4916 C.ar      1 RES1    0.0000
     18 C18       -2.8365   10.0101    6.1606 C.ar      1 RES1    0.0000
     19 C19       -1.5270   10.0770    5.8060 C.ar      1 RES1    0.0000
     20 C20       -1.0768   10.8890    4.7062 C.ar      1 RES1    0.0000
     21 C21       -1.1680    6.3467    4.7335 C.3       1 RES1    0.0000
     22 C22        0.2128    6.8084    5.2532 C.3       1 RES1    0.0000
     23 C23        1.0470    5.6430    4.8196 C.2       1 RES1    0.0000
     24 C24       -2.0812    5.9052    5.8160 C.3       1 RES1    0.0000
     25 C25        0.6852    8.0883    4.5698 C.2       1 RES1    0.0000
     26 C26        2.5109    5.4911    5.1656 C.3       1 RES1    0.0000
     27 N1         0.4314    4.7955    4.1047 N.2       1 RES1    0.0000
     28 O1         1.0429    8.9996    5.4628 O.3       1 RES1    0.0000
     29 O2        -0.8792    5.2228    3.8979 O.3       1 RES1    0.0000
     30 O3         0.6998    8.2372    3.3768 O.2       1 RES1    0.0000
     31 H1         3.0253    9.2072    4.0573 H         1 RES1    0.0000
     32 H2         2.7009   10.5974    3.2633 H         1 RES1    0.0000
     33 H3         4.7470   10.7007    4.6947 H         1 RES1    0.0000
     34 H4         4.2945   12.9587    5.2489 H         1 RES1    0.0000
     35 H5         3.3609   12.6661    3.9410 H         1 RES1    0.0000
     36 H6         2.2186   13.3121    6.4205 H         1 RES1    0.0000
     37 H7         1.3703   12.4423    5.3293 H         1 RES1    0.0000
     38 H8         3.0370    8.3789    6.1017 H         1 RES1    0.0000
     39 H9         4.8142    9.1950    6.7148 H         1 RES1    0.0000
     40 H10        3.1007    8.9429    7.8562 H         1 RES1    0.0000
     41 H11        4.9539   10.7473    7.6523 H         1 RES1    0.0000
     42 H12        3.8724   11.1442    8.5539 H         1 RES1    0.0000
     43 H13        4.4278   12.1547    7.1469 H         1 RES1    0.0000
     44 H14        0.8003   10.1043    7.7155 H         1 RES1    0.0000
     45 H15        1.5217   11.3214    8.1993 H         1 RES1    0.0000
     46 H16        0.1473   11.8105    7.2460 H         1 RES1    0.0000
     47 H17        1.5200   11.8327    2.8068 H         1 RES1    0.0000
     48 H18       -0.2514   13.0195    1.6984 H         1 RES1    0.0000
     49 H19       -2.4273   12.9223    2.4134 H         1 RES1    0.0000
     50 H20       -4.1834   12.0758    4.0659 H         1 RES1    0.0000
     51 H21       -4.7674   10.6734    5.7787 H         1 RES1    0.0000
     52 H22       -3.1101    9.4087    6.9229 H         1 RES1    0.0000
     53 H23       -1.0447    9.4806    6.4549 H         1 RES1    0.0000
     54 H24       -1.6082    7.0747    4.2080 H         1 RES1    0.0000
     55 H25        0.2186    6.9218    6.2453 H         1 RES1    0.0000
     56 H26       -3.2176    5.5832    5.7442 H         1 RES1    0.0000
     57 H27       -1.8345    5.0122    6.5324 H         1 RES1    0.0000
     58 H28       -2.3279    6.3852    6.6186 H         1 RES1    0.0000
     59 H29        2.9096    6.0197    4.3301 H         1 RES1    0.0000
     60 H30        2.6944    6.0764    6.0874 H         1 RES1    0.0000
     61 H31        3.0773    4.5747    4.8972 H         1 RES1    0.0000
@<TRIPOS>BOND
     1    1    2 1
     2    2    3 1
     3    3    4 1
     4    4    5 1
     5    5    6 1
     6    6    1 1
     7    7    1 1
     8    8    7 1
     9    9    7 1
    10   10    1 1
    11   11    2 1
    12   12   11 ar
    13   13   12 ar
    14   14   13 ar
    15   15   14 ar
    16   16   15 ar
    17   17   16 ar
    18   18   17 ar
    19   19   18 ar
    20   20   11 ar
    21   21   22 1
    22   22   23 1
    23   23   26 1
    24   24   21 1
    25   25   22 1
    26   26   59 1
    27   27   23 2
    28   28    2 1
    29   29   21 1
    30   30   25 2
    31   31    3 1
    32   32    3 1
    33   33    4 1
    34   34    5 1
    35   35    5 1
    36   36    6 1
    37   37    6 1
    38   38    8 1
    39   39    8 1
    40   40    8 1
    41   41    9 1
    42   42    9 1
    43   43    9 1
    44   44   10 1
    45   45   10 1
    46   46   10 1
    47   47   12 1
    48   48   13 1
    49   49   14 1
    50   50   16 1
    51   51   17 1
    52   52   18 1
    53   53   19 1
    54   54   21 1
    55   55   22 1
    56   56   24 1
    57   57   24 1
    58   58   24 1
    59   60   26 1
    60   61   26 1
    61    4    7 1
    62   15   20 ar
    63   19   20 ar
    64   25   28 1
    65   27   29 1
@<TRIPOS>SUBSTRUCTURE
     1 RES1 1

@<TRIPOS>CRYSIN
  11.6920   11.6920   14.3570  90.0000  90.0000 120.0000 145 1

