# MOL2 file generated by ConQuest
# Please check atom types

@<TRIPOS>MOLECULE
GAWTAB
    22    23     1
SMALL
NO_CHARGES
****
Generated from CSD

@<TRIPOS>ATOM
      1 O1         7.6506    2.3522   -1.6857 O.2       1 RES1    0.0000
      2 N1         6.9244    5.0951    2.3351 N.ar      1 RES1    0.0000
      3 N2         7.1865    2.0204   -0.5342 N.pl3     1 RES1    0.0000
      4 N3         5.9193   -1.9784   -0.0160 N.ar      1 RES1    0.0000
      5 C1         6.5933    5.2800    1.0407 C.ar      1 RES1    0.0000
      6 C2         6.6416    4.2949    0.0789 C.ar      1 RES1    0.0000
      7 C3         7.0677    3.0401    0.4627 C.ar      1 RES1    0.0000
      8 C4         7.4510    2.7985    1.7710 C.ar      1 RES1    0.0000
      9 C5         7.3251    3.8550    2.6581 C.ar      1 RES1    0.0000
     10 C6         6.7842    0.6731   -0.3305 C.ar      1 RES1    0.0000
     11 C7         7.2127   -0.3056   -1.2091 C.ar      1 RES1    0.0000
     12 C8         6.7604   -1.5993   -1.0033 C.ar      1 RES1    0.0000
     13 C9         5.5241   -1.0029    0.7997 C.ar      1 RES1    0.0000
     14 C10        5.9067    0.3360    0.7005 C.ar      1 RES1    0.0000
     15 H1         6.3082    6.1463    0.7752 H         1 RES1    0.0000
     16 H2         6.3898    4.4735   -0.8199 H         1 RES1    0.0000
     17 H3         7.7837    1.9522    2.0450 H         1 RES1    0.0000
     18 H4         7.5397    3.6890    3.5676 H         1 RES1    0.0000
     19 H5         7.7971   -0.0977   -1.9288 H         1 RES1    0.0000
     20 H6         7.0653   -2.2714   -1.6015 H         1 RES1    0.0000
     21 H7         4.9341   -1.2370    1.5066 H         1 RES1    0.0000
     22 H8         5.5835    0.9903    1.3093 H         1 RES1    0.0000
@<TRIPOS>BOND
     1    1    3 1
     2    2    5 ar
     3    3    7 1
     4    4   12 ar
     5    5    6 ar
     6    6    7 ar
     7    7    8 ar
     8    8    9 ar
     9    9    2 ar
    10   10    3 1
    11   11   10 ar
    12   12   11 ar
    13   13    4 ar
    14   14   10 ar
    15   15    5 1
    16   16    6 1
    17   17    8 1
    18   18    9 1
    19   19   11 1
    20   20   12 1
    21   21   13 1
    22   22   14 1
    23   13   14 ar
@<TRIPOS>SUBSTRUCTURE
     1 RES1 1

@<TRIPOS>CRYSIN
   7.9199   10.5011   10.6624  90.0000  90.0000  90.0000  19 1

