# MOL2 file generated by ConQuest
# Please check atom types

@<TRIPOS>MOLECULE
GAWWAF
    56    59     1
SMALL
NO_CHARGES
****
Generated from CSD

@<TRIPOS>ATOM
      1 N1         8.6292    8.0654    7.4084 N.pl3     1 RES1    0.0000
      2 N2         8.4382    6.9548    8.2403 N.2       1 RES1    0.0000
      3 C1         9.3884    6.7406    9.0836 C.2       1 RES1    0.0000
      4 C2        10.5572    7.6508    9.1398 C.3       1 RES1    0.0000
      5 H1        11.2605    7.2379    9.6656 H         1 RES1    0.0000
      6 H2        10.3005    8.4762    9.5796 H         1 RES1    0.0000
      7 C3        11.0849    7.9631    7.7545 C.3       1 RES1    0.0000
      8 O1        11.7239    6.7544    7.2869 O.3       1 RES1    0.0000
      9 C4        11.5107    6.6052    5.8911 C.3       1 RES1    0.0000
     10 C5        10.1460    7.1914    5.6449 C.3       1 RES1    0.0000
     11 H3         9.4667    6.5001    5.6798 H         1 RES1    0.0000
     12 H4        10.1110    7.6195    4.7750 H         1 RES1    0.0000
     13 C6         9.9324    8.2136    6.7565 C.3       1 RES1    0.0000
     14 H5        10.0116    9.1181    6.3882 H         1 RES1    0.0000
     15 C7        12.0817    9.1079    7.8078 C.3       1 RES1    0.0000
     16 H6        12.4117    9.2853    6.9242 H         1 RES1    0.0000
     17 H7        12.8130    8.8682    8.3811 H         1 RES1    0.0000
     18 H8        11.6488    9.8927    8.1517 H         1 RES1    0.0000
     19 C8        11.6666    5.1375    5.5570 C.3       1 RES1    0.0000
     20 H9        12.5234    4.8301    5.8620 H         1 RES1    0.0000
     21 H10       11.6023    5.0171    4.6074 H         1 RES1    0.0000
     22 H11       10.9733    4.6355    5.9918 H         1 RES1    0.0000
     23 O2        12.4133    7.4206    5.1613 O.3       1 RES1    0.0000
     24 C9        13.7942    7.0848    5.2921 C.3       1 RES1    0.0000
     25 H12       13.9821    6.2651    4.8089 H         1 RES1    0.0000
     26 H13       14.0138    6.9460    6.2261 H         1 RES1    0.0000
     27 C10       14.6126    8.1955    4.7405 C.3       1 RES1    0.0000
     28 H14       14.4063    8.3140    3.8100 H         1 RES1    0.0000
     29 H15       15.5447    7.9843    4.8361 H         1 RES1    0.0000
     30 H16       14.4175    9.0050    5.2171 H         1 RES1    0.0000
     31 C11        7.4794    8.5579    6.8401 C.ar      1 RES1    0.0000
     32 C12        7.4988    9.2709    5.6391 C.ar      1 RES1    0.0000
     33 H17        8.3076    9.3912    5.1975 H         1 RES1    0.0000
     34 C13        6.3576    9.7964    5.0948 C.ar      1 RES1    0.0000
     35 H18        6.3951   10.2673    4.2936 H         1 RES1    0.0000
     36 C14        5.1639    9.6237    5.7341 C.ar      1 RES1    0.0000
     37 C15        5.0766    8.9149    6.9005 C.ar      1 RES1    0.0000
     38 H19        4.2555    8.7866    7.3167 H         1 RES1    0.0000
     39 C16        6.2292    8.3969    7.4449 C.ar      1 RES1    0.0000
     40 C17        9.1909    5.6182   10.0167 C.ar      1 RES1    0.0000
     41 C18        8.1575    4.7122    9.8367 C.ar      1 RES1    0.0000
     42 H20        7.6094    4.7907    9.0898 H         1 RES1    0.0000
     43 C19        7.9231    3.6986   10.7382 C.ar      1 RES1    0.0000
     44 H21        7.2151    3.1111   10.6067 H         1 RES1    0.0000
     45 C20        8.7392    3.5600   11.8312 C.ar      1 RES1    0.0000
     46 H22        8.5957    2.8647   12.4314 H         1 RES1    0.0000
     47 C21        9.7613    4.4404   12.0414 C.ar      1 RES1    0.0000
     48 H23       10.3068    4.3477   12.7880 H         1 RES1    0.0000
     49 C22        9.9863    5.4690   11.1457 C.ar      1 RES1    0.0000
     50 H24       10.6785    6.0693   11.3026 H         1 RES1    0.0000
     51 N3         3.9317   10.1641    5.1783 N.pl3     1 RES1    0.0000
     52 O3         2.9245   10.1695    5.8695 O.2       1 RES1    0.0000
     53 O4         3.9576   10.5777    4.0335 O.2       1 RES1    0.0000
     54 N4         6.0413    7.7936    8.7826 N.pl3     1 RES1    0.0000
     55 O5         6.6183    8.3106    9.7194 O.2       1 RES1    0.0000
     56 O6         5.2657    6.8695    8.8604 O.2       1 RES1    0.0000
@<TRIPOS>BOND
     1    1    2 1
     2    2    3 2
     3    3    4 1
     4    4    5 1
     5    6    4 1
     6    7    4 1
     7    8    7 1
     8    9    8 1
     9   10    9 1
    10   11   10 1
    11   12   10 1
    12   13    1 1
    13   14   13 1
    14   15    7 1
    15   16   15 1
    16   17   15 1
    17   18   15 1
    18   19    9 1
    19   20   19 1
    20   21   19 1
    21   22   19 1
    22   23    9 1
    23   24   23 1
    24   25   24 1
    25   26   24 1
    26   27   24 1
    27   28   27 1
    28   29   27 1
    29   30   27 1
    30   31    1 1
    31   32   31 ar
    32   33   32 1
    33   34   32 ar
    34   35   34 1
    35   36   34 ar
    36   37   36 ar
    37   38   37 1
    38   39   31 ar
    39   40    3 1
    40   41   40 ar
    41   42   41 1
    42   43   41 ar
    43   44   43 1
    44   45   43 ar
    45   46   45 1
    46   47   45 ar
    47   48   47 1
    48   49   40 ar
    49   50   49 1
    50   51   36 1
    51   52   51 2
    52   53   51 2
    53   54   39 1
    54   55   54 2
    55   56   54 2
    56    7   13 1
    57   10   13 1
    58   37   39 ar
    59   47   49 ar
@<TRIPOS>SUBSTRUCTURE
     1 RES1 1

@<TRIPOS>CRYSIN
  14.2441   10.6587   14.5372  90.0000  97.8740  90.0000  14 1

