# MOL2 file generated by ConQuest
# Please check atom types

@<TRIPOS>MOLECULE
GAXXEI
    37    43     1
SMALL
NO_CHARGES
****
Generated from CSD

@<TRIPOS>ATOM
      1 O1         4.8396    9.5732    2.1515 O.2       1 RES1    0.0000
      2 O2         3.7754    8.5805    3.7577 O.2       1 RES1    0.0000
      3 O3        -0.4235    1.1078   -1.0582 O.2       1 RES1    0.0000
      4 O4        -2.4225    1.8402   -0.9077 O.2       1 RES1    0.0000
      5 O5         5.6137    3.2178    3.2214 O.2       1 RES1    0.0000
      6 O6         1.7469    1.2149    4.1768 O.2       1 RES1    0.0000
      7 O7         3.8181    2.0476    3.9236 O.3       1 RES1    0.0000
      8 N1         4.2746    8.5944    2.6428 N.pl3     1 RES1    0.0000
      9 N2        -1.2591    1.8202   -0.5435 N.pl3     1 RES1    0.0000
     10 C1         3.7358    5.0472    1.7324 C.ar      1 RES1    0.0000
     11 C2         3.8524    6.2034    2.4841 C.ar      1 RES1    0.0000
     12 C3         4.1883    7.4150    1.8613 C.ar      1 RES1    0.0000
     13 C4         4.4077    7.4692    0.4876 C.ar      1 RES1    0.0000
     14 C5         4.2910    6.3128   -0.2632 C.ar      1 RES1    0.0000
     15 C6         3.9552    5.1012    0.3596 C.ar      1 RES1    0.0000
     16 C7         3.8165    3.7882   -0.1803 C.ar      1 RES1    0.0000
     17 C8         3.9581    3.3278   -1.4782 C.ar      1 RES1    0.0000
     18 C9         3.8444    1.9653   -1.7324 C.ar      1 RES1    0.0000
     19 C10        3.5891    1.0632   -0.6886 C.ar      1 RES1    0.0000
     20 C11        3.4474    1.5236    0.6093 C.ar      1 RES1    0.0000
     21 C12        3.5623    2.8859    0.8644 C.ar      1 RES1    0.0000
     22 C13        3.4211    3.6246    2.1795 C.3       1 RES1    0.0000
     23 C14        4.4446    3.0131    3.1367 C.2       1 RES1    0.0000
     24 C15        2.4312    2.0640    3.7190 C.2       1 RES1    0.0000
     25 C16        2.0705    3.3402    2.9510 C.3       1 RES1    0.0000
     26 C17        1.7437    4.3951    3.9804 C.ar      1 RES1    0.0000
     27 C18        2.5007    4.8271    5.0584 C.ar      1 RES1    0.0000
     28 C19        2.0461    5.8825    5.8308 C.ar      1 RES1    0.0000
     29 C20        0.8333    6.5066    5.5262 C.ar      1 RES1    0.0000
     30 C21        0.0766    6.0728    4.4481 C.ar      1 RES1    0.0000
     31 C22        0.5311    5.0176    3.6748 C.ar      1 RES1    0.0000
     32 C23       -0.0760    4.3381    2.5761 C.ar      1 RES1    0.0000
     33 C24       -1.3247    4.5080    1.9785 C.ar      1 RES1    0.0000
     34 C25       -1.7154    3.6730    0.9482 C.ar      1 RES1    0.0000
     35 C26       -0.8573    2.6671    0.5165 C.ar      1 RES1    0.0000
     36 C27        0.3914    2.4972    1.1141 C.ar      1 RES1    0.0000
     37 C28        0.7820    3.3331    2.1443 C.ar      1 RES1    0.0000
@<TRIPOS>BOND
     1    1    8 2
     2    2    8 2
     3    3    9 2
     4    4    9 2
     5    5   23 2
     6    6   24 2
     7    7   23 1
     8    8   12 1
     9    9   35 1
    10   10   11 ar
    11   11   12 ar
    12   12   13 ar
    13   13   14 ar
    14   14   15 ar
    15   15   10 ar
    16   16   15 1
    17   17   16 ar
    18   18   17 ar
    19   19   18 ar
    20   20   19 ar
    21   21   16 ar
    22   22   10 1
    23   23   22 1
    24   24    7 1
    25   25   22 1
    26   26   25 1
    27   27   26 ar
    28   28   27 ar
    29   29   28 ar
    30   30   29 ar
    31   31   26 ar
    32   32   31 1
    33   33   32 ar
    34   34   33 ar
    35   35   34 ar
    36   36   35 ar
    37   37   25 1
    38   20   21 ar
    39   21   22 1
    40   24   25 1
    41   30   31 ar
    42   32   37 ar
    43   36   37 ar
@<TRIPOS>SUBSTRUCTURE
     1 RES1 1

@<TRIPOS>CRYSIN
  12.8660    9.4800    9.1930 101.0000  91.2000  97.9000   2 1

