# MOL2 file generated by ConQuest
# Please check atom types

@<TRIPOS>MOLECULE
GAYMOL03
    12    12     1
SMALL
USER_CHARGES
****
Generated from CSD

@<TRIPOS>ATOM
      1 O1         0.3263    6.2653    7.6187 O.2       1 RES1    0.0000
      2 O2         5.2001    9.3883    7.4340 O.2       1 RES1    0.0000
      3 O3         0.8245    7.3060    9.4772 O.2       1 RES1    0.0000
      4 N1         3.3776    8.5924    9.6797 N.1       1 RES1    1.0000
      5 N2         2.5088    7.3733    6.4549 N.2       1 RES1   -1.0000
      6 C1         4.1834    8.6918    7.3652 C.2       1 RES1    0.0000
      7 N3         3.5615    8.8861   10.7389 N.1       1 RES1    0.0000
      8 N4         1.0496    6.9740    8.3103 N.pl3     1 RES1    0.0000
      9 N5         3.6668    8.0712    6.2472 N.am      1 RES1    0.0000
     10 H1         4.0451    8.1196    5.4757 H         1 RES1    0.0000
     11 C2         2.2597    7.5055    7.7261 C.2       1 RES1    0.0000
     12 C3         3.2357    8.2932    8.3875 C.2       1 RES1    0.0000
@<TRIPOS>BOND
     1    1    8 2
     2    2    6 2
     3    3    8 2
     4    4    7 3
     5    5    9 1
     6    6    9 1
     7    8   11 1
     8    9   10 1
     9   11    5 1
    10   12    4 1
    11    6   12 1
    12   11   12 2
@<TRIPOS>SUBSTRUCTURE
     1 RES1 1

@<TRIPOS>CRYSIN
   5.5007    9.0691   11.4158  90.0000  92.7100  90.0000 231 1

