# MOL2 file generated by ConQuest
# Please check atom types

@<TRIPOS>MOLECULE
GAYMOL
    12    12     1
SMALL
USER_CHARGES
****
Generated from CSD

@<TRIPOS>ATOM
      1 O1         0.9900    7.3527    9.5621 O.2       1 RES1    0.0000
      2 O2         5.3200    9.4460    7.4928 O.2       1 RES1    0.0000
      3 O3         0.4897    6.3124    7.7277 O.2       1 RES1    0.0000
      4 N1         3.5357    8.6512    9.7410 N.1       1 RES1    1.0000
      5 N2         2.6377    7.4357    6.5431 N.2       1 RES1   -1.0000
      6 C1         4.3095    8.7526    7.4325 C.2       1 RES1    0.0000
      7 N3         1.2091    7.0235    8.4042 N.pl3     1 RES1    0.0000
      8 N4         3.7899    8.1376    6.3280 N.am      1 RES1    0.0000
      9 H1         4.1610    8.1884    5.5538 H         1 RES1    0.0000
     10 C2         2.4019    7.5664    7.8095 C.2       1 RES1    0.0000
     11 C3         3.3774    8.3520    8.4562 C.2       1 RES1    0.0000
     12 N5         3.7281    8.9392   10.7915 N.1       1 RES1    0.0000
@<TRIPOS>BOND
     1    1    7 2
     2    2    6 2
     3    3    7 2
     4    4   11 1
     5    5    8 1
     6    6    8 1
     7    7   10 1
     8    8    9 1
     9   10    5 1
    10   11    6 1
    11   12    4 3
    12   10   11 2
@<TRIPOS>SUBSTRUCTURE
     1 RES1 1

@<TRIPOS>CRYSIN
   5.5357    9.1337   11.5261  90.0000  91.8520  90.0000 231 1

