# MOL2 file generated by ConQuest
# Please check atom types

@<TRIPOS>MOLECULE
GAYXUB
    54    55     1
SMALL
NO_CHARGES
****
Generated from CSD

@<TRIPOS>ATOM
      1 O1         4.9279   -1.3676   12.9547 O.2       1 RES1    0.0000
      2 N1         4.4915   -0.2371   13.2177 N.pl3     1 RES1    0.0000
      3 C1         3.2058    0.2066   12.5826 C.ar      1 RES1    0.0000
      4 O2         5.0673    0.5489   13.9751 O.2       1 RES1    0.0000
      5 C2         2.4909   -0.7422   11.8374 C.ar      1 RES1    0.0000
      6 H1         2.8125   -1.6322   11.7504 H         1 RES1    0.0000
      7 C3         1.2826   -0.3491   11.2169 C.ar      1 RES1    0.0000
      8 C4         0.8104    1.0037   11.3677 C.ar      1 RES1    0.0000
      9 C5         1.5819    1.9038   12.1366 C.ar      1 RES1    0.0000
     10 H2         1.2732    2.7960   12.2418 H         1 RES1    0.0000
     11 C6         2.7910    1.5296   12.7526 C.ar      1 RES1    0.0000
     12 H3         3.3012    2.1492   13.2604 H         1 RES1    0.0000
     13 O3         0.5216   -1.2166   10.4536 O.3       1 RES1    0.0000
     14 C7         0.7417   -2.6852   10.5013 C.3       1 RES1    0.0000
     15 H4         1.0422   -2.9510   11.4168 H         1 RES1    0.0000
     16 C8         1.8013   -3.0955    9.4696 C.3       1 RES1    0.0000
     17 H5         1.4832   -2.8737    8.5700 H         1 RES1    0.0000
     18 H6         1.9608   -4.0605    9.5322 H         1 RES1    0.0000
     19 H7         2.6354   -2.6137    9.6489 H         1 RES1    0.0000
     20 C9        -0.6343   -3.3020   10.2082 C.3       1 RES1    0.0000
     21 H8        -1.2792   -2.9971   10.8806 H         1 RES1    0.0000
     22 H9        -0.5681   -4.2789   10.2404 H         1 RES1    0.0000
     23 H10       -0.9345   -3.0237    9.3179 H         1 RES1    0.0000
     24 O4        -0.9083    2.6944   11.1779 O.2       1 RES1    0.0000
     25 N2        -1.1370    0.8110    9.8525 N.am      1 RES1    0.0000
     26 H11       -0.7369    0.0524    9.6566 H         1 RES1    0.0000
     27 C10       -0.4921    1.5896   10.7915 C.2       1 RES1    0.0000
     28 C11       -2.3589    1.0541    9.1503 C.ar      1 RES1    0.0000
     29 C12       -2.8209    0.0028    8.3187 C.ar      1 RES1    0.0000
     30 H12       -2.3270   -0.8047    8.2416 H         1 RES1    0.0000
     31 C13       -4.0130    0.1763    7.6156 C.ar      1 RES1    0.0000
     32 H13       -4.3233   -0.5327    7.0638 H         1 RES1    0.0000
     33 C14       -4.7826    1.3647    7.6904 C.ar      1 RES1    0.0000
     34 C15       -4.2993    2.4165    8.5305 C.ar      1 RES1    0.0000
     35 C16       -3.0857    2.2567    9.2515 C.ar      1 RES1    0.0000
     36 H14       -2.7646    2.9610    9.8016 H         1 RES1    0.0000
     37 O5        -6.3762    0.4497    6.1250 O.2       1 RES1    0.0000
     38 C17       -6.0377    1.3871    6.8384 C.2       1 RES1    0.0000
     39 O6        -6.7569    2.5336    6.9124 O.3       1 RES1    0.0000
     40 C18       -7.9433    2.5965    6.0571 C.3       1 RES1    0.0000
     41 H15       -7.6723    2.5295    5.1176 H         1 RES1    0.0000
     42 H16       -8.4068    3.4474    6.2043 H         1 RES1    0.0000
     43 H17       -8.5444    1.8540    6.2774 H         1 RES1    0.0000
     44 O7        -5.0735    3.5505    8.6270 O.3       1 RES1    0.0000
     45 C19       -4.6143    4.7229    9.3836 C.3       1 RES1    0.0000
     46 H18       -4.2180    4.4276   10.2532 H         1 RES1    0.0000
     47 C20       -3.5662    5.4954    8.5746 C.3       1 RES1    0.0000
     48 H19       -2.7800    4.9274    8.4314 H         1 RES1    0.0000
     49 H20       -3.3021    6.3012    9.0665 H         1 RES1    0.0000
     50 H21       -3.9453    5.7522    7.7079 H         1 RES1    0.0000
     51 C21       -5.8917    5.5297    9.6483 C.3       1 RES1    0.0000
     52 H22       -6.2557    5.8535    8.7984 H         1 RES1    0.0000
     53 H23       -5.6826    6.2929   10.2263 H         1 RES1    0.0000
     54 H24       -6.5539    4.9578   10.0903 H         1 RES1    0.0000
@<TRIPOS>BOND
     1    1    2 2
     2    2    3 1
     3    3    5 ar
     4    4    2 2
     5    5    6 1
     6    7    5 ar
     7    8    7 ar
     8    9    8 ar
     9   10    9 1
    10   11    3 ar
    11   12   11 1
    12   13    7 1
    13   14   13 1
    14   15   14 1
    15   16   14 1
    16   17   16 1
    17   18   16 1
    18   19   16 1
    19   20   14 1
    20   21   20 1
    21   22   20 1
    22   23   20 1
    23   24   27 2
    24   25   26 1
    25   27    8 1
    26   28   25 1
    27   29   28 ar
    28   30   29 1
    29   31   29 ar
    30   32   31 1
    31   33   31 ar
    32   34   33 ar
    33   35   28 ar
    34   36   35 1
    35   37   38 2
    36   38   33 1
    37   39   38 1
    38   40   39 1
    39   41   40 1
    40   42   40 1
    41   43   40 1
    42   44   34 1
    43   45   44 1
    44   46   45 1
    45   47   45 1
    46   48   47 1
    47   49   47 1
    48   50   47 1
    49   51   45 1
    50   52   51 1
    51   53   51 1
    52   54   51 1
    53    9   11 ar
    54   25   27 1
    55   34   35 ar
@<TRIPOS>SUBSTRUCTURE
     1 RES1 1

@<TRIPOS>CRYSIN
   6.5749   12.8076   13.3529 101.7776 100.8146  90.0108   2 1

