# MOL2 file generated by ConQuest
# Please check atom types

@<TRIPOS>MOLECULE
GAYXOV
    67    70     1
SMALL
NO_CHARGES
****
Generated from CSD

@<TRIPOS>ATOM
      1 O1         2.2761   -2.1299   -0.2671 O.3       1 RES1    0.0000
      2 O2         5.3874    1.6933    4.7053 O.2       1 RES1    0.0000
      3 O3         7.2566    4.1650    8.6716 O.3       1 RES1    0.0000
      4 O4         1.8089   -3.9878    0.9488 O.2       1 RES1    0.0000
      5 O5         3.3873   -2.6356    5.6945 O.3       1 RES1    0.0000
      6 N1         4.4231   -0.2378    5.4945 N.am      1 RES1    0.0000
      7 H1         4.2851   -0.6991    6.2311 H         1 RES1    0.0000
      8 C1         6.1945    2.5111    7.2240 C.ar      1 RES1    0.0000
      9 H2         6.2378    3.1009    6.4816 H         1 RES1    0.0000
     10 C2         2.2406   -2.8502    0.8844 C.2       1 RES1    0.0000
     11 N2         7.0782    2.3777   10.9211 N.pl3     1 RES1    0.0000
     12 C3         2.7896   -2.0865    2.0548 C.ar      1 RES1    0.0000
     13 C4         2.7989   -2.7492    3.3063 C.ar      1 RES1    0.0000
     14 H3         2.4480   -3.6283    3.3863 H         1 RES1    0.0000
     15 C5         4.3717    7.7354    6.2928 C.ar      1 RES1    0.0000
     16 C6         6.6971    2.9327    8.4655 C.ar      1 RES1    0.0000
     17 C7         5.6281    1.2343    7.0539 C.ar      1 RES1    0.0000
     18 C8         6.3993    5.9125    7.1158 C.ar      1 RES1    0.0000
     19 C9         5.1954    5.9526    7.7976 C.ar      1 RES1    0.0000
     20 H4         5.0552    5.3640    8.5298 H         1 RES1    0.0000
     21 C10        3.8249   -0.1281    3.0625 C.ar      1 RES1    0.0000
     22 H5         4.1543    0.7594    2.9807 H         1 RES1    0.0000
     23 C11        4.1575    6.8660    7.4184 C.ar      1 RES1    0.0000
     24 C12        6.5904    2.0296    9.5592 C.ar      1 RES1    0.0000
     25 C13        6.0261    0.7585    9.3937 C.ar      1 RES1    0.0000
     26 H6         5.9630    0.1718   10.1376 H         1 RES1    0.0000
     27 C14        5.1408    0.9242    5.6423 C.2       1 RES1    0.0000
     28 C15        3.8739   -0.7907    4.3032 C.ar      1 RES1    0.0000
     29 C16        2.6202   -3.8461    5.9727 C.3       1 RES1    0.0000
     30 H7         3.0011   -4.6137    5.4749 H         1 RES1    0.0000
     31 H8         1.6790   -3.7247    5.6918 H         1 RES1    0.0000
     32 C17        3.3289   -2.0983    4.4197 C.ar      1 RES1    0.0000
     33 O6         6.6548    1.7035   11.8689 O.2       1 RES1    0.0000
     34 C18        2.9155    6.9407    8.1254 C.ar      1 RES1    0.0000
     35 H9         2.7731    6.3886    8.8860 H         1 RES1    0.0000
     36 O7         7.8876    3.2986   11.0593 O.2       1 RES1    0.0000
     37 C19        2.1157    8.6334    6.5632 C.ar      1 RES1    0.0000
     38 H10        1.4162    9.2032    6.2648 H         1 RES1    0.0000
     39 C20        5.5553    0.3493    8.1456 C.ar      1 RES1    0.0000
     40 H11        5.1887   -0.5213    8.0332 H         1 RES1    0.0000
     41 C21        3.2856   -0.7868    1.9490 C.ar      1 RES1    0.0000
     42 H12        3.2568   -0.3435    1.1100 H         1 RES1    0.0000
     43 C22        3.3114    8.6069    5.8870 C.ar      1 RES1    0.0000
     44 H13        3.4360    9.1761    5.1368 H         1 RES1    0.0000
     45 C23        6.6196    6.8057    6.0164 C.ar      1 RES1    0.0000
     46 H14        7.4497    6.7894    5.5547 H         1 RES1    0.0000
     47 C24        1.9176    7.8095    7.7122 C.ar      1 RES1    0.0000
     48 H15        1.1009    7.8562    8.1950 H         1 RES1    0.0000
     49 C25        5.6377    7.6902    5.6234 C.ar      1 RES1    0.0000
     50 H16        5.8033    8.2781    4.8963 H         1 RES1    0.0000
     51 C26        2.6922   -4.1068    7.4812 C.3       1 RES1    0.0000
     52 H17        2.3272   -3.3058    7.9557 H         1 RES1    0.0000
     53 C27        7.5488    4.9895    7.5165 C.3       1 RES1    0.0000
     54 H18        7.7678    4.4027    6.7513 H         1 RES1    0.0000
     55 H19        8.3478    5.5418    7.7108 H         1 RES1    0.0000
     56 C28        1.8512   -2.8616   -1.4627 C.3       1 RES1    0.0000
     57 H20        1.9090   -2.2722   -2.2437 H         1 RES1    0.0000
     58 H21        0.9256   -3.1642   -1.3494 H         1 RES1    0.0000
     59 H22        2.4340   -3.6373   -1.5954 H         1 RES1    0.0000
     60 C29        4.1347   -4.3192    7.9375 C.3       1 RES1    0.0000
     61 H23        4.6791   -3.5499    7.6669 H         1 RES1    0.0000
     62 H24        4.4913   -5.1320    7.5242 H         1 RES1    0.0000
     63 H25        4.1585   -4.4088    8.9129 H         1 RES1    0.0000
     64 C30        1.8042   -5.3188    7.8232 C.3       1 RES1    0.0000
     65 H26        2.1572   -6.1174    7.3793 H         1 RES1    0.0000
     66 H27        0.8891   -5.1501    7.5153 H         1 RES1    0.0000
     67 H28        1.8020   -5.4574    8.7927 H         1 RES1    0.0000
@<TRIPOS>BOND
     1    1   10 1
     2    2   27 2
     3    3   16 1
     4    4   10 2
     5    5   29 1
     6    6    7 1
     7    8    9 1
     8   10   12 1
     9   11   24 1
    10   12   13 ar
    11   13   14 1
    12   15   23 ar
    13   16    8 ar
    14   17    8 ar
    15   18   19 ar
    16   19   20 1
    17   21   22 1
    18   23   19 ar
    19   24   16 ar
    20   25   24 ar
    21   26   25 1
    22   27    6 1
    23   28    6 1
    24   29   30 1
    25   31   29 1
    26   32    5 1
    27   33   11 2
    28   34   23 ar
    29   35   34 1
    30   36   11 2
    31   37   38 1
    32   39   17 ar
    33   40   39 1
    34   41   12 ar
    35   42   41 1
    36   43   15 ar
    37   44   43 1
    38   45   18 ar
    39   46   45 1
    40   47   34 ar
    41   48   47 1
    42   49   15 ar
    43   50   49 1
    44   51   29 1
    45   52   51 1
    46   53    3 1
    47   54   53 1
    48   55   53 1
    49   56    1 1
    50   57   56 1
    51   58   56 1
    52   59   56 1
    53   60   51 1
    54   61   60 1
    55   62   60 1
    56   63   60 1
    57   64   51 1
    58   65   64 1
    59   66   64 1
    60   67   64 1
    61   13   32 ar
    62   17   27 1
    63   18   53 1
    64   21   28 ar
    65   21   41 ar
    66   25   39 ar
    67   28   32 ar
    68   37   43 ar
    69   37   47 ar
    70   45   49 ar
@<TRIPOS>SUBSTRUCTURE
     1 RES1 1

@<TRIPOS>CRYSIN
   7.7976   30.1350   11.4892  90.0000 102.0690  90.0000 231 1

