# MOL2 file generated by ConQuest
# Please check atom types

@<TRIPOS>MOLECULE
GAYYOW
    56    57     1
SMALL
NO_CHARGES
****
Generated from CSD

@<TRIPOS>ATOM
      1 O1         4.3099    5.8539    7.5520 O.3       1 RES1    0.0000
      2 C1         3.7458    4.6209    7.4453 C.ar      1 RES1    0.0000
      3 C2         2.9105    4.0515    8.3964 C.ar      1 RES1    0.0000
      4 C3         2.4070    2.7631    8.2445 C.ar      1 RES1    0.0000
      5 C4         2.7642    1.9904    7.1229 C.ar      1 RES1    0.0000
      6 N1         2.2958    0.6706    7.0151 N.am      1 RES1    0.0000
      7 C5         2.1184   -0.0647    5.8796 C.2       1 RES1    0.0000
      8 O2         2.3948    0.3497    4.7621 O.2       1 RES1    0.0000
      9 C6         1.5144   -1.4172    6.1267 C.3       1 RES1    0.0000
     10 C7         3.6097    2.5511    6.1659 C.ar      1 RES1    0.0000
     11 C8         4.0553    3.8455    6.3301 C.ar      1 RES1    0.0000
     12 N2         4.9299    4.3757    5.2791 N.pl3     1 RES1    0.0000
     13 O3         4.6716    5.4788    4.8280 O.2       1 RES1    0.0000
     14 O4         5.8436    3.6533    4.8863 O.2       1 RES1    0.0000
     15 C9         1.5284    2.1698    9.3108 C.2       1 RES1    0.0000
     16 O5         1.5974    0.9838    9.6011 O.2       1 RES1    0.0000
     17 N3         0.6685    3.0422    9.8983 N.am      1 RES1    0.0000
     18 C10       -0.2474    2.7876   10.9407 C.ar      1 RES1    0.0000
     19 C11       -1.0749    3.8711   11.2928 C.ar      1 RES1    0.0000
     20 O6        -0.8784    4.9921   10.5410 O.3       1 RES1    0.0000
     21 C12       -1.6928    6.1333   10.8224 C.3       1 RES1    0.0000
     22 C13       -1.9710    3.7356   12.3329 C.ar      1 RES1    0.0000
     23 C14       -2.0755    2.5246   13.0328 C.ar      1 RES1    0.0000
     24 C15       -1.2548    1.4396   12.6612 C.ar      1 RES1    0.0000
     25 C16       -0.3429    1.5804   11.6088 C.ar      1 RES1    0.0000
     26 N4        -1.3390    0.2372   13.3835 N.am      1 RES1    0.0000
     27 C17       -0.6920   -0.9375   13.1920 C.2       1 RES1    0.0000
     28 O7         0.0655   -1.1622   12.2747 O.2       1 RES1    0.0000
     29 C18       -0.9922   -1.9788   14.2415 C.3       1 RES1    0.0000
     30 C19       -3.0180    2.4103   14.1705 C.2       1 RES1    0.0000
     31 O8        -3.2040    1.4022   14.8302 O.2       1 RES1    0.0000
     32 O9        -3.6658    3.5429   14.4406 O.3       1 RES1    0.0000
     33 C20       -4.5136    3.4939   15.6207 C.3       1 RES1    0.0000
     34 C21        4.2577    6.4871    8.8446 C.3       1 RES1    0.0000
     35 H1         2.6782    4.5557    9.1673 H         1 RES1    0.0000
     36 H2         3.8755    2.0461    5.4065 H         1 RES1    0.0000
     37 H3        -1.4631    6.8442   10.2352 H         1 RES1    0.0000
     38 H4        -1.5508    6.4069   11.7205 H         1 RES1    0.0000
     39 H5        -2.6079    5.9063   10.7021 H         1 RES1    0.0000
     40 H6        -2.5233    4.4699   12.5747 H         1 RES1    0.0000
     41 H7         0.2059    0.8490   11.3528 H         1 RES1    0.0000
     42 H8        -0.5086   -2.7732   14.0482 H         1 RES1    0.0000
     43 H9        -0.7336   -1.6499   15.0940 H         1 RES1    0.0000
     44 H10       -1.9234   -2.1675   14.2438 H         1 RES1    0.0000
     45 H11       -4.9350    4.3362   15.7421 H         1 RES1    0.0000
     46 H12       -3.9832    3.2911   16.3824 H         1 RES1    0.0000
     47 H13       -5.1761    2.8220   15.5087 H         1 RES1    0.0000
     48 H14        4.6800    7.3367    8.7995 H         1 RES1    0.0000
     49 H15        4.7057    5.9441    9.4828 H         1 RES1    0.0000
     50 H16        3.3510    6.5972    9.1047 H         1 RES1    0.0000
     51 H17       -1.9124    0.2632   14.0260 H         1 RES1    0.0000
     52 H18        2.0033    0.3334    7.7328 H         1 RES1    0.0000
     53 H19        0.6173    3.8492    9.6132 H         1 RES1    0.0000
     54 H20        1.5546   -1.6084    7.0560 H         1 RES1    0.0000
     55 H21        0.6079   -1.4118    5.8433 H         1 RES1    0.0000
     56 H22        1.9974   -2.0777    5.6438 H         1 RES1    0.0000
@<TRIPOS>BOND
     1    1    2 1
     2    2    3 ar
     3    3    4 ar
     4    4    5 ar
     5    5    6 1
     6    6    7 1
     7    7    8 2
     8    9    7 1
     9   10    5 ar
    10   11    2 ar
    11   12   11 1
    12   13   12 2
    13   14   12 2
    14   15    4 1
    15   16   15 2
    16   17   15 1
    17   18   17 1
    18   19   18 ar
    19   20   19 1
    20   21   20 1
    21   22   19 ar
    22   23   22 ar
    23   24   23 ar
    24   25   18 ar
    25   26   24 1
    26   27   26 1
    27   28   27 2
    28   29   27 1
    29   30   23 1
    30   31   30 2
    31   32   30 1
    32   33   32 1
    33   34    1 1
    34   35    3 1
    35   36   10 1
    36   37   21 1
    37   38   21 1
    38   39   21 1
    39   40   22 1
    40   41   25 1
    41   42   29 1
    42   43   29 1
    43   44   29 1
    44   45   33 1
    45   46   33 1
    46   47   33 1
    47   48   34 1
    48   49   34 1
    49   50   34 1
    50   51   26 1
    51   52    6 1
    52   53   17 1
    53   54    9 1
    54   55    9 1
    55   56    9 1
    56   10   11 ar
    57   24   25 ar
@<TRIPOS>SUBSTRUCTURE
     1 RES1 1

@<TRIPOS>CRYSIN
   9.4644    9.5545   13.3935  93.2495 100.2027 114.6918   2 1

