# MOL2 file generated by ConQuest
# Please check atom types

@<TRIPOS>MOLECULE
GAZBEQ
    35    36     1
SMALL
NO_CHARGES
****
Generated from CSD

@<TRIPOS>ATOM
      1 O1         7.9868    2.4090    5.0630 O.2       1 RES1    0.0000
      2 O2        10.1154    2.1063    5.7131 O.3       1 RES1    0.0000
      3 O3         9.9068    4.9158    5.2001 O.2       1 RES1    0.0000
      4 O4        11.1571    5.9834    3.6799 O.3       1 RES1    0.0000
      5 O5         8.3985    3.2746   -0.7196 O.2       1 RES1    0.0000
      6 O6         9.6065    3.1901   -2.5020 O.2       1 RES1    0.0000
      7 N1        10.7278    3.0499    0.8887 N.ar      1 RES1    0.0000
      8 N2         9.1494    2.6926   -1.4823 N.pl3     1 RES1    0.0000
      9 C1        10.0514    1.9339    1.2115 C.ar      1 RES1    0.0000
     10 C2         9.5540    1.6896    2.4864 C.ar      1 RES1    0.0000
     11 C3         9.7335    2.6481    3.4704 C.ar      1 RES1    0.0000
     12 C4        10.3925    3.8346    3.1377 C.ar      1 RES1    0.0000
     13 C5        10.8810    3.9702    1.8403 C.ar      1 RES1    0.0000
     14 C6         9.1634    2.3970    4.8355 C.2       1 RES1    0.0000
     15 C7         9.6741    1.9725    7.0897 C.3       1 RES1    0.0000
     16 H1         9.2622    2.7910    7.3744 H         1 RES1    0.0000
     17 H2        10.4297    1.7819    7.6505 H         1 RES1    0.0000
     18 H3         9.0392    1.2552    7.1542 H         1 RES1    0.0000
     19 C8        10.4576    4.9454    4.1302 C.2       1 RES1    0.0000
     20 C9        11.1381    7.1436    4.5436 C.3       1 RES1    0.0000
     21 H4        10.2299    7.3760    4.7473 H         1 RES1    0.0000
     22 H5        11.5648    7.8802    4.0990 H         1 RES1    0.0000
     23 H6        11.6081    6.9450    5.3567 H         1 RES1    0.0000
     24 C10        9.8672    0.9376    0.1225 C.ar      1 RES1    0.0000
     25 C11        9.5113    1.3017   -1.1776 C.ar      1 RES1    0.0000
     26 C12        9.4220    0.3892   -2.2086 C.ar      1 RES1    0.0000
     27 C13        9.6702   -0.9440   -1.9423 C.ar      1 RES1    0.0000
     28 C14       10.0076   -1.3468   -0.6686 C.ar      1 RES1    0.0000
     29 C15       10.1137   -0.4118    0.3527 C.ar      1 RES1    0.0000
     30 H7        11.3678    4.7281    1.5850 H         1 RES1    0.0000
     31 H8         9.0870    0.9006    2.6799 H         1 RES1    0.0000
     32 H9        10.3850   -0.6915    1.2562 H         1 RES1    0.0000
     33 H10        9.5665   -1.6162   -2.7249 H         1 RES1    0.0000
     34 H11       10.1318   -2.2756   -0.4963 H         1 RES1    0.0000
     35 H12        9.1061    0.6996   -3.0770 H         1 RES1    0.0000
@<TRIPOS>BOND
     1    1   14 2
     2    2   14 1
     3    3   19 2
     4    4   19 1
     5    5    8 2
     6    6    8 2
     7    7    9 ar
     8    8   25 1
     9    9   10 ar
    10   10   11 ar
    11   11   12 ar
    12   12   13 ar
    13   13    7 ar
    14   14   11 1
    15   15    2 1
    16   16   15 1
    17   17   15 1
    18   18   15 1
    19   19   12 1
    20   20    4 1
    21   21   20 1
    22   22   20 1
    23   23   20 1
    24   24    9 1
    25   25   24 ar
    26   26   25 ar
    27   27   26 ar
    28   28   27 ar
    29   29   24 ar
    30   30   13 1
    31   31   10 1
    32   32   29 1
    33   33   27 1
    34   34   28 1
    35   35   26 1
    36   28   29 ar
@<TRIPOS>SUBSTRUCTURE
     1 RES1 1

@<TRIPOS>CRYSIN
  11.8445    8.0410   15.8248  90.0000 101.4689  90.0000 231 1

