# MOL2 file generated by ConQuest
# Please check atom types

@<TRIPOS>MOLECULE
GAZGAR
    56    56     1
SMALL
NO_CHARGES
****
Generated from CSD

@<TRIPOS>ATOM
      1 O1         1.8425   13.3674    8.0536 O.2       1 RES1    0.0000
      2 O2         0.0670   12.5092    8.9097 O.2       1 RES1    0.0000
      3 O3         6.7085    6.5960    3.3363 O.2       1 RES1    0.0000
      4 O4         9.1546    8.1954    5.1441 O.2       1 RES1    0.0000
      5 O5         7.4091    7.2885    6.2336 O.3       1 RES1    0.0000
      6 O6         6.1022   11.4860    3.6510 O.2       1 RES1    0.0000
      7 O7         7.1189   11.1294    1.6618 O.3       1 RES1    0.0000
      8 N1         1.1083   12.4210    8.2601 N.pl3     1 RES1    0.0000
      9 N2         4.4822    8.4656    5.1947 N.2       1 RES1    0.0000
     10 N3         5.6438    8.1929    4.5145 N.am      1 RES1    0.0000
     11 N4         4.3523    4.7045    1.6208 N.1       1 RES1    0.0000
     12 N5         9.0168    8.4107    1.7648 N.2       1 RES1    0.0000
     13 C1         2.7017   10.9709    7.0903 C.ar      1 RES1    0.0000
     14 H1         3.3122   11.6971    7.0490 H         1 RES1    0.0000
     15 C2         1.4641   11.1207    7.6919 C.ar      1 RES1    0.0000
     16 C3         0.5438   10.0990    7.7756 C.ar      1 RES1    0.0000
     17 H2        -0.3025   10.2344    8.1842 H         1 RES1    0.0000
     18 C4         0.8950    8.8686    7.2454 C.ar      1 RES1    0.0000
     19 H3         0.2826    8.1448    7.2990 H         1 RES1    0.0000
     20 C5         2.1128    8.6806    6.6471 C.ar      1 RES1    0.0000
     21 H4         2.3386    7.8269    6.2955 H         1 RES1    0.0000
     22 C6         3.0301    9.7393    6.5489 C.ar      1 RES1    0.0000
     23 C7         4.3085    9.5484    5.8490 C.2       1 RES1    0.0000
     24 H5         4.9872   10.2127    5.8825 H         1 RES1    0.0000
     25 C8         5.6674    7.0243    3.8063 C.2       1 RES1    0.0000
     26 C9         4.3305    6.3152    3.6266 C.3       1 RES1    0.0000
     27 H6         4.1074    5.8228    4.4560 H         1 RES1    0.0000
     28 H7         3.6212    6.9882    3.4704 H         1 RES1    0.0000
     29 C10        4.3679    5.3990    2.5249 C.1       1 RES1    0.0000
     30 C11        6.9215    8.9394    4.6323 C.3       1 RES1    0.0000
     31 H8         6.7379    9.7127    5.2396 H         1 RES1    0.0000
     32 C12        7.3746    9.5282    3.3264 C.2       1 RES1    0.0000
     33 C13        8.1984    8.8903    2.4858 C.2       1 RES1    0.0000
     34 C14        7.9765    8.0898    5.3322 C.2       1 RES1    0.0000
     35 C15        8.3330    6.5742    7.0836 C.3       1 RES1    0.0000
     36 H9         7.8326    6.0145    7.7131 H         1 RES1    0.0000
     37 H10        8.8816    7.2158    7.5825 H         1 RES1    0.0000
     38 H11        8.9134    6.0081    6.5333 H         1 RES1    0.0000
     39 C16        6.7992   10.7988    2.9290 C.2       1 RES1    0.0000
     40 C17        6.5685   12.3652    1.1542 C.3       1 RES1    0.0000
     41 H12        6.8612   12.4972    0.2277 H         1 RES1    0.0000
     42 H13        6.8798   13.1126    1.7045 H         1 RES1    0.0000
     43 H14        5.5892   12.3223    1.1832 H         1 RES1    0.0000
     44 C18        8.9567    7.4571    0.6128 C.3       1 RES1    0.0000
     45 C19        9.8877    8.0006   -0.4431 C.3       1 RES1    0.0000
     46 H15       10.7995    8.0431   -0.0848 H         1 RES1    0.0000
     47 H16        9.5971    8.8993   -0.7032 H         1 RES1    0.0000
     48 H17        9.8723    7.4121   -1.2267 H         1 RES1    0.0000
     49 C20        9.4469    6.1277    1.1586 C.3       1 RES1    0.0000
     50 H18       10.3718    6.2222    1.4701 H         1 RES1    0.0000
     51 H19        9.4081    5.4501    0.4510 H         1 RES1    0.0000
     52 H20        8.8771    5.8508    1.9065 H         1 RES1    0.0000
     53 C21        7.5275    7.3613    0.1150 C.3       1 RES1    0.0000
     54 H21        6.9569    7.0064    0.8282 H         1 RES1    0.0000
     55 H22        7.4919    6.7627   -0.6608 H         1 RES1    0.0000
     56 H23        7.2113    8.2514   -0.1440 H         1 RES1    0.0000
@<TRIPOS>BOND
     1    1    8 2
     2    2    8 2
     3    3   25 2
     4    4   34 2
     5    5   34 1
     6    6   39 2
     7    7   39 1
     8    8   15 1
     9    9   10 1
    10   10   25 1
    11   11   29 3
    12   12   33 2
    13   13   14 1
    14   15   13 ar
    15   16   15 ar
    16   17   16 1
    17   18   16 ar
    18   19   18 1
    19   20   18 ar
    20   21   20 1
    21   22   13 ar
    22   23    9 2
    23   24   23 1
    24   25   26 1
    25   26   27 1
    26   28   26 1
    27   29   26 1
    28   30   10 1
    29   31   30 1
    30   32   30 1
    31   33   32 2
    32   34   30 1
    33   35    5 1
    34   36   35 1
    35   37   35 1
    36   38   35 1
    37   39   32 1
    38   40    7 1
    39   41   40 1
    40   42   40 1
    41   43   40 1
    42   44   12 1
    43   45   44 1
    44   46   45 1
    45   47   45 1
    46   48   45 1
    47   49   44 1
    48   50   49 1
    49   51   49 1
    50   52   49 1
    51   53   44 1
    52   54   53 1
    53   55   53 1
    54   56   53 1
    55   20   22 ar
    56   22   23 1
@<TRIPOS>SUBSTRUCTURE
     1 RES1 1

@<TRIPOS>CRYSIN
  10.6980   10.9390   12.0910  71.4600  70.3100  62.9400   2 1

