# MOL2 file generated by ConQuest
# Please check atom types

@<TRIPOS>MOLECULE
GAZNOM
    57    58     2
SMALL
NO_CHARGES
****
Generated from CSD

@<TRIPOS>ATOM
      1 O1         3.0810    8.5431   20.9254 O.2       1 RES1    0.0000
      2 N1         0.0024    4.7870   21.9010 N.2       1 RES1    0.0000
      3 O2        -0.6124    4.4631   20.8871 O.2       1 RES1    0.0000
      4 C1         2.9896    6.2759   20.1775 C.3       1 RES1    0.0000
      5 H1         3.0378    6.6954   19.2933 H         1 RES1    0.0000
      6 C2         1.6443    5.5240   20.2743 C.3       1 RES1    0.0000
      7 H2         0.9611    6.1217   19.9049 H         1 RES1    0.0000
      8 N2         1.2524    5.2487   21.6776 N.3       1 RES1    0.0000
      9 C3         1.6394    6.1213   22.8259 C.3       1 RES1    0.0000
     10 H3         0.9660    6.8317   22.8634 H         1 RES1    0.0000
     11 C4         3.0150    6.8416   22.6316 C.3       1 RES1    0.0000
     12 C5         4.2415    5.9067   22.7918 C.3       1 RES1    0.0000
     13 H4         5.0470    6.4455   22.7615 H         1 RES1    0.0000
     14 H5         4.2005    5.4901   23.6678 H         1 RES1    0.0000
     15 C6         4.3479    4.8249   21.7487 C.3       1 RES1    0.0000
     16 H6         3.6387    4.1770   21.8817 H         1 RES1    0.0000
     17 H7         5.1966    4.3655   21.8462 H         1 RES1    0.0000
     18 C7         4.2453    5.4014   20.3579 C.3       1 RES1    0.0000
     19 H8         4.2233    4.6768   19.7143 H         1 RES1    0.0000
     20 H9         5.0340    5.9366   20.1753 H         1 RES1    0.0000
     21 C8         3.0289    7.3660   21.2104 C.2       1 RES1    0.0000
     22 C9         1.6474    4.2775   19.4094 C.ar      1 RES1    0.0000
     23 C10        1.9059    2.9944   19.8856 C.ar      1 RES1    0.0000
     24 H10        2.0555    2.8672   20.7936 H         1 RES1    0.0000
     25 C11        1.9433    1.9131   19.0378 C.ar      1 RES1    0.0000
     26 H11        2.1149    1.0644   19.3775 H         1 RES1    0.0000
     27 C12        1.7262    2.0847   17.6764 C.ar      1 RES1    0.0000
     28 C13        1.4961    3.3557   17.1807 C.ar      1 RES1    0.0000
     29 H12        1.3668    3.4863   16.2683 H         1 RES1    0.0000
     30 C14        1.4603    4.4334   18.0518 C.ar      1 RES1    0.0000
     31 H13        1.3067    5.2845   17.7110 H         1 RES1    0.0000
     32 C15        1.5347    5.3777   24.1425 C.ar      1 RES1    0.0000
     33 C16        2.0427    4.1037   24.3464 C.ar      1 RES1    0.0000
     34 H14        2.4182    3.6453   23.6302 H         1 RES1    0.0000
     35 C17        2.0057    3.4952   25.5896 C.ar      1 RES1    0.0000
     36 H15        2.3662    2.6457   25.7044 H         1 RES1    0.0000
     37 C18        1.4311    4.1550   26.6567 C.ar      1 RES1    0.0000
     38 C19        0.8887    5.4145   26.4619 C.ar      1 RES1    0.0000
     39 H16        0.4895    5.8605   27.1737 H         1 RES1    0.0000
     40 C20        0.9362    6.0111   25.2238 C.ar      1 RES1    0.0000
     41 H17        0.5610    6.8544   25.1083 H         1 RES1    0.0000
     42 C21        3.1118    7.9872   23.6375 C.3       1 RES1    0.0000
     43 H18        3.0996    7.6326   24.5299 H         1 RES1    0.0000
     44 H19        2.3662    8.5800   23.5194 H         1 RES1    0.0000
     45 H20        3.9298    8.4698   23.4950 H         1 RES1    0.0000
     46 O3         1.7388    0.9434   16.9154 O.3       1 RES1    0.0000
     47 O4         1.3548    3.6719   27.9385 O.3       1 RES1    0.0000
     48 C22        1.6165    1.0989   15.5237 C.3       1 RES1    0.0000
     49 H21        1.5742    0.2351   15.1071 H         1 RES1    0.0000
     50 H22        2.3759    1.5801   15.1869 H         1 RES1    0.0000
     51 H23        0.8147    1.5881   15.3265 H         1 RES1    0.0000
     52 C23        1.7807    2.3521   28.1809 C.3       1 RES1    0.0000
     53 H24        1.6604    2.1424   29.1106 H         1 RES1    0.0000
     54 H25        2.7093    2.2685   27.9515 H         1 RES1    0.0000
     55 H26        1.2636    1.7460   27.6457 H         1 RES1    0.0000
     56 N3         0.0407    4.6688   21.6689 Du        2 SUP2    0.0000
     57 O5        -0.6188    4.8642   22.6861 Du        2 SUP2    0.0000
@<TRIPOS>BOND
     1    1   21 2
     2    2    3 2
     3    4    5 1
     4    6    4 1
     5    7    6 1
     6    8    2 1
     7    9    8 1
     8   10    9 1
     9   11    9 1
    10   12   11 1
    11   13   12 1
    12   14   12 1
    13   15   12 1
    14   16   15 1
    15   17   15 1
    16   18    4 1
    17   19   18 1
    18   20   18 1
    19   21    4 1
    20   22    6 1
    21   23   22 ar
    22   24   23 1
    23   25   23 ar
    24   26   25 1
    25   27   25 ar
    26   28   27 ar
    27   29   28 1
    28   30   22 ar
    29   31   30 1
    30   32    9 1
    31   33   32 ar
    32   34   33 1
    33   35   33 ar
    34   36   35 1
    35   37   35 ar
    36   38   37 ar
    37   39   38 1
    38   40   32 ar
    39   41   40 1
    40   42   11 1
    41   43   42 1
    42   44   42 1
    43   45   42 1
    44   46   27 1
    45   47   37 1
    46   48   46 1
    47   49   48 1
    48   50   48 1
    49   51   48 1
    50   52   47 1
    51   53   52 1
    52   54   52 1
    53   55   52 1
    54    6    8 1
    55   11   21 1
    56   15   18 1
    57   28   30 ar
    58   38   40 ar
@<TRIPOS>SUBSTRUCTURE
     1 RES1 1
     2 SUP2 56

@<TRIPOS>CRYSIN
   8.1311   11.3597   22.1609  90.0000  90.0000  90.0000  19 1

