# MOL2 file generated by ConQuest
# Please check atom types

@<TRIPOS>MOLECULE
GECZAR
    45    48     1
SMALL
NO_CHARGES
****
Generated from CSD

@<TRIPOS>ATOM
      1 C1         5.6660    3.3451    3.4559 C.2       1 RES1    0.0000
      2 C2         6.4752    2.8433    2.3752 C.ar      1 RES1    0.0000
      3 C3         7.0074    1.9576    4.9581 C.2       1 RES1    0.0000
      4 C4         6.1830    3.3203    1.0866 C.ar      1 RES1    0.0000
      5 H1         5.5138    3.9551    0.9679 H         1 RES1    0.0000
      6 C5         6.8791    2.8549    0.0040 C.ar      1 RES1    0.0000
      7 H2         6.7021    3.1864   -0.8471 H         1 RES1    0.0000
      8 C6         7.8252    1.9106    0.1821 C.ar      1 RES1    0.0000
      9 H3         8.2662    1.5711   -0.5621 H         1 RES1    0.0000
     10 C7         8.1640    1.4257    1.4429 C.ar      1 RES1    0.0000
     11 H4         8.8427    0.7962    1.5359 H         1 RES1    0.0000
     12 C8         7.4679    1.9000    2.5790 C.ar      1 RES1    0.0000
     13 C9         7.7690    1.4726    3.9408 C.2       1 RES1    0.0000
     14 C10        8.8650    0.5674    4.2575 C.2       1 RES1    0.0000
     15 C11        9.2771    0.4646    5.6806 C.3       1 RES1    0.0000
     16 H5         9.8115    1.2404    5.9122 H         1 RES1    0.0000
     17 H6         9.8319   -0.3227    5.7934 H         1 RES1    0.0000
     18 C12        8.1038    0.3786    6.6207 C.3       1 RES1    0.0000
     19 C13        7.2398    1.6012    6.3991 C.3       1 RES1    0.0000
     20 H7         6.3797    1.4514    6.8226 H         1 RES1    0.0000
     21 H8         7.6562    2.3575    6.8424 H         1 RES1    0.0000
     22 C14        7.3106   -0.8901    6.3555 C.3       1 RES1    0.0000
     23 H9         6.9721   -0.8733    5.4569 H         1 RES1    0.0000
     24 H10        6.5776   -0.9442    6.9731 H         1 RES1    0.0000
     25 H11        7.8807   -1.6535    6.4683 H         1 RES1    0.0000
     26 C15        8.6014    0.3697    8.0696 C.3       1 RES1    0.0000
     27 H12        9.2342   -0.3431    8.1864 H         1 RES1    0.0000
     28 H13        7.8583    0.2376    8.6634 H         1 RES1    0.0000
     29 H14        9.0242    1.2084    8.2675 H         1 RES1    0.0000
     30 C16        5.2535    3.4489    5.8290 C.ar      1 RES1    0.0000
     31 C17        5.7260    4.5421    6.4822 C.ar      1 RES1    0.0000
     32 H15        6.5157    4.9455    6.2011 H         1 RES1    0.0000
     33 C18        5.0442    5.0510    7.5530 C.ar      1 RES1    0.0000
     34 H16        5.3728    5.7966    8.0023 H         1 RES1    0.0000
     35 C19        3.8817    4.4694    7.9647 C.ar      1 RES1    0.0000
     36 H17        3.4195    4.8001    8.7010 H         1 RES1    0.0000
     37 C20        3.4177    3.4054    7.2858 C.ar      1 RES1    0.0000
     38 C21        4.0699    2.8611    6.2031 C.ar      1 RES1    0.0000
     39 H18        3.7246    2.1287    5.7439 H         1 RES1    0.0000
     40 N1         6.0099    2.8823    4.7285 N.am      1 RES1    0.0000
     41 N2         2.2280    2.7227    7.7489 N.pl3     1 RES1    0.0000
     42 O1         4.7448    4.1449    3.3351 O.2       1 RES1    0.0000
     43 O2         9.5146   -0.0372    3.4222 O.2       1 RES1    0.0000
     44 O3         1.8405    2.9089    8.9148 O.2       1 RES1    0.0000
     45 O4         1.6305    1.9558    7.0087 O.2       1 RES1    0.0000
@<TRIPOS>BOND
     1    1    2 1
     2    2    4 ar
     3    3   13 2
     4    4    5 1
     5    6    4 ar
     6    7    6 1
     7    8    6 ar
     8    9    8 1
     9   10    8 ar
    10   11   10 1
    11   12    2 ar
    12   13   12 1
    13   14   13 1
    14   15   14 1
    15   16   15 1
    16   17   15 1
    17   18   15 1
    18   19    3 1
    19   20   19 1
    20   21   19 1
    21   22   18 1
    22   23   22 1
    23   24   22 1
    24   25   22 1
    25   26   18 1
    26   27   26 1
    27   28   26 1
    28   29   26 1
    29   30   31 ar
    30   31   32 1
    31   33   31 ar
    32   34   33 1
    33   35   33 ar
    34   36   35 1
    35   37   35 ar
    36   38   30 ar
    37   39   38 1
    38   40    1 1
    39   41   37 1
    40   42    1 2
    41   43   14 2
    42   44   41 2
    43   45   41 2
    44    3   40 1
    45   10   12 ar
    46   18   19 1
    47   30   40 1
    48   37   38 ar
@<TRIPOS>SUBSTRUCTURE
     1 RES1 1

@<TRIPOS>CRYSIN
  10.2150    8.8660   20.0810  90.0000  99.7160  90.0000  14 1

