# MOL2 file generated by ConQuest
# Please check atom types

@<TRIPOS>MOLECULE
GEDXUJ
    17    17     1
SMALL
NO_CHARGES
****
Generated from CSD

@<TRIPOS>ATOM
      1 O1         4.1371    0.9518    0.0794 O.2       1 RES1    0.0000
      2 O2         2.6662    2.5584   -0.0853 O.2       1 RES1    0.0000
      3 N1         1.9021    3.5983    2.5960 N.3       1 RES1    0.0000
      4 N2         0.7182    3.8794    3.1599 N.2       1 RES1    0.0000
      5 N3         0.0798    2.7545    3.2773 N.2       1 RES1    0.0000
      6 N4         0.8224    1.7271    2.7866 N.2       1 RES1    0.0000
      7 N5         3.0515    1.6071    1.8940 N.pl3     1 RES1    0.0000
      8 N6         3.2909    1.7085    0.5284 N.pl3     1 RES1    0.0000
      9 C1         1.9331    2.2816    2.3731 C.2       1 RES1    0.0000
     10 C2         2.9175    4.6158    2.3577 C.3       1 RES1    0.0000
     11 H1         2.6561    5.4065    2.8922 H         1 RES1    0.0000
     12 H2         3.0134    4.7821    1.4723 H         1 RES1    0.0000
     13 H3         3.6863    4.3836    2.7910 H         1 RES1    0.0000
     14 C3         3.5720    0.4384    2.5962 C.3       1 RES1    0.0000
     15 H4         4.5141    0.3719    2.5416 H         1 RES1    0.0000
     16 H5         3.1861   -0.3454    2.2537 H         1 RES1    0.0000
     17 H6         3.3290    0.5181    3.4888 H         1 RES1    0.0000
@<TRIPOS>BOND
     1    1    8 2
     2    2    8 2
     3    3    4 1
     4    4    5 2
     5    5    6 1
     6    6    9 2
     7    7    8 1
     8    9    3 1
     9   10    3 1
    10   11   10 1
    11   12   10 1
    12   13   10 1
    13   14    7 1
    14   15   14 1
    15   16   14 1
    16   17   14 1
    17    7    9 1
@<TRIPOS>SUBSTRUCTURE
     1 RES1 1

@<TRIPOS>CRYSIN
   5.9553   13.2837   17.4438  90.0000  90.0000  90.0000  61 1

