# MOL2 file generated by ConQuest
# Please check atom types

@<TRIPOS>MOLECULE
GEDYEU
    15    16     1
SMALL
NO_CHARGES
****
Generated from CSD

@<TRIPOS>ATOM
      1 O1         6.0021   -0.5566    3.1247 O.2       1 RES1    0.0000
      2 O2         4.1482   -0.3248    2.0296 O.2       1 RES1    0.0000
      3 N1         6.4457    1.1679    5.3911 N.2       1 RES1    0.0000
      4 N2         6.4210    2.0284    6.4122 N.2       1 RES1    0.0000
      5 N3         5.3238    2.7552    6.4782 N.2       1 RES1    0.0000
      6 N4         4.6003    2.2820    5.4093 N.3       1 RES1    0.0000
      7 N5         4.5470    0.9387    3.7189 N.pl3     1 RES1    0.0000
      8 N6         4.9272   -0.0634    2.8925 N.pl3     1 RES1    0.0000
      9 C1         5.2669    1.3850    4.7957 C.2       1 RES1    0.0000
     10 C2         3.3083    2.5781    4.8606 C.3       1 RES1    0.0000
     11 H1         3.2637    3.4924    4.5385 H         1 RES1    0.0000
     12 H2         2.6071    2.4374    5.5163 H         1 RES1    0.0000
     13 C3         3.1988    1.5760    3.7064 C.3       1 RES1    0.0000
     14 H3         2.4992    0.9248    3.8680 H         1 RES1    0.0000
     15 H4         3.0290    2.0249    2.8629 H         1 RES1    0.0000
@<TRIPOS>BOND
     1    1    8 2
     2    2    8 2
     3    3    4 1
     4    4    5 2
     5    5    6 1
     6    6    9 1
     7    7    8 1
     8    9    3 2
     9   10    6 1
    10   11   10 1
    11   12   10 1
    12   13    7 1
    13   14   13 1
    14   15   13 1
    15    7    9 1
    16   10   13 1
@<TRIPOS>SUBSTRUCTURE
     1 RES1 1

@<TRIPOS>CRYSIN
   6.2083    8.6833   11.6510  90.0000 102.3080  90.0000  14 1

