# MOL2 file generated by ConQuest
# Please check atom types

@<TRIPOS>MOLECULE
GEDYAQ
    29    29     1
SMALL
NO_CHARGES
****
Generated from CSD

@<TRIPOS>ATOM
      1 O1         2.4376    4.8795    8.3609 O.2       1 RES1    0.0000
      2 O2         2.8868    3.6095    6.6557 O.2       1 RES1    0.0000
      3 N1        -0.5060    5.8309    8.2163 N.3       1 RES1    0.0000
      4 N2        -0.9197    7.0715    8.5133 N.2       1 RES1    0.0000
      5 N3        -0.2693    7.8789    7.7239 N.2       1 RES1    0.0000
      6 N4         0.5730    7.1905    6.9117 N.2       1 RES1    0.0000
      7 N5         1.0323    4.8265    6.6558 N.pl3     1 RES1    0.0000
      8 N6         2.2005    4.4136    7.2534 N.pl3     1 RES1    0.0000
      9 C1         0.4089    5.9293    7.2447 C.2       1 RES1    0.0000
     10 C2        -1.0180    4.6445    8.9379 C.3       1 RES1    0.0000
     11 H1        -0.5778    3.9217    8.5120 H         1 RES1    0.0000
     12 C3        -2.5136    4.5261    8.7316 C.3       1 RES1    0.0000
     13 H2        -2.9492    5.2432    9.1709 H         1 RES1    0.0000
     14 H3        -2.8336    3.7415    9.1304 H         1 RES1    0.0000
     15 H4        -2.7746    4.5124    7.7740 H         1 RES1    0.0000
     16 C4        -0.6086    4.7314   10.3935 C.3       1 RES1    0.0000
     17 H5        -1.0619    5.4446   10.7804 H         1 RES1    0.0000
     18 H6        -0.8965    3.9105   10.8310 H         1 RES1    0.0000
     19 H7         0.4060    4.8440   10.4828 H         1 RES1    0.0000
     20 C5         0.6952    4.3398    5.2931 C.3       1 RES1    0.0000
     21 H8         1.0243    3.4487    5.2697 H         1 RES1    0.0000
     22 C6        -0.8092    4.2820    5.1837 C.3       1 RES1    0.0000
     23 H9        -1.2111    5.1280    5.2627 H         1 RES1    0.0000
     24 H10       -1.2704    3.7040    5.9115 H         1 RES1    0.0000
     25 H11       -1.0546    3.8867    4.3223 H         1 RES1    0.0000
     26 C7         1.3426    5.1919    4.2221 C.3       1 RES1    0.0000
     27 H12        0.9981    6.1566    4.2818 H         1 RES1    0.0000
     28 H13        2.2662    5.1931    4.3020 H         1 RES1    0.0000
     29 H14        1.0713    4.8715    3.3607 H         1 RES1    0.0000
@<TRIPOS>BOND
     1    1    8 2
     2    2    8 2
     3    3    4 1
     4    4    5 2
     5    5    6 1
     6    6    9 2
     7    7    8 1
     8    9    3 1
     9   10    3 1
    10   11   10 1
    11   12   10 1
    12   13   12 1
    13   14   12 1
    14   15   12 1
    15   16   10 1
    16   17   16 1
    17   18   16 1
    18   19   16 1
    19   20    7 1
    20   21   20 1
    21   22   20 1
    22   23   22 1
    23   24   22 1
    24   25   22 1
    25   26   20 1
    26   27   26 1
    27   28   26 1
    28   29   26 1
    29    7    9 1
@<TRIPOS>SUBSTRUCTURE
     1 RES1 1

@<TRIPOS>CRYSIN
   8.6094   12.5135   10.5791  90.0000 106.8960  90.0000 231 1

