# MOL2 file generated by ConQuest
# Please check atom types

@<TRIPOS>MOLECULE
GEGLUC
    41    44     1
SMALL
USER_CHARGES
****
Generated from CSD

@<TRIPOS>ATOM
      1 O1         5.4016    5.9993    1.3065 O.2       1 RES1    0.0000
      2 O2         1.3943    4.9962    2.3117 O.2       1 RES1   -1.0000
      3 N1         2.4699    3.6836    3.8307 N.3       1 RES1    0.0000
      4 N2         2.4974    4.5403    2.7602 N.pl3     1 RES1    1.0000
      5 C1         2.3233    5.3220   -0.3443 C.ar      1 RES1    0.0000
      6 H1         2.1647    4.4533    0.0048 H         1 RES1    0.0000
      7 C2         1.5614    5.7902   -1.4078 C.ar      1 RES1    0.0000
      8 H2         0.8917    5.2395   -1.7959 H         1 RES1    0.0000
      9 C3         1.7864    7.0669   -1.8996 C.ar      1 RES1    0.0000
     10 H3         1.2609    7.3908   -2.6220 H         1 RES1    0.0000
     11 C4         2.7634    7.8729   -1.3546 C.ar      1 RES1    0.0000
     12 H4         2.9055    8.7484   -1.6953 H         1 RES1    0.0000
     13 C5         3.5383    7.3987   -0.3071 C.ar      1 RES1    0.0000
     14 H5         4.2224    7.9454    0.0607 H         1 RES1    0.0000
     15 C6         3.3174    6.1212    0.2103 C.ar      1 RES1    0.0000
     16 C7         4.2282    5.6529    1.2974 C.2       1 RES1    0.0000
     17 C8         3.7852    4.7645    2.3852 C.2       1 RES1    0.0000
     18 C9         4.6217    4.0251    3.2870 C.ar      1 RES1    0.0000
     19 C10        6.0018    3.8203    3.3998 C.ar      1 RES1    0.0000
     20 H6         6.6080    4.2514    2.8089 H         1 RES1    0.0000
     21 C11        6.4586    2.9753    4.3906 C.ar      1 RES1    0.0000
     22 H7         7.3922    2.8231    4.4770 H         1 RES1    0.0000
     23 C12        5.5720    2.3335    5.2769 C.ar      1 RES1    0.0000
     24 H8         5.9225    1.7679    5.9550 H         1 RES1    0.0000
     25 C13        4.2098    2.5066    5.1831 C.ar      1 RES1    0.0000
     26 H9         3.6099    2.0685    5.7744 H         1 RES1    0.0000
     27 C14        3.7558    3.3574    4.1762 C.ar      1 RES1    0.0000
     28 C15        1.1999    3.2865    4.4093 C.3       1 RES1    0.0000
     29 H10        1.3367    2.4695    4.9516 H         1 RES1    0.0000
     30 H11        0.5716    3.0603    3.6781 H         1 RES1    0.0000
     31 C16        0.5718    4.3508    5.2798 C.ar      1 RES1    0.0000
     32 C17        1.3233    5.0496    6.2207 C.ar      1 RES1    0.0000
     33 H12        2.2560    4.8869    6.2969 H         1 RES1    0.0000
     34 C18        0.7160    5.9817    7.0456 C.ar      1 RES1    0.0000
     35 H13        1.2375    6.4622    7.6774 H         1 RES1    0.0000
     36 C19       -0.6435    6.2172    6.9549 C.ar      1 RES1    0.0000
     37 H14       -1.0597    6.8427    7.5368 H         1 RES1    0.0000
     38 C20       -1.3913    5.5412    6.0179 C.ar      1 RES1    0.0000
     39 H15       -2.3227    5.7104    5.9438 H         1 RES1    0.0000
     40 C21       -0.7876    4.6122    5.1789 C.ar      1 RES1    0.0000
     41 H16       -1.3090    4.1527    4.5314 H         1 RES1    0.0000
@<TRIPOS>BOND
     1    1   16 2
     2    2    4 1
     3    3    4 1
     4    4   17 2
     5    5    6 1
     6    7    5 ar
     7    8    7 1
     8    9    7 ar
     9   10    9 1
    10   11    9 ar
    11   12   11 1
    12   13   11 ar
    13   14   13 1
    14   15    5 ar
    15   16   15 1
    16   17   16 1
    17   18   17 1
    18   19   18 ar
    19   20   19 1
    20   21   19 ar
    21   22   21 1
    22   23   21 ar
    23   24   23 1
    24   25   23 ar
    25   26   25 1
    26   27    3 1
    27   28    3 1
    28   29   28 1
    29   30   28 1
    30   31   28 1
    31   32   31 ar
    32   33   32 1
    33   34   32 ar
    34   35   34 1
    35   36   34 ar
    36   37   36 1
    37   38   36 ar
    38   39   38 1
    39   40   31 ar
    40   41   40 1
    41   13   15 ar
    42   18   27 ar
    43   25   27 ar
    44   38   40 ar
@<TRIPOS>SUBSTRUCTURE
     1 RES1 1

@<TRIPOS>CRYSIN
  10.8967    9.3048   16.7968  90.0000 107.9640  90.0000 231 1

