# MOL2 file generated by ConQuest
# Please check atom types

@<TRIPOS>MOLECULE
GEGMIR
    41    44     1
SMALL
USER_CHARGES
****
Generated from CSD

@<TRIPOS>ATOM
      1 O1        -1.8995    0.7158    5.1018 O.2       1 RES1   -1.0000
      2 O2         1.9144   -1.5033    3.7536 O.2       1 RES1    0.0000
      3 N1         0.0316    1.1979    6.1064 N.3       1 RES1    0.0000
      4 N2        -0.6643    0.4654    5.1581 N.pl3     1 RES1    1.0000
      5 C1         1.3829    0.9576    6.3198 C.ar      1 RES1    0.0000
      6 C2         2.0841    1.6649    7.3115 C.ar      1 RES1    0.0000
      7 H1         1.6454    2.2962    7.8360 H         1 RES1    0.0000
      8 C3         3.4199    1.4149    7.5001 C.ar      1 RES1    0.0000
      9 H2         3.8891    1.8980    8.1416 H         1 RES1    0.0000
     10 C4         4.0797    0.4593    6.7547 C.ar      1 RES1    0.0000
     11 H3         4.9821    0.2927    6.9050 H         1 RES1    0.0000
     12 C5         3.4054   -0.2406    5.7945 C.ar      1 RES1    0.0000
     13 H4         3.8506   -0.8901    5.2993 H         1 RES1    0.0000
     14 C6         2.0501    0.0105    5.5519 C.ar      1 RES1    0.0000
     15 C7         1.3492   -0.6985    4.4934 C.2       1 RES1    0.0000
     16 C8        -0.0672   -0.4299    4.3580 C.2       1 RES1    0.0000
     17 C9        -0.7127    2.2643    6.7730 C.3       1 RES1    0.0000
     18 H5        -1.4468    2.5338    6.1990 H         1 RES1    0.0000
     19 H6        -0.1270    3.0311    6.8768 H         1 RES1    0.0000
     20 C10       -1.2689    1.9017    8.1211 C.ar      1 RES1    0.0000
     21 C11       -1.7351    2.9191    8.9253 C.ar      1 RES1    0.0000
     22 H7        -1.6707    3.7994    8.6358 H         1 RES1    0.0000
     23 C12       -2.2965    2.6463   10.1538 C.ar      1 RES1    0.0000
     24 H8        -2.6021    3.3463   10.6843 H         1 RES1    0.0000
     25 C13       -2.4072    1.3662   10.5966 C.ar      1 RES1    0.0000
     26 H9        -2.7915    1.1856   11.4246 H         1 RES1    0.0000
     27 C14       -1.9468    0.3466    9.8098 C.ar      1 RES1    0.0000
     28 H10       -2.0192   -0.5321   10.1054 H         1 RES1    0.0000
     29 C15       -1.3728    0.6109    8.5763 C.ar      1 RES1    0.0000
     30 H11       -1.0567   -0.0904    8.0538 H         1 RES1    0.0000
     31 C16       -0.9001   -1.0993    3.3365 C.ar      1 RES1    0.0000
     32 C17       -2.1196   -1.6851    3.6199 C.ar      1 RES1    0.0000
     33 H12       -2.4463   -1.6744    4.4904 H         1 RES1    0.0000
     34 C18       -2.8560   -2.2877    2.6174 C.ar      1 RES1    0.0000
     35 H13       -3.6758   -2.6779    2.8181 H         1 RES1    0.0000
     36 C19       -2.3839   -2.3138    1.3243 C.ar      1 RES1    0.0000
     37 H14       -2.8828   -2.7165    0.6506 H         1 RES1    0.0000
     38 C20       -1.1754   -1.7399    1.0409 C.ar      1 RES1    0.0000
     39 H15       -0.8490   -1.7599    0.1705 H         1 RES1    0.0000
     40 C21       -0.4376   -1.1338    2.0344 C.ar      1 RES1    0.0000
     41 H16        0.3803   -0.7428    1.8266 H         1 RES1    0.0000
@<TRIPOS>BOND
     1    1    4 1
     2    2   15 2
     3    3    4 1
     4    4   16 2
     5    5    3 1
     6    6    5 ar
     7    7    6 1
     8    8    6 ar
     9    9    8 1
    10   10    8 ar
    11   11   10 1
    12   12   10 ar
    13   13   12 1
    14   14    5 ar
    15   15   14 1
    16   16   15 1
    17   17    3 1
    18   18   17 1
    19   19   17 1
    20   20   17 1
    21   21   20 ar
    22   22   21 1
    23   23   21 ar
    24   24   23 1
    25   25   23 ar
    26   26   25 1
    27   27   25 ar
    28   28   27 1
    29   29   20 ar
    30   30   29 1
    31   31   16 1
    32   32   31 ar
    33   33   32 1
    34   34   32 ar
    35   35   34 1
    36   36   34 ar
    37   37   36 1
    38   38   36 ar
    39   39   38 1
    40   40   31 ar
    41   41   40 1
    42   12   14 ar
    43   27   29 ar
    44   38   40 ar
@<TRIPOS>SUBSTRUCTURE
     1 RES1 1

@<TRIPOS>CRYSIN
   8.7503    9.6953   11.4579 110.8730 100.6070 108.4970   2 1

