# MOL2 file generated by ConQuest
# Please check atom types

@<TRIPOS>MOLECULE
GEJKUB
    29    30     1
SMALL
NO_CHARGES
****
Generated from CSD

@<TRIPOS>ATOM
      1 O1        10.5137    0.3191    2.9074 O.2       1 RES1    0.0000
      2 O2         9.3724    1.2520    4.4536 O.2       1 RES1    0.0000
      3 N1         6.1343    2.9383   -1.8074 N.3       1 RES1    0.0000
      4 N2         9.6114    1.0454    3.2848 N.pl3     1 RES1    0.0000
      5 C1         5.2901    3.4667   -2.7921 C.ar      1 RES1    0.0000
      6 C2         5.1573    4.8259   -3.0067 C.ar      1 RES1    0.0000
      7 C3         4.3565    5.3007   -4.0319 C.ar      1 RES1    0.0000
      8 C4         3.6615    4.4320   -4.8470 C.ar      1 RES1    0.0000
      9 C5         3.7807    3.0790   -4.6293 C.ar      1 RES1    0.0000
     10 C6         4.5906    2.5892   -3.6270 C.ar      1 RES1    0.0000
     11 C7         6.4613    3.7489   -0.6600 C.3       1 RES1    0.0000
     12 C8         7.2792    3.0033    0.3590 C.ar      1 RES1    0.0000
     13 C9         8.2643    2.1004   -0.0130 C.ar      1 RES1    0.0000
     14 C10        9.0317    1.4489    0.9365 C.ar      1 RES1    0.0000
     15 C11        8.7952    1.7259    2.2619 C.ar      1 RES1    0.0000
     16 C12        7.8293    2.6068    2.6729 C.ar      1 RES1    0.0000
     17 C13        7.0742    3.2513    1.7081 C.ar      1 RES1    0.0000
     18 H1         5.9675    2.0749   -1.5889 H         1 RES1    0.0000
     19 H2         5.5508    5.4247   -2.4292 H         1 RES1    0.0000
     20 H3         4.3127    6.2511   -4.1633 H         1 RES1    0.0000
     21 H4         3.0996    4.7477   -5.5765 H         1 RES1    0.0000
     22 H5         3.2423    2.4530   -5.2328 H         1 RES1    0.0000
     23 H6         4.6662    1.6177   -3.4834 H         1 RES1    0.0000
     24 H7         5.6243    4.1322   -0.1986 H         1 RES1    0.0000
     25 H8         7.0174    4.5015   -1.0007 H         1 RES1    0.0000
     26 H9         8.3692    1.9254   -0.9243 H         1 RES1    0.0000
     27 H10        9.7962    0.8440    0.7104 H         1 RES1    0.0000
     28 H11        7.7019    2.8046    3.6056 H         1 RES1    0.0000
     29 H12        6.3593    3.8597    1.9785 H         1 RES1    0.0000
@<TRIPOS>BOND
     1    1    4 2
     2    2    4 2
     3    3    5 1
     4    4   15 1
     5    5    6 ar
     6    6    7 ar
     7    7    8 ar
     8    8    9 ar
     9    9   10 ar
    10   10    5 ar
    11   11    3 1
    12   12   11 1
    13   13   12 ar
    14   14   13 ar
    15   15   14 ar
    16   16   15 ar
    17   17   12 ar
    18   18    3 1
    19   19    6 1
    20   20    7 1
    21   21    8 1
    22   22    9 1
    23   23   10 1
    24   24   11 1
    25   25   11 1
    26   26   13 1
    27   27   14 1
    28   28   16 1
    29   29   17 1
    30   16   17 ar
@<TRIPOS>SUBSTRUCTURE
     1 RES1 1

@<TRIPOS>CRYSIN
  16.9240    8.7920    7.6420  90.0000  91.5900  90.0000 231 1

