# MOL2 file generated by ConQuest
# Please check atom types

@<TRIPOS>MOLECULE
GEJSET
    35    36     1
SMALL
NO_CHARGES
****
Generated from CSD

@<TRIPOS>ATOM
      1 O1         5.0239    2.7202    4.8889 O.3       1 RES1    0.0000
      2 O2         1.7294    2.9411    3.8373 O.2       1 RES1    0.0000
      3 N1         3.3568    3.2597    2.2796 N.am      1 RES1    0.0000
      4 O3         5.5456    0.6252    2.3655 O.2       1 RES1    0.0000
      5 O4         2.9046    4.4632    1.8014 O.3       1 RES1    0.0000
      6 C1         4.1781    1.5716    4.9214 C.3       1 RES1    0.0000
      7 C2         3.5725    1.3293    3.5796 C.3       1 RES1    0.0000
      8 O5         6.0330    0.4953    5.9799 O.2       1 RES1    0.0000
      9 C3         2.7295    2.5837    3.2685 C.2       1 RES1    0.0000
     10 C4         4.5022    2.6680    1.7619 C.2       1 RES1    0.0000
     11 C5         2.8495   -0.0054    3.5262 C.2       1 RES1    0.0000
     12 C6         4.9616    0.3548    5.4599 C.2       1 RES1    0.0000
     13 C7         3.2837   -1.0321    4.3642 C.2       1 RES1    0.0000
     14 C8         4.6800    1.4003    2.5210 C.2       1 RES1    0.0000
     15 C9         4.2675   -0.9090    5.2417 C.2       1 RES1    0.0000
     16 C10        1.9153   -0.3146    2.6069 C.2       1 RES1    0.0000
     17 C11        5.2595    3.1178    0.8195 C.2       1 RES1    0.0000
     18 C12        3.3414    5.4713    2.7091 C.3       1 RES1    0.0000
     19 C13        1.3142    0.4552    1.4393 C.3       1 RES1    0.0000
     20 C14       -0.1589    0.3815    1.4300 C.3       1 RES1    0.0000
     21 H1         4.4841    3.5221    4.6242 H         1 RES1    0.0000
     22 H2         3.4145    1.7323    5.5551 H         1 RES1    0.0000
     23 H3         2.8062   -1.9197    4.3132 H         1 RES1    0.0000
     24 H4         4.5590   -1.7149    5.7710 H         1 RES1    0.0000
     25 H5         1.5254   -1.2316    2.7276 H         1 RES1    0.0000
     26 H6         5.0528    3.9746    0.3552 H         1 RES1    0.0000
     27 H7         6.0637    2.5783    0.5223 H         1 RES1    0.0000
     28 H8         4.3180    5.4780    2.8043 H         1 RES1    0.0000
     29 H9         2.9253    5.2825    3.6353 H         1 RES1    0.0000
     30 H10        3.0048    6.3669    2.4166 H         1 RES1    0.0000
     31 H11        1.6689    0.0469    0.5757 H         1 RES1    0.0000
     32 H12        1.6075    1.4070    1.4973 H         1 RES1    0.0000
     33 H13       -0.5244    0.7925    2.2750 H         1 RES1    0.0000
     34 H14       -0.4712   -0.5663    1.3696 H         1 RES1    0.0000
     35 H15       -0.5325    0.8969    0.6453 H         1 RES1    0.0000
@<TRIPOS>BOND
     1    1    6 1
     2    2    9 2
     3    3    5 1
     4    4   14 2
     5    5   18 1
     6    6    7 1
     7    7    9 1
     8    8   12 2
     9    9    3 1
    10   10    3 1
    11   11    7 1
    12   12    6 1
    13   13   11 1
    14   14    7 1
    15   15   12 1
    16   16   11 2
    17   17   10 2
    18   18   28 1
    19   19   16 1
    20   20   19 1
    21   21    1 1
    22   22    6 1
    23   23   13 1
    24   24   15 1
    25   25   16 1
    26   26   17 1
    27   27   17 1
    28   29   18 1
    29   30   18 1
    30   31   19 1
    31   32   19 1
    32   33   20 1
    33   34   20 1
    34   35   20 1
    35   10   14 1
    36   13   15 2
@<TRIPOS>SUBSTRUCTURE
     1 RES1 1

@<TRIPOS>CRYSIN
   9.0260   13.3870   23.2140  90.0000  90.0000  90.0000  19 1

