# MOL2 file generated by ConQuest
# Please check atom types

@<TRIPOS>MOLECULE
GEJVAT
    58    54     2
SMALL
NO_CHARGES
****
Generated from CSD

@<TRIPOS>ATOM
      1 O1         7.0145    1.1386    9.7174 O.2       1 RES1    0.0000
      2 O2         8.1065    1.4938   11.5453 O.2       1 RES1    0.0000
      3 O3         5.4021    2.1669   12.3389 O.2       1 RES1    0.0000
      4 O4         6.2981    3.5790   13.7064 O.2       1 RES1    0.0000
      5 O5         7.3786    8.1450    9.8857 O.2       1 RES1    0.0000
      6 O6         5.2835    7.6972    9.8574 O.2       1 RES1    0.0000
      7 N1         7.4623    1.8636   10.5839 N.pl3     1 RES1    0.0000
      8 N2         6.0315    3.1793   12.5968 N.pl3     1 RES1    0.0000
      9 N3         6.4390    7.3866    9.9948 N.pl3     1 RES1    0.0000
     10 C1        11.8253    1.8275    2.6138 C.3       1 RES1    0.0000
     11 H1        11.9818    0.8856    2.7139 H         1 RES1    0.0000
     12 H2        12.6627    2.2778    2.4783 H         1 RES1    0.0000
     13 H3        11.2545    1.9784    1.8566 H         1 RES1    0.0000
     14 H4        11.9507    2.5420    1.9853 Du        2 SUP2    0.0000
     15 H5        11.2699    1.1498    2.2226 Du        2 SUP2    0.0000
     16 H6        12.6780    1.4492    2.8426 Du        2 SUP2    0.0000
     17 C2        11.1623    2.3638    3.8602 C.ar      1 RES1    0.0000
     18 C3        10.8444    1.5336    4.9314 C.ar      1 RES1    0.0000
     19 H7        11.0908    0.6378    4.8998 H         1 RES1    0.0000
     20 C4        10.1768    2.0075    6.0322 C.ar      1 RES1    0.0000
     21 H8         9.9752    1.4261    6.7297 H         1 RES1    0.0000
     22 C5         9.7944    3.3432    6.1237 C.ar      1 RES1    0.0000
     23 C6        10.1563    4.1787    5.0704 C.ar      1 RES1    0.0000
     24 H9         9.9404    5.0823    5.1104 H         1 RES1    0.0000
     25 C7        10.8265    3.6955    3.9721 C.ar      1 RES1    0.0000
     26 H10       11.0600    4.2815    3.2888 H         1 RES1    0.0000
     27 C8         9.0303    3.9060    7.2334 C.2       1 RES1    0.0000
     28 H11        8.8629    4.8195    7.1792 H         1 RES1    0.0000
     29 C9         8.5446    3.3069    8.3021 C.2       1 RES1    0.0000
     30 H12        8.7127    2.3971    8.4009 H         1 RES1    0.0000
     31 C10        7.7582    3.9700    9.3434 C.ar      1 RES1    0.0000
     32 C11        7.2214    3.3099   10.4460 C.ar      1 RES1    0.0000
     33 C12        6.5201    3.9693   11.4450 C.ar      1 RES1    0.0000
     34 C13        6.2587    5.3440   11.4087 C.ar      1 RES1    0.0000
     35 C14        6.7517    5.9599   10.2582 C.ar      1 RES1    0.0000
     36 C15        7.4921    5.3487    9.2946 C.ar      1 RES1    0.0000
     37 H13        7.8278    5.8529    8.5897 H         1 RES1    0.0000
     38 C16        5.5454    6.0717   12.4733 C.2       1 RES1    0.0000
     39 H14        4.7519    5.7210   12.8093 H         1 RES1    0.0000
     40 C17        6.0087    7.2194   12.9681 C.2       1 RES1    0.0000
     41 H15        6.8031    7.5399   12.6055 H         1 RES1    0.0000
     42 C18        5.3911    8.0338   14.0326 C.ar      1 RES1    0.0000
     43 C19        6.1699    8.9078   14.7704 C.ar      1 RES1    0.0000
     44 H16        7.0796    8.9845   14.5924 H         1 RES1    0.0000
     45 C20        5.5913    9.6725   15.7788 C.ar      1 RES1    0.0000
     46 H17        6.1309   10.2458   16.2753 H         1 RES1    0.0000
     47 C21        4.2423    9.6101   16.0677 C.ar      1 RES1    0.0000
     48 C22        3.4930    8.7518   15.3146 C.ar      1 RES1    0.0000
     49 H18        2.5793    8.6924   15.4782 H         1 RES1    0.0000
     50 C23        4.0397    7.9729   14.3249 C.ar      1 RES1    0.0000
     51 H19        3.4925    7.3941   13.8438 H         1 RES1    0.0000
     52 C24        3.6496   10.4666   17.1386 C.3       1 RES1    0.0000
     53 H20        4.3418   10.9935   17.5454 H         1 RES1    0.0000
     54 H21        3.2384    9.9095   17.8027 H         1 RES1    0.0000
     55 H22        2.9891   11.0478   16.7549 H         1 RES1    0.0000
     56 H23        2.7046   10.3071   17.1894 Du        2 SUP2    0.0000
     57 H24        3.8081   11.3910   16.9321 Du        2 SUP2    0.0000
     58 H25        4.0566   10.2527   17.9815 Du        2 SUP2    0.0000
@<TRIPOS>BOND
     1    1    7 2
     2    2    7 2
     3    3    8 2
     4    4    8 2
     5    5    9 2
     6    6    9 2
     7    7   32 1
     8    8   33 1
     9    9   35 1
    10   10   11 1
    11   12   10 1
    12   13   10 1
    13   17   10 1
    14   18   17 ar
    15   19   18 1
    16   20   18 ar
    17   21   20 1
    18   22   20 ar
    19   23   22 ar
    20   24   23 1
    21   25   17 ar
    22   26   25 1
    23   27   22 1
    24   28   27 1
    25   29   27 2
    26   30   29 1
    27   31   29 1
    28   32   31 ar
    29   33   32 ar
    30   34   33 ar
    31   35   34 ar
    32   36   31 ar
    33   37   36 1
    34   38   34 1
    35   39   38 1
    36   40   38 2
    37   41   40 1
    38   42   40 1
    39   43   42 ar
    40   44   43 1
    41   45   43 ar
    42   46   45 1
    43   47   45 ar
    44   48   47 ar
    45   49   48 1
    46   50   42 ar
    47   51   50 1
    48   52   47 1
    49   53   52 1
    50   54   52 1
    51   55   52 1
    52   23   25 ar
    53   35   36 ar
    54   48   50 ar
@<TRIPOS>SUBSTRUCTURE
     1 RES1 1
     2 SUP2 14

@<TRIPOS>CRYSIN
   8.3120    8.5370   16.7330  89.1200  87.1100  66.1000   2 1

