# MOL2 file generated by ConQuest
# Please check atom types

@<TRIPOS>MOLECULE
GEKQAQ
    27    28     1
SMALL
NO_CHARGES
****
Generated from CSD

@<TRIPOS>ATOM
      1 O1         4.2448    4.4199    9.7920 O.3       1 RES1    0.0000
      2 N1         3.3295    5.1328    8.9555 N.2       1 RES1    0.0000
      3 C1         3.8976    5.1359    7.7641 C.2       1 RES1    0.0000
      4 N2         3.3174    5.7427    6.6965 N.3       1 RES1    0.0000
      5 C2         5.1497    4.4509    7.7721 C.2       1 RES1    0.0000
      6 H1         5.7417    4.3143    7.0413 H         1 RES1    0.0000
      7 C3         5.3062    4.0400    9.0485 C.2       1 RES1    0.0000
      8 C4         6.3570    3.2859    9.7714 C.3       1 RES1    0.0000
      9 H2         6.5148    3.7017   10.6446 H         1 RES1    0.0000
     10 H3         7.1856    3.2982    9.2487 H         1 RES1    0.0000
     11 H4         6.0646    2.3589    9.8987 H         1 RES1    0.0000
     12 C5         2.1179    6.5262    6.8469 C.3       1 RES1    0.0000
     13 H5         2.2168    7.0926    7.6155 H         1 RES1    0.0000
     14 H6         3.7666    5.7747    5.9431 H         1 RES1    0.0000
     15 O1A       -0.0089    4.4199    3.9017 O.3       1 RES1    0.0000
     16 N1A        0.9064    5.1328    4.7382 N.2       1 RES1    0.0000
     17 C1A        0.3383    5.1359    5.9297 C.2       1 RES1    0.0000
     18 N2A        0.9184    5.7427    6.9972 N.3       1 RES1    0.0000
     19 C2A       -0.9139    4.4509    5.9216 C.2       1 RES1    0.0000
     20 H1A       -1.5059    4.3143    6.6524 H         1 RES1    0.0000
     21 C3A       -1.0704    4.0400    4.6452 C.2       1 RES1    0.0000
     22 C4A       -2.1211    3.2859    3.9223 C.3       1 RES1    0.0000
     23 H2A       -2.2789    3.7017    3.0491 H         1 RES1    0.0000
     24 H3A       -2.9497    3.2982    4.4450 H         1 RES1    0.0000
     25 H4A       -1.8288    2.3589    3.7950 H         1 RES1    0.0000
     26 H5A        2.0191    7.0926    6.0782 H         1 RES1    0.0000
     27 H6A        0.4693    5.7747    7.7506 H         1 RES1    0.0000
@<TRIPOS>BOND
     1    1    2 1
     2    2    3 2
     3    3    4 1
     4    4   12 1
     5    5    3 1
     6    6    5 1
     7    7    1 1
     8    8    7 1
     9    9    8 1
    10   10    8 1
    11   11    8 1
    12   12   13 1
    13   14    4 1
    14   15   16 1
    15   16   17 2
    16   17   18 1
    17   18   12 1
    18   19   17 1
    19   20   19 1
    20   21   15 1
    21   22   21 1
    22   23   22 1
    23   24   22 1
    24   25   22 1
    25   26   12 1
    26   27   18 1
    27    5    7 2
    28   19   21 2
@<TRIPOS>SUBSTRUCTURE
     1 RES1 1

@<TRIPOS>CRYSIN
   9.6944   11.3029    9.8277  90.0000 111.7330  90.0000  15 1

