# MOL2 file generated by ConQuest
# Please check atom types

@<TRIPOS>MOLECULE
GELFOV
    36    38     1
SMALL
NO_CHARGES
****
Generated from CSD

@<TRIPOS>ATOM
      1 C1         7.9595    1.5873   13.7430 C.ar      1 RES1    0.0000
      2 C2         7.7141    2.3671   14.8863 C.ar      1 RES1    0.0000
      3 H1         7.4669    3.2808   14.8022 H         1 RES1    0.0000
      4 C3         7.8355    1.7912   16.1297 C.ar      1 RES1    0.0000
      5 H2         7.6654    2.3107   16.9057 H         1 RES1    0.0000
      6 C4         8.2096    0.4376   16.2637 C.ar      1 RES1    0.0000
      7 H3         8.2933    0.0520   17.1269 H         1 RES1    0.0000
      8 C5         8.4531   -0.3214   15.1487 C.ar      1 RES1    0.0000
      9 H4         8.7097   -1.2306   15.2478 H         1 RES1    0.0000
     10 C6         8.3277    0.2286   13.8492 C.ar      1 RES1    0.0000
     11 C7         8.5668   -0.5155   12.6685 C.ar      1 RES1    0.0000
     12 H5         8.7880   -1.4379   12.7174 H         1 RES1    0.0000
     13 C8         8.4747    0.1107   11.4625 C.ar      1 RES1    0.0000
     14 H6         8.6588   -0.3828   10.6732 H         1 RES1    0.0000
     15 C9         8.1146    1.4728   11.3531 C.ar      1 RES1    0.0000
     16 C10        8.0721    2.2037   10.0976 C.2       1 RES1    0.0000
     17 H7         8.1601    3.1492   10.1278 H         1 RES1    0.0000
     18 C11        7.9164    1.6232    8.8941 C.2       1 RES1    0.0000
     19 H8         7.7594    0.6865    8.8813 H         1 RES1    0.0000
     20 C12        7.9682    2.3077    7.6012 C.ar      1 RES1    0.0000
     21 C13        8.5255    3.5809    7.4372 C.ar      1 RES1    0.0000
     22 H9         8.8820    4.0301    8.1957 H         1 RES1    0.0000
     23 C14        8.5707    4.2056    6.1957 C.ar      1 RES1    0.0000
     24 H10        8.9590    5.0677    6.1079 H         1 RES1    0.0000
     25 C15        8.0398    3.5529    5.0817 C.ar      1 RES1    0.0000
     26 C16        7.4894    2.2762    5.2141 C.ar      1 RES1    0.0000
     27 H11        7.1328    1.8294    4.4562 H         1 RES1    0.0000
     28 C17        7.4652    1.6642    6.4572 C.ar      1 RES1    0.0000
     29 H12        7.1014    0.7905    6.5379 H         1 RES1    0.0000
     30 C18        8.5858    5.3744    3.6270 C.3       1 RES1    0.0000
     31 H13        8.1027    6.0195    4.1851 H         1 RES1    0.0000
     32 H14        8.5034    5.6300    2.6831 H         1 RES1    0.0000
     33 H15        9.5321    5.3674    3.8828 H         1 RES1    0.0000
     34 N1         7.8301    2.1757   12.4775 N.pl3     1 RES1    0.0000
     35 O1         7.4377    3.4184   12.4058 O.2       1 RES1    0.0000
     36 O2         8.0314    4.0709    3.8174 O.3       1 RES1    0.0000
@<TRIPOS>BOND
     1    1    2 ar
     2    2    3 1
     3    4    2 ar
     4    5    4 1
     5    6    4 ar
     6    7    6 1
     7    8    6 ar
     8    9    8 1
     9   10    1 ar
    10   11   10 ar
    11   12   11 1
    12   13   11 ar
    13   14   13 1
    14   15   13 ar
    15   16   15 1
    16   17   16 1
    17   18   16 2
    18   19   18 1
    19   20   18 1
    20   21   20 ar
    21   22   21 1
    22   23   21 ar
    23   24   23 1
    24   25   23 ar
    25   26   25 ar
    26   27   26 1
    27   28   20 ar
    28   29   28 1
    29   30   31 1
    30   32   30 1
    31   33   30 1
    32   34    1 ar
    33   35   34 1
    34   36   25 1
    35    8   10 ar
    36   15   34 ar
    37   26   28 ar
    38   30   36 1
@<TRIPOS>SUBSTRUCTURE
     1 RES1 1

@<TRIPOS>CRYSIN
  13.0541    6.7506   31.1625  90.0000  90.0000  90.0000  61 1

