# MOL2 file generated by ConQuest
# Please check atom types

@<TRIPOS>MOLECULE
GELHUD
    39    40     1
SMALL
NO_CHARGES
****
Generated from CSD

@<TRIPOS>ATOM
      1 C1         1.3017    3.7380    8.9416 C.ar      1 RES1    0.0000
      2 H1         1.3472    3.3556    8.0955 H         1 RES1    0.0000
      3 C2         0.9450    2.9632   10.0279 C.ar      1 RES1    0.0000
      4 H2         0.7544    2.0606    9.9105 H         1 RES1    0.0000
      5 C3         0.8706    3.5250   11.2939 C.ar      1 RES1    0.0000
      6 H3         0.6311    3.0011   12.0236 H         1 RES1    0.0000
      7 C4         1.1541    4.8699   11.4689 C.ar      1 RES1    0.0000
      8 H4         1.0991    5.2514   12.3148 H         1 RES1    0.0000
      9 C5         1.5186    5.6443   10.3843 C.ar      1 RES1    0.0000
     10 H5         1.7164    6.5447   10.5079 H         1 RES1    0.0000
     11 C6         1.5934    5.0907    9.1087 C.ar      1 RES1    0.0000
     12 C7         2.0093    5.9840    7.9862 C.2       1 RES1    0.0000
     13 C8         1.6957    6.2457    5.5100 C.ar      1 RES1    0.0000
     14 C9         2.7229    7.1478    5.2653 C.ar      1 RES1    0.0000
     15 H6         3.3043    7.3834    5.9525 H         1 RES1    0.0000
     16 C10        2.8883    7.6998    4.0069 C.ar      1 RES1    0.0000
     17 H7         3.5745    8.3103    3.8579 H         1 RES1    0.0000
     18 C11        2.0430    7.3527    2.9669 C.ar      1 RES1    0.0000
     19 H8         2.1764    7.7016    2.1154 H         1 RES1    0.0000
     20 C12        0.9974    6.4801    3.2106 C.ar      1 RES1    0.0000
     21 H9         0.4226    6.2522    2.5159 H         1 RES1    0.0000
     22 C13        0.7873    5.9348    4.4787 C.ar      1 RES1    0.0000
     23 C14       -0.3912    5.0453    4.7267 C.2       1 RES1    0.0000
     24 C15       -2.6845    4.4963    4.1039 C.3       1 RES1    0.0000
     25 H10       -3.4281    4.9680    3.6967 H         1 RES1    0.0000
     26 H11       -2.8961    4.3663    5.0422 H         1 RES1    0.0000
     27 C16       -2.5429    3.1423    3.4424 C.3       1 RES1    0.0000
     28 H12       -1.7727    2.6684    3.7934 H         1 RES1    0.0000
     29 H13       -3.3354    2.6039    3.5897 H         1 RES1    0.0000
     30 N1        -2.3159    2.2717    1.2340 N.pl3     1 RES1    0.0000
     31 N2        -1.4947    5.3176    4.0008 N.am      1 RES1    0.0000
     32 H14       -1.4926    5.9911    3.4666 H         1 RES1    0.0000
     33 N3         1.5145    5.6230    6.7630 N.am      1 RES1    0.0000
     34 H15        1.0245    4.9163    6.7570 H         1 RES1    0.0000
     35 O1         2.7259    6.9649    8.1698 O.2       1 RES1    0.0000
     36 O2        -0.3707    4.1059    5.5377 O.2       1 RES1    0.0000
     37 O3        -2.4321    1.2111    1.7798 O.2       1 RES1    0.0000
     38 O4        -2.1550    2.5212    0.0686 O.2       1 RES1    0.0000
     39 O5        -2.3719    3.4267    2.0299 O.3       1 RES1    0.0000
@<TRIPOS>BOND
     1    1    2 1
     2    3    1 ar
     3    4    3 1
     4    5    3 ar
     5    6    5 1
     6    7    5 ar
     7    8    7 1
     8    9    7 ar
     9   10    9 1
    10   11    1 ar
    11   12   11 1
    12   13   14 ar
    13   14   15 1
    14   16   14 ar
    15   17   16 1
    16   18   16 ar
    17   19   18 1
    18   20   18 ar
    19   21   20 1
    20   22   13 ar
    21   23   22 1
    22   24   25 1
    23   26   24 1
    24   27   24 1
    25   28   27 1
    26   29   27 1
    27   30   37 2
    28   31   23 1
    29   32   31 1
    30   33   12 1
    31   34   33 1
    32   35   12 2
    33   36   23 2
    34   38   30 2
    35   39   27 1
    36    9   11 ar
    37   13   33 1
    38   20   22 ar
    39   24   31 1
    40   30   39 1
@<TRIPOS>SUBSTRUCTURE
     1 RES1 1

@<TRIPOS>CRYSIN
   7.4889    8.9633   12.2743  98.9530 106.4820  98.6790   2 1

