# MOL2 file generated by ConQuest
# Please check atom types

@<TRIPOS>MOLECULE
GELROG
    38    37     2
SMALL
USER_CHARGES
****
Generated from CSD

@<TRIPOS>ATOM
      1 N1         5.3043    2.3530    8.5620 N.pl3     1 RES1    0.0000
      2 O1         4.0496    5.5527    8.3968 O.2       1 RES1   -1.0000
      3 N2         4.5179    4.3783    8.2020 N.pl3     1 RES1    1.0000
      4 C1         4.7542    3.8241    6.8193 C.3       1 RES1    0.0000
      5 O2         5.5777    1.2429    9.1346 O.2       1 RES1    0.0000
      6 C2         3.3838    3.3367    6.3411 C.3       1 RES1    0.0000
      7 H1         2.7481    4.0888    6.3734 H         1 RES1    0.0000
      8 H2         3.0224    2.6142    6.9667 H         1 RES1    0.0000
      9 H3         3.4433    3.0196    5.4835 H         1 RES1    0.0000
     10 N3         4.5553    3.4645   12.7622 N.2       1 RES1    0.0000
     11 O3         3.2812    3.9961   12.4203 O.3       1 RES1    0.0000
     12 C3         5.2872    4.8962    5.9015 C.3       1 RES1    0.0000
     13 H4         6.1146    5.2956    6.2656 H         1 RES1    0.0000
     14 H5         4.4979    5.5679    5.7442 H         1 RES1    0.0000
     15 H6         5.4645    4.4462    5.0160 H         1 RES1    0.0000
     16 C4         5.7466    2.6829    7.1573 C.3       1 RES1    0.0000
     17 C5         5.6246    1.4520    6.2737 C.3       1 RES1    0.0000
     18 H7         4.7127    1.0864    6.2925 H         1 RES1    0.0000
     19 H8         6.2761    0.7932    6.6521 H         1 RES1    0.0000
     20 H9         5.9182    1.7827    5.3576 H         1 RES1    0.0000
     21 C6         7.1957    3.1305    7.2769 C.3       1 RES1    0.0000
     22 H10        7.2280    3.9473    7.8387 H         1 RES1    0.0000
     23 H11        7.5945    3.2055    6.4274 H         1 RES1    0.0000
     24 H12        7.7328    2.3846    7.7488 H         1 RES1    0.0000
     25 C7         4.7299    3.4274    9.1387 C.2       1 RES1    0.0000
     26 C8         4.3967    3.5451   10.5427 C.2       1 RES1    0.0000
     27 C9         3.2166    4.0385   11.0955 C.2       1 RES1    0.0000
     28 C10        1.9720    4.5149   10.4555 C.3       1 RES1    0.0000
     29 H13        1.3232    4.7293   11.1288 H         1 RES1    0.0000
     30 H14        1.6534    3.9200    9.8343 H         1 RES1    0.0000
     31 H15        2.1291    5.3026    9.9512 H         1 RES1    0.0000
     32 C11        5.1903    3.2035   11.6313 C.2       1 RES1    0.0000
     33 C12        6.5659    2.6598   11.6996 C.3       1 RES1    0.0000
     34 H16        6.7807    2.3666   12.5221 H         1 RES1    0.0000
     35 H17        7.0842    3.3189   11.6502 H         1 RES1    0.0000
     36 H18        6.6895    1.9461   11.1108 H         1 RES1    0.0000
     37 N4         3.2812    3.9961   12.4203 Du        2 SUP2    0.0000
     38 O4         4.5553    3.4645   12.7622 Du        2 SUP2    0.0000
@<TRIPOS>BOND
     1    1    5 1
     2    2    3 1
     3    3    4 1
     4    4    6 1
     5    6    7 1
     6    8    6 1
     7    9    6 1
     8   10   11 1
     9   11   27 1
    10   12    4 1
    11   13   12 1
    12   14   12 1
    13   15   12 1
    14   16    1 1
    15   17   16 1
    16   18   17 1
    17   19   17 1
    18   20   17 1
    19   21   16 1
    20   22   21 1
    21   23   21 1
    22   24   21 1
    23   25    1 1
    24   26   25 1
    25   27   26 2
    26   28   27 1
    27   29   28 1
    28   30   28 1
    29   31   28 1
    30   32   10 2
    31   33   32 1
    32   34   33 1
    33   35   33 1
    34   36   33 1
    35    3   25 2
    36    4   16 1
    37   26   32 1
@<TRIPOS>SUBSTRUCTURE
     1 RES1 1
     2 SUP2 37

@<TRIPOS>CRYSIN
   7.9220    9.8020    9.8460  75.6790  67.0060  69.4430   2 1

