# MOL2 file generated by ConQuest
# Please check atom types

@<TRIPOS>MOLECULE
GELRIA
    31    31     2
SMALL
NO_CHARGES
****
Generated from CSD

@<TRIPOS>ATOM
      1 N1         5.3050    0.5208    3.5148 N.2       1 RES1    0.0000
      2 C1         4.7334    1.2903    2.5960 C.2       1 RES1    0.0000
      3 O1         5.9265    0.9457    4.5459 O.2       1 RES1    0.0000
      4 C2         4.7334    2.7229    2.5960 C.2       1 RES1    0.0000
      5 C3         5.2583   -0.9323    3.1669 C.3       1 RES1    0.0000
      6 C4         5.1929    3.5766    3.5814 C.2       1 RES1    0.0000
      7 N2         5.0394    4.8215    3.2377 N.2       1 RES1    0.0000
      8 O2         5.0394    4.8215    3.2377 Du        2 SUP2    0.0000
      9 C5         4.8704   -1.7112    4.4142 C.3       1 RES1    0.0000
     10 C6         6.6632   -1.3071    2.7330 C.3       1 RES1    0.0000
     11 H1         5.5685   -1.5512    5.1504 H         1 RES1    0.0000
     12 H2         7.2465   -1.0275    3.4890 H         1 RES1    0.0000
     13 H3         6.9575   -0.8398    1.9314 H         1 RES1    0.0000
     14 H4         3.9309   -1.3437    4.7226 H         1 RES1    0.0000
     15 H5         4.8323   -2.6676    4.1743 H         1 RES1    0.0000
     16 H6         6.6616   -2.2032    2.5337 H         1 RES1    0.0000
     17 H7         5.6043    3.4185    4.4235 H         1 RES1    0.0000
     18 N1A        4.1619    0.5208    1.6771 N.2       1 RES1    0.0000
     19 O1A        3.5404    0.9457    0.6460 O.2       1 RES1    0.0000
     20 C3A        4.2086   -0.9323    2.0251 C.3       1 RES1    0.0000
     21 C4A        4.2740    3.5766    1.6105 C.2       1 RES1    0.0000
     22 N2A        4.4274    4.8215    1.9542 N.2       1 RES1    0.0000
     23 C5A        4.5964   -1.7112    0.7777 C.3       1 RES1    0.0000
     24 C6A        2.8036   -1.3071    2.4589 C.3       1 RES1    0.0000
     25 H1A        3.8983   -1.5512    0.0415 H         1 RES1    0.0000
     26 H2A        2.2204   -1.0275    1.7029 H         1 RES1    0.0000
     27 H3A        2.5094   -0.8398    3.2605 H         1 RES1    0.0000
     28 H4A        5.5359   -1.3437    0.4693 H         1 RES1    0.0000
     29 H5A        4.6345   -2.6676    1.0176 H         1 RES1    0.0000
     30 H6A        2.8053   -2.2032    2.6583 H         1 RES1    0.0000
     31 H7A        3.8625    3.4185    0.7684 H         1 RES1    0.0000
@<TRIPOS>BOND
     1    1    2 1
     2    2    4 1
     3    3    1 1
     4    4    6 1
     5    5    1 1
     6    6    7 1
     7    7   22 1
     8    9    5 1
     9   10    5 1
    10   11    9 1
    11   12   10 1
    12   13   10 1
    13   14    9 1
    14   15    9 1
    15   16   10 1
    16   17    6 1
    17   18    2 1
    18   19   18 1
    19   20    5 1
    20   21    4 1
    21   22   21 1
    22   23   20 1
    23   24   20 1
    24   25   23 1
    25   26   24 1
    26   27   24 1
    27   28   23 1
    28   29   23 1
    29   30   24 1
    30   31   21 1
    31   18   20 1
@<TRIPOS>SUBSTRUCTURE
     1 RES1 1
     2 SUP2 8

@<TRIPOS>CRYSIN
  11.3430    9.8800   11.0410  90.0000 109.8680  90.0000  15 1

