# MOL2 file generated by ConQuest
# Please check atom types

@<TRIPOS>MOLECULE
GELWEZ
    33    34     1
SMALL
NO_CHARGES
****
Generated from CSD

@<TRIPOS>ATOM
      1 C1         3.5122    3.3238    2.3545 C.3       1 RES1    0.0000
      2 C2         4.6446    2.5740    3.0973 C.2       1 RES1    0.0000
      3 C3         4.4369    1.1388    3.5336 C.3       1 RES1    0.0000
      4 C4         3.7941    0.2992    2.4155 C.3       1 RES1    0.0000
      5 C5         2.5976    0.9889    1.7786 C.3       1 RES1    0.0000
      6 C6         2.8767    2.3969    1.2661 C.3       1 RES1    0.0000
      7 C7         3.9566    2.4852    0.1586 C.3       1 RES1    0.0000
      8 C8         4.4362    3.9590    0.1693 C.3       1 RES1    0.0000
      9 C9         4.0125    4.5326    1.5399 C.3       1 RES1    0.0000
     10 C10        1.5686    2.9923    0.7337 C.3       1 RES1    0.0000
     11 C11        3.6391    1.0755    4.8378 C.3       1 RES1    0.0000
     12 N1         5.7027    3.2632    3.3360 N.2       1 RES1    0.0000
     13 O1         6.6676    2.5355    4.1026 O.3       1 RES1    0.0000
     14 O2         2.5330    3.6934    3.3475 O.3       1 RES1    0.0000
     15 H1         5.3541    0.6991    3.7334 H         1 RES1    0.0000
     16 H2         3.5516   -0.5926    2.7900 H         1 RES1    0.0000
     17 H3         4.5625    0.1369    1.8267 H         1 RES1    0.0000
     18 H4         1.8551    1.0316    2.4895 H         1 RES1    0.0000
     19 H5         2.2438    0.3932    1.0785 H         1 RES1    0.0000
     20 H6         3.4615    2.1534   -0.7009 H         1 RES1    0.0000
     21 H7         4.7111    1.8365    0.4469 H         1 RES1    0.0000
     22 H8         3.9156    4.4070   -0.5461 H         1 RES1    0.0000
     23 H9         5.4868    4.0890   -0.0221 H         1 RES1    0.0000
     24 H10        4.7774    5.0876    1.9975 H         1 RES1    0.0000
     25 H11        3.2745    5.2083    1.4278 H         1 RES1    0.0000
     26 H12        1.5425    3.9176    0.3859 H         1 RES1    0.0000
     27 H13        1.2560    2.5345    0.0458 H         1 RES1    0.0000
     28 H14        0.7887    3.0662    1.3881 H         1 RES1    0.0000
     29 H15        4.1441    1.6023    5.5097 H         1 RES1    0.0000
     30 H16        3.5629    0.3396    5.3046 H         1 RES1    0.0000
     31 H17        2.6551    1.4462    4.6822 H         1 RES1    0.0000
     32 H18        7.5611    2.9336    3.8089 H         1 RES1    0.0000
     33 H19        2.9211    4.4057    3.7815 H         1 RES1    0.0000
@<TRIPOS>BOND
     1    1    2 1
     2    2    3 1
     3    3    4 1
     4    4    5 1
     5    5    6 1
     6    6    1 1
     7    7    6 1
     8    8    7 1
     9    9    1 1
    10   10    6 1
    11   11    3 1
    12   12    2 2
    13   13   12 1
    14   14    1 1
    15   15    3 1
    16   16    4 1
    17   17    4 1
    18   18    5 1
    19   19    5 1
    20   20    7 1
    21   21    7 1
    22   22    8 1
    23   23    8 1
    24   24    9 1
    25   25    9 1
    26   26   10 1
    27   27   10 1
    28   28   10 1
    29   29   11 1
    30   30   11 1
    31   31   11 1
    32   32   13 1
    33   33   14 1
    34    8    9 1
@<TRIPOS>SUBSTRUCTURE
     1 RES1 1

@<TRIPOS>CRYSIN
   6.5440   10.8890    8.0920  95.2900 107.5800  99.2900   2 1

