# MOL2 file generated by ConQuest
# Please check atom types

@<TRIPOS>MOLECULE
GEMFEJ
    30    31     1
SMALL
NO_CHARGES
****
Generated from CSD

@<TRIPOS>ATOM
      1 O1        -4.2666   -5.2054   -2.8423 O.3       1 RES1    0.0000
      2 O2        -3.1484   -9.8548   -2.2613 O.2       1 RES1    0.0000
      3 O3        -5.8117   -7.5896   -4.2400 O.3       1 RES1    0.0000
      4 O4        -5.9725  -10.7166   -7.5642 O.2       1 RES1    0.0000
      5 N1        -5.3034  -11.5475   -6.9523 N.pl3     1 RES1    0.0000
      6 N2        -3.6095  -11.5783   -3.6547 N.am      1 RES1    0.0000
      7 O5        -3.0126   -7.4501   -5.3610 O.3       1 RES1    0.0000
      8 O6        -5.0447  -12.6637   -7.4034 O.2       1 RES1    0.0000
      9 O7        -3.8637  -13.3244   -5.0399 O.2       1 RES1    0.0000
     10 C1        -4.9412   -9.8958   -5.2546 C.2       1 RES1    0.0000
     11 C2        -4.0771  -12.1384   -4.8345 C.2       1 RES1    0.0000
     12 N3        -4.4449   -9.4608   -4.0896 N.am      1 RES1    0.0000
     13 C3        -4.6288   -8.0533   -3.6540 C.3       1 RES1    0.0000
     14 C4        -3.6788  -10.2713   -3.2575 C.2       1 RES1    0.0000
     15 C5        -3.5264   -7.1095   -4.0970 C.3       1 RES1    0.0000
     16 C6        -5.6980   -6.1800   -4.5518 C.3       1 RES1    0.0000
     17 C7        -4.2860   -5.7779   -4.1453 C.3       1 RES1    0.0000
     18 C8        -4.7804  -11.1885   -5.6562 C.2       1 RES1    0.0000
     19 O8        -5.0835   -6.5904   -6.8385 O.3       1 RES1    0.0000
     20 C9        -6.0602   -5.9851   -6.0002 C.3       1 RES1    0.0000
     21 H1        -5.5493   -9.3285   -5.6954 H         1 RES1    0.0000
     22 H2        -4.7343   -8.0987   -2.7113 H         1 RES1    0.0000
     23 H3        -3.9323   -5.1330   -4.7764 H         1 RES1    0.0000
     24 H4        -6.3202   -5.6866   -4.0423 H         1 RES1    0.0000
     25 H5        -6.9196   -6.3085   -6.2660 H         1 RES1    0.0000
     26 H6        -6.0915   -5.1480   -6.1645 H         1 RES1    0.0000
     27 H7        -2.7681   -7.1070   -3.4337 H         1 RES1    0.0000
     28 H8        -3.0895  -12.0730   -3.1055 H         1 RES1    0.0000
     29 H9        -4.4390   -4.5150   -2.8233 H         1 RES1    0.0000
     30 H10       -3.5304   -7.2191   -5.8782 H         1 RES1    0.0000
@<TRIPOS>BOND
     1    1   17 1
     2    2   14 2
     3    3   13 1
     4    4    5 2
     5    5    8 2
     6    6   11 1
     7    7   15 1
     8    9   11 2
     9   10   12 1
    10   11   18 1
    11   12   13 1
    12   13   15 1
    13   14    6 1
    14   15   17 1
    15   16    3 1
    16   17   16 1
    17   18    5 1
    18   19   20 1
    19   20   16 1
    20   21   10 1
    21   22   13 1
    22   23   17 1
    23   24   16 1
    24   25   20 1
    25   26   20 1
    26   27   15 1
    27   28    6 1
    28   29    1 1
    29   30    7 1
    30   10   18 2
    31   12   14 1
@<TRIPOS>SUBSTRUCTURE
     1 RES1 1

@<TRIPOS>CRYSIN
   9.2410   20.5180    6.1870  90.0000  90.0000  90.0000  19 1

