# MOL2 file generated by ConQuest
# Please check atom types

@<TRIPOS>MOLECULE
GEMWUQ
    34    38     1
SMALL
USER_CHARGES
****
Generated from CSD

@<TRIPOS>ATOM
      1 O1         2.0708    9.9731    0.3595 O.2       1 RES1   -1.0000
      2 O2         2.4002    5.1238    0.6590 O.2       1 RES1    0.0000
      3 O3         7.1312    6.8226    2.6824 O.2       1 RES1    0.0000
      4 N1         2.9818    9.1773    0.8536 N.pl3     1 RES1    1.0000
      5 N2         6.5000    4.0452    2.4017 N.3       1 RES1    0.0000
      6 C1         6.3284    9.5231    2.3872 C.ar      1 RES1    0.0000
      7 C2         6.4156   10.8788    2.4451 C.ar      1 RES1    0.0000
      8 C3         5.3810   11.6829    1.9749 C.ar      1 RES1    0.0000
      9 C4         4.2521   11.1258    1.4540 C.ar      1 RES1    0.0000
     10 C5         4.1580    9.7344    1.3962 C.ar      1 RES1    0.0000
     11 C6         2.8114    7.8490    0.8102 C.2       1 RES1    0.0000
     12 C7         3.7983    6.9735    1.2660 C.2       1 RES1    0.0000
     13 C8         3.4659    5.5135    1.1430 C.2       1 RES1    0.0000
     14 C9         4.4804    4.6024    1.5987 C.2       1 RES1    0.0000
     15 C10        4.5469    3.1698    1.6566 C.ar      1 RES1    0.0000
     16 C11        3.6843    2.1159    1.3600 C.ar      1 RES1    0.0000
     17 C12        4.1096    0.8398    1.5698 C.ar      1 RES1    0.0000
     18 C13        5.3988    0.5626    2.0472 C.ar      1 RES1    0.0000
     19 C14        6.2811    1.5616    2.3655 C.ar      1 RES1    0.0000
     20 C15        5.8486    2.8624    2.1630 C.ar      1 RES1    0.0000
     21 C16        5.6805    5.0909    2.0617 C.2       1 RES1    0.0000
     22 C17        6.0597    6.4878    2.2208 C.2       1 RES1    0.0000
     23 C18        5.0171    7.4565    1.7796 C.2       1 RES1    0.0000
     24 C19        5.1857    8.8644    1.8664 C.ar      1 RES1    0.0000
     25 H1         7.0974    8.9742    2.7164 H         1 RES1    0.0000
     26 H2         7.2316   11.3042    2.8365 H         1 RES1    0.0000
     27 H3         5.4678   12.6791    2.0255 H         1 RES1    0.0000
     28 H4         3.5103   11.7021    1.1184 H         1 RES1    0.0000
     29 H5         1.9609    7.4757    0.4369 H         1 RES1    0.0000
     30 H6         2.7681    2.2971    0.9940 H         1 RES1    0.0000
     31 H7         3.4865    0.0796    1.3802 H         1 RES1    0.0000
     32 H8         5.6804   -0.3897    2.1659 H         1 RES1    0.0000
     33 H9         7.1923    1.3640    2.7200 H         1 RES1    0.0000
     34 H10        7.3805    4.1276    2.7482 H         1 RES1    0.0000
@<TRIPOS>BOND
     1    1    4 1
     2    2   13 2
     3    3   22 2
     4    4   10 1
     5    5   20 1
     6    6    7 ar
     7    7    8 ar
     8    8    9 ar
     9    9   10 ar
    10   10   24 ar
    11   11    4 2
    12   12   11 1
    13   13   12 1
    14   14   13 1
    15   15   14 1
    16   16   15 ar
    17   17   16 ar
    18   18   17 ar
    19   19   18 ar
    20   20   15 ar
    21   21    5 1
    22   22   21 1
    23   23   12 2
    24   24    6 ar
    25   25    6 1
    26   26    7 1
    27   27    8 1
    28   28    9 1
    29   29   11 1
    30   30   16 1
    31   31   17 1
    32   32   18 1
    33   33   19 1
    34   34    5 1
    35   14   21 2
    36   19   20 ar
    37   22   23 1
    38   23   24 1
@<TRIPOS>SUBSTRUCTURE
     1 RES1 1

@<TRIPOS>CRYSIN
   6.8870   27.4440    7.2400  90.0000  92.3300  90.0000  14 1

