# MOL2 file generated by ConQuest
# Please check atom types

@<TRIPOS>MOLECULE
GEMZUV
    40    41     1
SMALL
USER_CHARGES
****
Generated from CSD

@<TRIPOS>ATOM
      1 O1         1.3144   -1.7219   12.3181 O.2       1 RES1    0.0000
      2 N1         0.4596   -0.7653   12.2224 N.pl3     1 RES1    0.0000
      3 C1        -0.8669   -0.8208   12.9344 C.3       1 RES1    0.0000
      4 C2        -1.7305   -1.8197   12.1664 C.3       1 RES1    0.0000
      5 H1        -1.7953   -1.5447   11.2405 H         1 RES1    0.0000
      6 H2        -2.6167   -1.8492   12.5597 H         1 RES1    0.0000
      7 H3        -1.3266   -2.6994   12.2154 H         1 RES1    0.0000
      8 C3        -0.6439   -1.2781   14.3734 C.3       1 RES1    0.0000
      9 H4        -0.2878   -2.1803   14.3736 H         1 RES1    0.0000
     10 H5        -1.4870   -1.2641   14.8520 H         1 RES1    0.0000
     11 H6        -0.0148   -0.6819   14.8085 H         1 RES1    0.0000
     12 C4        -1.3266    0.6524   12.7954 C.3       1 RES1    0.0000
     13 C5        -2.8079    0.8404   12.5026 C.3       1 RES1    0.0000
     14 H7        -2.9990    1.7846   12.3911 H         1 RES1    0.0000
     15 H8        -3.3301    0.4896   13.2410 H         1 RES1    0.0000
     16 H9        -3.0388    0.3648   11.6880 H         1 RES1    0.0000
     17 C6        -0.8988    1.5531   13.9521 C.3       1 RES1    0.0000
     18 H10        0.0546    1.4591   14.1000 H         1 RES1    0.0000
     19 H11       -1.3766    1.2950   14.7559 H         1 RES1    0.0000
     20 H12       -1.1036    2.4763   13.7357 H         1 RES1    0.0000
     21 N2        -0.5097    1.0821   11.6161 N.pl3     1 RES1    1.0000
     22 O2        -0.7739    2.1706   10.9817 O.2       1 RES1   -1.0000
     23 C7         0.5711    0.3045   11.4273 C.2       1 RES1    0.0000
     24 C8         1.6679    0.5654   10.5299 C.2       1 RES1    0.0000
     25 C9         2.3118   -0.3339    9.6768 C.2       1 RES1    0.0000
     26 H13        2.0684   -1.2374    9.5842 H         1 RES1    0.0000
     27 N3         3.3073    0.2329    9.0141 N.2       1 RES1    0.0000
     28 N4         3.2994    1.5248    9.4421 N.pl3     1 RES1    0.0000
     29 C10        4.2994    2.4454    8.9126 C.3       1 RES1    0.0000
     30 H14        3.8876    3.3265    8.7923 H         1 RES1    0.0000
     31 H15        4.5895    2.1284    8.0312 H         1 RES1    0.0000
     32 C11        5.4974    2.5899    9.7926 C.3       1 RES1    0.0000
     33 H16        5.2187    2.8916   10.6715 H         1 RES1    0.0000
     34 H17        6.1061    3.2395    9.4048 H         1 RES1    0.0000
     35 H18        5.9457    1.7327    9.8705 H         1 RES1    0.0000
     36 C12        2.3369    1.7509   10.3696 C.2       1 RES1    0.0000
     37 C13        2.1696    3.0678   11.0315 C.3       1 RES1    0.0000
     38 H19        3.0365    3.4023   11.3093 H         1 RES1    0.0000
     39 H20        1.5973    2.9687   11.8076 H         1 RES1    0.0000
     40 H21        1.7657    3.6927   10.4105 H         1 RES1    0.0000
@<TRIPOS>BOND
     1    1    2 1
     2    2    3 1
     3    3    4 1
     4    4    5 1
     5    6    4 1
     6    7    4 1
     7    8    3 1
     8    9    8 1
     9   10    8 1
    10   11    8 1
    11   12    3 1
    12   13   12 1
    13   14   13 1
    14   15   13 1
    15   16   13 1
    16   17   12 1
    17   18   17 1
    18   19   17 1
    19   20   17 1
    20   21   12 1
    21   22   21 1
    22   23    2 1
    23   24   23 1
    24   25   24 1
    25   26   25 1
    26   27   25 2
    27   28   27 1
    28   29   28 1
    29   30   29 1
    30   31   29 1
    31   32   29 1
    32   33   32 1
    33   34   32 1
    34   35   32 1
    35   36   24 2
    36   37   36 1
    37   38   37 1
    38   39   37 1
    39   40   37 1
    40   21   23 2
    41   28   36 1
@<TRIPOS>SUBSTRUCTURE
     1 RES1 1

@<TRIPOS>CRYSIN
  11.3771   14.0300   18.1210  90.0000  90.0000  90.0000  61 1

