# MOL2 file generated by ConQuest
# Please check atom types

@<TRIPOS>MOLECULE
GEQHOZ
    35    36     1
SMALL
NO_CHARGES
****
Generated from CSD

@<TRIPOS>ATOM
      1 N1        -4.2842    4.4859   11.3874 N.2       1 RES1    0.0000
      2 N2        -4.9279    5.1049    9.1992 N.3       1 RES1    0.0000
      3 N3        -6.5169    7.0361    7.6724 N.pl3     1 RES1    0.0000
      4 O1        -4.1192    6.7786   11.0729 O.2       1 RES1    0.0000
      5 O2        -7.3432    7.6724    7.0352 O.2       1 RES1    0.0000
      6 O3        -6.0786    7.4325    8.7356 O.2       1 RES1    0.0000
      7 O4        -5.0925    2.9801    9.8889 O.3       1 RES1    0.0000
      8 C1        -4.7354    4.2194   10.2050 C.2       1 RES1    0.0000
      9 C2        -3.9255    5.7598   11.7378 C.2       1 RES1    0.0000
     10 C3        -3.2482    5.8502   13.0668 C.ar      1 RES1    0.0000
     11 C4        -3.0420    4.7227   13.8506 C.ar      1 RES1    0.0000
     12 C5        -2.4019    4.8209   15.0691 C.ar      1 RES1    0.0000
     13 C6        -1.9638    6.0421   15.5212 C.ar      1 RES1    0.0000
     14 C7        -2.1729    7.1654   14.7610 C.ar      1 RES1    0.0000
     15 C8        -2.8054    7.0705   13.5363 C.ar      1 RES1    0.0000
     16 C9        -5.3099    4.8561    7.8749 C.ar      1 RES1    0.0000
     17 C10       -4.9045    3.6926    7.2141 C.ar      1 RES1    0.0000
     18 C11       -5.2504    3.4603    5.9074 C.ar      1 RES1    0.0000
     19 C12       -5.9834    4.3602    5.1994 C.ar      1 RES1    0.0000
     20 C13       -6.3989    5.5092    5.7981 C.ar      1 RES1    0.0000
     21 C14       -6.0582    5.7668    7.1222 C.ar      1 RES1    0.0000
     22 C15       -4.9005    1.9626   10.8981 C.3       1 RES1    0.0000
     23 H1        -4.8581    5.9334    9.4846 H         1 RES1    0.0000
     24 H2        -3.4053    3.8971   13.4941 H         1 RES1    0.0000
     25 H3        -2.2478    3.9902   15.5808 H         1 RES1    0.0000
     26 H4        -1.5500    6.1020   16.3459 H         1 RES1    0.0000
     27 H5        -1.8829    7.9913   15.0492 H         1 RES1    0.0000
     28 H6        -2.9651    7.8546   12.9960 H         1 RES1    0.0000
     29 H7        -4.3192    3.0791    7.7047 H         1 RES1    0.0000
     30 H8        -4.9635    2.6472    5.5298 H         1 RES1    0.0000
     31 H9        -6.2907    4.2285    4.3374 H         1 RES1    0.0000
     32 H10       -6.8541    6.1651    5.3882 H         1 RES1    0.0000
     33 H11       -3.9625    1.8087   11.0174 H         1 RES1    0.0000
     34 H12       -5.3620    2.2144   11.7713 H         1 RES1    0.0000
     35 H13       -5.3426    1.1674   10.5466 H         1 RES1    0.0000
@<TRIPOS>BOND
     1    1    8 2
     2    2    8 1
     3    3    5 2
     4    4    9 2
     5    6    3 2
     6    7    8 1
     7    9    1 1
     8   10    9 1
     9   11   10 ar
    10   12   11 ar
    11   13   12 ar
    12   14   13 ar
    13   15   10 ar
    14   16    2 1
    15   17   16 ar
    16   18   17 ar
    17   19   18 ar
    18   20   19 ar
    19   21    3 1
    20   22    7 1
    21   23    2 1
    22   24   11 1
    23   25   12 1
    24   26   13 1
    25   27   14 1
    26   28   15 1
    27   29   17 1
    28   30   18 1
    29   31   19 1
    30   32   20 1
    31   33   22 1
    32   34   22 1
    33   35   22 1
    34   14   15 ar
    35   16   21 ar
    36   20   21 ar
@<TRIPOS>SUBSTRUCTURE
     1 RES1 1

@<TRIPOS>CRYSIN
   7.7330    8.1020   12.7600  94.9200  98.7600 116.3200   2 1

