# MOL2 file generated by ConQuest
# Please check atom types

@<TRIPOS>MOLECULE
GEQTUR
    29    30     1
SMALL
NO_CHARGES
****
Generated from CSD

@<TRIPOS>ATOM
      1 O1        10.4785    2.8011    1.4045 O.3       1 RES1    0.0000
      2 H1        10.4074    3.3673    0.8158 H         1 RES1    0.0000
      3 O2         8.7918    1.8369    0.2756 O.2       1 RES1    0.0000
      4 O3         6.9628   -0.8860    0.8162 O.2       1 RES1    0.0000
      5 O4        11.4283   -3.0534    4.8126 O.2       1 RES1    0.0000
      6 O5         9.3502   -3.5328    4.5993 O.2       1 RES1    0.0000
      7 N1        10.3187   -2.8230    4.3913 N.pl3     1 RES1    0.0000
      8 C1         9.7796    0.6576    2.0760 C.ar      1 RES1    0.0000
      9 C2         8.7143   -0.2318    2.2443 C.ar      1 RES1    0.0000
     10 C3         8.9016   -1.3655    3.0053 C.ar      1 RES1    0.0000
     11 H2         8.2053   -1.9694    3.1262 H         1 RES1    0.0000
     12 C4        10.1260   -1.5946    3.5830 C.ar      1 RES1    0.0000
     13 C5        11.1835   -0.7370    3.4473 C.ar      1 RES1    0.0000
     14 H3        11.9996   -0.9105    3.8582 H         1 RES1    0.0000
     15 C6        10.9978    0.3967    2.6785 C.ar      1 RES1    0.0000
     16 H4        11.7023    0.9933    2.5645 H         1 RES1    0.0000
     17 C7         9.6341    1.8336    1.1801 C.2       1 RES1    0.0000
     18 C8         7.3557   -0.0450    1.6022 C.2       1 RES1    0.0000
     19 C9         6.5149    1.1204    1.9910 C.ar      1 RES1    0.0000
     20 C10        5.4079    1.4429    1.2115 C.ar      1 RES1    0.0000
     21 H5         5.2155    0.9364    0.4546 H         1 RES1    0.0000
     22 C11        4.5985    2.5011    1.5443 C.ar      1 RES1    0.0000
     23 H6         3.8545    2.7031    1.0248 H         1 RES1    0.0000
     24 C12        4.8986    3.2593    2.6544 C.ar      1 RES1    0.0000
     25 H7         4.3585    3.9811    2.8796 H         1 RES1    0.0000
     26 C13        5.9900    2.9574    3.4296 C.ar      1 RES1    0.0000
     27 H8         6.1866    3.4746    4.1764 H         1 RES1    0.0000
     28 C14        6.7973    1.8846    3.1002 C.ar      1 RES1    0.0000
     29 H9         7.5344    1.6787    3.6295 H         1 RES1    0.0000
@<TRIPOS>BOND
     1    1    2 1
     2    3   17 2
     3    4   18 2
     4    5    7 2
     5    6    7 2
     6    7   12 1
     7    8    9 ar
     8    9   10 ar
     9   10   11 1
    10   12   10 ar
    11   13   12 ar
    12   14   13 1
    13   15    8 ar
    14   16   15 1
    15   17    1 1
    16   18    9 1
    17   19   18 1
    18   20   19 ar
    19   21   20 1
    20   22   20 ar
    21   23   22 1
    22   24   22 ar
    23   25   24 1
    24   26   24 ar
    25   27   26 1
    26   28   19 ar
    27   29   28 1
    28    8   17 1
    29   13   15 ar
    30   26   28 ar
@<TRIPOS>SUBSTRUCTURE
     1 RES1 1

@<TRIPOS>CRYSIN
   9.4550    6.6220   21.3330  90.0000 107.9600  90.0000  14 1

