# MOL2 file generated by ConQuest
# Please check atom types

@<TRIPOS>MOLECULE
GERFIU
    37    37     1
SMALL
NO_CHARGES
****
Generated from CSD

@<TRIPOS>ATOM
      1 O1         5.8254    5.8457    5.1588 O.3       1 RES1    0.0000
      2 O2         2.6910    8.5522    5.9990 O.2       1 RES1    0.0000
      3 O3         1.3064    6.8474    5.6360 O.3       1 RES1    0.0000
      4 O4         0.9885    9.5461    3.5183 O.2       1 RES1    0.0000
      5 O5         2.4661    9.0876    1.9216 O.3       1 RES1    0.0000
      6 N1         4.4994    5.8217    4.6682 N.2       1 RES1    0.0000
      7 C1         3.0666    5.3350    2.8977 C.ar      1 RES1    0.0000
      8 C2         2.1355    6.3747    3.0922 C.ar      1 RES1    0.0000
      9 C3         0.8402    6.2082    2.6156 C.ar      1 RES1    0.0000
     10 H1         0.1946    6.9334    2.7711 H         1 RES1    0.0000
     11 C4         0.4610    5.0522    1.9487 C.ar      1 RES1    0.0000
     12 H2        -0.4571    5.0074    1.5744 H         1 RES1    0.0000
     13 C5         1.3806    4.0560    1.7160 C.ar      1 RES1    0.0000
     14 H3         1.1427    3.2890    1.2099 H         1 RES1    0.0000
     15 C6         2.6664    4.1963    2.1927 C.ar      1 RES1    0.0000
     16 H4         3.2989    3.5085    2.0707 H         1 RES1    0.0000
     17 C7         4.4361    5.3807    3.4775 C.2       1 RES1    0.0000
     18 C8         5.6218    4.9037    2.6896 C.3       1 RES1    0.0000
     19 H5         5.3206    4.4774    1.8838 H         1 RES1    0.0000
     20 H6         6.1240    4.2759    3.2147 H         1 RES1    0.0000
     21 H7         6.1796    5.6524    2.4663 H         1 RES1    0.0000
     22 C9         5.7999    6.3505    6.4837 C.3       1 RES1    0.0000
     23 H8         5.4476    7.2439    6.4798 H         1 RES1    0.0000
     24 H9         6.6910    6.3601    6.8404 H         1 RES1    0.0000
     25 H10        5.2431    5.7897    7.0289 H         1 RES1    0.0000
     26 C10        2.5085    7.6789    3.7803 C.3       1 RES1    0.0000
     27 H11        3.3990    7.7993    3.6948 H         1 RES1    0.0000
     28 C11        2.1893    7.7506    5.2605 C.2       1 RES1    0.0000
     29 C12        0.9556    6.8244    7.0343 C.3       1 RES1    0.0000
     30 H12        0.5552    7.6619    7.2778 H         1 RES1    0.0000
     31 H13        1.7457    6.6825    7.5602 H         1 RES1    0.0000
     32 H14        0.3315    6.1122    7.1956 H         1 RES1    0.0000
     33 C13        1.8789    8.8733    3.0864 C.2       1 RES1    0.0000
     34 C14        2.0444   10.2589    1.1750 C.3       1 RES1    0.0000
     35 H15        2.2947   11.0808    1.6442 H         1 RES1    0.0000
     36 H16        2.4933   10.1731    0.3568 H         1 RES1    0.0000
     37 H17        1.0888   10.1791    0.9927 H         1 RES1    0.0000
@<TRIPOS>BOND
     1    1    6 1
     2    2   28 2
     3    3   28 1
     4    4   33 2
     5    5   33 1
     6    6   17 2
     7    7    8 ar
     8    8    9 ar
     9    9   10 1
    10   11    9 ar
    11   12   11 1
    12   13   11 ar
    13   14   13 1
    14   15    7 ar
    15   16   15 1
    16   17    7 1
    17   18   17 1
    18   19   18 1
    19   20   18 1
    20   21   18 1
    21   22    1 1
    22   23   22 1
    23   24   22 1
    24   25   22 1
    25   26    8 1
    26   27   26 1
    27   28   26 1
    28   29    3 1
    29   30   29 1
    30   31   29 1
    31   32   29 1
    32   33   26 1
    33   34    5 1
    34   35   34 1
    35   36   34 1
    36   37   34 1
    37   13   15 ar
@<TRIPOS>SUBSTRUCTURE
     1 RES1 1

@<TRIPOS>CRYSIN
  12.5062   14.9297    7.8289  90.0000  97.8470  90.0000  14 1

