# MOL2 file generated by ConQuest
# Please check atom types

@<TRIPOS>MOLECULE
GERPOJ02
    34    34     1
SMALL
NO_CHARGES
****
Generated from CSD

@<TRIPOS>ATOM
      1 H1        -3.9450    1.5579   11.0396 H         1 RES1    0.0000
      2 H2         2.1876    2.3018   10.5154 H         1 RES1    0.0000
      3 H3        -1.3760    2.5965   14.6724 H         1 RES1    0.0000
      4 H4         0.3292    1.0667   13.7226 H         1 RES1    0.0000
      5 N1         1.3310    1.5751    8.1183 N.pl3     1 RES1    0.0000
      6 C1         0.3304    1.9984   10.3976 C.ar      1 RES1    0.0000
      7 O1         1.0416    0.7319   13.4719 O.3       1 RES1    0.0000
      8 O2         2.4707    1.7166    8.5665 O.2       1 RES1    0.0000
      9 N2        -3.3623    0.9032    8.5719 N.pl3     1 RES1    0.0000
     10 N3         1.5009    2.3207   10.9708 N.3       1 RES1    0.0000
     11 O3         1.1382    1.4190    6.9195 O.2       1 RES1    0.0000
     12 N4        -3.2130    1.7495   11.3826 N.3       1 RES1    0.0000
     13 O4        -3.4041    0.9158    7.3428 O.2       1 RES1    0.0000
     14 C2        -2.1505    1.2842    9.2331 C.ar      1 RES1    0.0000
     15 C3        -1.0053    1.2744    8.4775 C.ar      1 RES1    0.0000
     16 H5        -1.0555    1.0323    7.5809 H         1 RES1    0.0000
     17 O5        -4.3375    0.5663    9.2474 O.2       1 RES1    0.0000
     18 C4        -2.1124    1.6878   10.6131 C.ar      1 RES1    0.0000
     19 C5        -0.8636    2.0309   11.1207 C.ar      1 RES1    0.0000
     20 H6        -0.8204    2.3032   12.0088 H         1 RES1    0.0000
     21 C6         0.2174    1.6130    9.0120 C.ar      1 RES1    0.0000
     22 O6        -1.4164    1.8627   14.2246 O.3       1 RES1    0.0000
     23 C7         1.6700    2.8218   12.3254 C.3       1 RES1    0.0000
     24 H7         0.8482    3.2555   12.6026 H         1 RES1    0.0000
     25 H8         2.3705    3.4927   12.3241 H         1 RES1    0.0000
     26 C8         2.0213    1.7530   13.3402 C.3       1 RES1    0.0000
     27 H9         2.8634    1.3453   13.0843 H         1 RES1    0.0000
     28 H10        2.1493    2.1741   14.2043 H         1 RES1    0.0000
     29 C9        -3.2919    2.3902   12.6819 C.3       1 RES1    0.0000
     30 H11       -4.2202    2.6042   12.8599 H         1 RES1    0.0000
     31 H12       -2.8042    3.2281   12.6394 H         1 RES1    0.0000
     32 C10       -2.7516    1.5825   13.8577 C.3       1 RES1    0.0000
     33 H13       -3.3215    1.7425   14.6260 H         1 RES1    0.0000
     34 H14       -2.8181    0.6400   13.6375 H         1 RES1    0.0000
@<TRIPOS>BOND
     1    1   12 1
     2    2   10 1
     3    3   22 1
     4    4    7 1
     5    5    8 2
     6    6   10 1
     7    7   26 1
     8    9   13 2
     9   10   23 1
    10   11    5 2
    11   12   18 1
    12   14    9 1
    13   15   14 ar
    14   16   15 1
    15   17    9 2
    16   18   14 ar
    17   19    6 ar
    18   20   19 1
    19   21    5 1
    20   22   32 1
    21   23   24 1
    22   25   23 1
    23   26   23 1
    24   27   26 1
    25   28   26 1
    26   29   12 1
    27   30   29 1
    28   31   29 1
    29   32   29 1
    30   33   32 1
    31   34   32 1
    32    6   21 ar
    33   15   21 ar
    34   18   19 ar
@<TRIPOS>SUBSTRUCTURE
     1 RES1 1

@<TRIPOS>CRYSIN
  17.4174    7.0176   19.3440  90.0000  90.0000  90.0000  61 1

