# MOL2 file generated by ConQuest
# Please check atom types

@<TRIPOS>MOLECULE
GERPOJ
    34    34     1
SMALL
NO_CHARGES
****
Generated from CSD

@<TRIPOS>ATOM
      1 O1        13.0728    0.5664   10.1118 O.2       1 RES1    0.0000
      2 O2        12.1374    0.9184   12.0196 O.2       1 RES1    0.0000
      3 O3         7.5868    1.4227   12.4440 O.2       1 RES1    0.0000
      4 O4         6.2501    1.7208   10.7936 O.2       1 RES1    0.0000
      5 O5        10.1465    1.8646    5.1260 O.3       1 RES1    0.0000
      6 H1        10.0811    2.5809    4.7273 H         1 RES1    0.0000
      7 O6         7.6844    0.7346    5.8801 O.3       1 RES1    0.0000
      8 H2         8.4003    1.0760    5.6088 H         1 RES1    0.0000
      9 N1        12.0945    0.9050   10.7897 N.pl3     1 RES1    0.0000
     10 N2         7.3920    1.5779   11.2430 N.pl3     1 RES1    0.0000
     11 N3        11.9482    1.7509    7.9736 N.3       1 RES1    0.0000
     12 H3        12.6869    1.5542    8.3464 H         1 RES1    0.0000
     13 N4         7.2229    2.3260    8.3873 N.3       1 RES1    0.0000
     14 H4         6.5223    2.3207    8.8811 H         1 RES1    0.0000
     15 C1        10.8825    1.2865   10.1259 C.ar      1 RES1    0.0000
     16 C2        10.8429    1.6908    8.7447 C.ar      1 RES1    0.0000
     17 C3         9.5917    2.0359    8.2371 C.ar      1 RES1    0.0000
     18 H5         9.5505    2.2433    7.3254 H         1 RES1    0.0000
     19 C4         8.3965    2.0026    8.9627 C.ar      1 RES1    0.0000
     20 C5         8.5075    1.6165   10.3472 C.ar      1 RES1    0.0000
     21 C6         9.7331    1.2762   10.8819 C.ar      1 RES1    0.0000
     22 H6         9.7652    1.0056   11.7834 H         1 RES1    0.0000
     23 C7        12.0242    2.3924    6.6709 C.3       1 RES1    0.0000
     24 H7        11.5646    3.2630    6.6880 H         1 RES1    0.0000
     25 H8        12.9626    2.5598    6.5078 H         1 RES1    0.0000
     26 C8        11.4849    1.5858    5.4943 C.3       1 RES1    0.0000
     27 H9        12.0411    1.7018    4.7137 H         1 RES1    0.0000
     28 H10       11.5192    0.6259    5.7193 H         1 RES1    0.0000
     29 C9         7.0522    2.8270    7.0286 C.3       1 RES1    0.0000
     30 H11        6.3024    3.4740    7.0464 H         1 RES1    0.0000
     31 H12        7.8505    3.2912    6.7325 H         1 RES1    0.0000
     32 C10        6.6983    1.7574    6.0120 C.3       1 RES1    0.0000
     33 H13        5.8609    1.3151    6.2772 H         1 RES1    0.0000
     34 H14        6.5660    2.2011    5.1380 H         1 RES1    0.0000
@<TRIPOS>BOND
     1    1    9 2
     2    2    9 2
     3    3   10 2
     4    4   10 2
     5    5    6 1
     6    7    8 1
     7    9   15 1
     8   10   20 1
     9   11   12 1
    10   13   14 1
    11   15   16 ar
    12   16   11 1
    13   17   16 ar
    14   18   17 1
    15   19   13 1
    16   20   19 ar
    17   21   15 ar
    18   22   21 1
    19   23   11 1
    20   24   23 1
    21   25   23 1
    22   26    5 1
    23   27   26 1
    24   28   26 1
    25   29   13 1
    26   30   29 1
    27   31   29 1
    28   32    7 1
    29   33   32 1
    30   34   32 1
    31   17   19 ar
    32   20   21 ar
    33   23   26 1
    34   29   32 1
@<TRIPOS>SUBSTRUCTURE
     1 RES1 1

@<TRIPOS>CRYSIN
  17.4534    7.0324   19.3742  90.0000  90.0000  90.0000  61 1

