# MOL2 file generated by ConQuest
# Please check atom types

@<TRIPOS>MOLECULE
GESBIP
    42    41     1
SMALL
NO_CHARGES
****
Generated from CSD

@<TRIPOS>ATOM
      1 N1         3.9289   19.5454   -1.9747 N.pl3     1 RES1    0.0000
      2 O1         4.4870   18.6072   -1.4585 O.2       1 RES1    0.0000
      3 O2         4.4552   20.2116   -2.8333 O.2       1 RES1    0.0000
      4 C1         2.5680   19.9250   -1.5144 C.3       1 RES1    0.0000
      5 C2         2.6532   21.1205   -0.6038 C.3       1 RES1    0.0000
      6 C3         1.2972   21.5393   -0.0626 C.3       1 RES1    0.0000
      7 C4         1.3890   22.7200    0.8879 C.3       1 RES1    0.0000
      8 C5         0.0571   23.1365    1.4812 C.3       1 RES1    0.0000
      9 C6         0.1560   24.2878    2.4655 C.3       1 RES1    0.0000
     10 H1         2.0900   20.0916   -2.3060 H         1 RES1    0.0000
     11 H2         2.2253   19.1755   -1.0929 H         1 RES1    0.0000
     12 H3         3.0774   21.8431   -1.0668 H         1 RES1    0.0000
     13 H4         3.2015   20.9000    0.0886 H         1 RES1    0.0000
     14 H5         0.7066   21.7573   -0.7733 H         1 RES1    0.0000
     15 H6         0.9281   20.7873    0.4110 H         1 RES1    0.0000
     16 H7         1.9801   22.4971    1.6080 H         1 RES1    0.0000
     17 H8         1.7199   23.4672    0.4260 H         1 RES1    0.0000
     18 H9        -0.5510   23.3863    0.7694 H         1 RES1    0.0000
     19 H10       -0.3070   22.3967    1.9382 H         1 RES1    0.0000
     20 H11        0.7696   24.0502    3.1729 H         1 RES1    0.0000
     21 H12        0.5549   25.0276    2.0329 H         1 RES1    0.0000
     22 C6B       -1.1686   24.7042    3.0737 C.3       1 RES1    0.0000
     23 C5B       -1.0697   25.8555    4.0580 C.3       1 RES1    0.0000
     24 H11B      -1.7823   24.9418    2.3663 H         1 RES1    0.0000
     25 H12B      -1.5676   23.9644    3.5063 H         1 RES1    0.0000
     26 C4B       -2.4017   26.2720    4.6513 C.3       1 RES1    0.0000
     27 H9B       -0.4617   25.6057    4.7698 H         1 RES1    0.0000
     28 H10B      -0.7057   26.5953    3.6010 H         1 RES1    0.0000
     29 C3B       -2.3099   27.4527    5.6018 C.3       1 RES1    0.0000
     30 H7B       -2.9928   26.4949    3.9312 H         1 RES1    0.0000
     31 H8B       -2.7325   25.5248    5.1132 H         1 RES1    0.0000
     32 C2B       -3.6659   27.8715    6.1430 C.3       1 RES1    0.0000
     33 H5B       -1.7192   27.2347    6.3125 H         1 RES1    0.0000
     34 H6B       -1.9407   28.2047    5.1282 H         1 RES1    0.0000
     35 C1B       -3.5806   29.0670    7.0536 C.3       1 RES1    0.0000
     36 H3B       -4.0901   27.1489    6.6060 H         1 RES1    0.0000
     37 H4B       -4.2141   28.0920    5.4506 H         1 RES1    0.0000
     38 N1B       -4.9415   29.4466    7.5139 N.pl3     1 RES1    0.0000
     39 H1B       -3.1026   28.9004    7.8452 H         1 RES1    0.0000
     40 H2B       -3.2380   29.8165    6.6321 H         1 RES1    0.0000
     41 O1B       -5.4996   30.3848    6.9977 O.2       1 RES1    0.0000
     42 O2B       -5.4678   28.7804    8.3725 O.2       1 RES1    0.0000
@<TRIPOS>BOND
     1    1    2 2
     2    3    1 2
     3    4    1 1
     4    5    4 1
     5    6    5 1
     6    7    6 1
     7    8    7 1
     8    9    8 1
     9   10    4 1
    10   11    4 1
    11   12    5 1
    12   13    5 1
    13   14    6 1
    14   15    6 1
    15   16    7 1
    16   17    7 1
    17   18    8 1
    18   19    8 1
    19   20    9 1
    20   21    9 1
    21   22    9 1
    22   23   22 1
    23   24   22 1
    24   25   22 1
    25   26   23 1
    26   27   23 1
    27   28   23 1
    28   29   26 1
    29   30   26 1
    30   31   26 1
    31   32   29 1
    32   33   29 1
    33   34   29 1
    34   35   32 1
    35   36   32 1
    36   37   32 1
    37   38   35 1
    38   39   35 1
    39   40   35 1
    40   41   38 2
    41   42   38 2
@<TRIPOS>SUBSTRUCTURE
     1 RES1 1

@<TRIPOS>CRYSIN
   5.3220   24.4960    5.6310  90.0000 100.3600  90.0000 231 1

