# MOL2 file generated by ConQuest
# Please check atom types

@<TRIPOS>MOLECULE
GESFAO
    31    33     1
SMALL
NO_CHARGES
****
Generated from CSD

@<TRIPOS>ATOM
      1 O1         8.4599    4.9939    1.3784 O.2       1 RES1    0.0000
      2 O2        10.5041    5.6633    1.3896 O.2       1 RES1    0.0000
      3 O3        14.4957    2.3644    5.0805 O.2       1 RES1    0.0000
      4 N1        12.8431    3.6122    4.1929 N.am      1 RES1    0.0000
      5 N2         9.6605    4.7784    1.4646 N.pl3     1 RES1    0.0000
      6 N3        13.1139    4.7691    2.1620 N.3       1 RES1    0.0000
      7 C1        16.8253    2.9890    1.6018 C.ar      1 RES1    0.0000
      8 H1        17.6546    2.5879    1.4717 H         1 RES1    0.0000
      9 C2        16.0822    2.6979    2.7169 C.ar      1 RES1    0.0000
     10 H2        16.4186    2.1096    3.3545 H         1 RES1    0.0000
     11 C3        14.8274    3.2744    2.9046 C.ar      1 RES1    0.0000
     12 C4        14.0589    3.0309    4.1327 C.2       1 RES1    0.0000
     13 C5        12.1404    4.1654    3.0493 C.3       1 RES1    0.0000
     14 H3        11.5501    4.8768    3.3755 H         1 RES1    0.0000
     15 C6        11.2616    3.0995    2.3706 C.ar      1 RES1    0.0000
     16 C7        10.1029    3.3973    1.6506 C.ar      1 RES1    0.0000
     17 C8         9.2785    2.4299    1.1082 C.ar      1 RES1    0.0000
     18 H4         8.5126    2.6711    0.6389 H         1 RES1    0.0000
     19 C9         9.6090    1.1057    1.2727 C.ar      1 RES1    0.0000
     20 H5         9.0670    0.4405    0.9134 H         1 RES1    0.0000
     21 C10       10.7425    0.7688    1.9694 C.ar      1 RES1    0.0000
     22 H6        10.9697   -0.1263    2.0755 H         1 RES1    0.0000
     23 C11       11.5479    1.7480    2.5131 C.ar      1 RES1    0.0000
     24 H7        12.3044    1.4953    2.9901 H         1 RES1    0.0000
     25 C12       16.3312    3.8827    0.6739 C.ar      1 RES1    0.0000
     26 H8        16.8414    4.0919   -0.0748 H         1 RES1    0.0000
     27 C13       15.1061    4.4662    0.8345 C.ar      1 RES1    0.0000
     28 H9        14.7913    5.0668    0.1974 H         1 RES1    0.0000
     29 C14       14.3243    4.1646    1.9510 C.ar      1 RES1    0.0000
     30 H10       12.3282    3.4300    4.9196 H         1 RES1    0.0000
     31 H11       12.7809    5.3011    1.5569 H         1 RES1    0.0000
@<TRIPOS>BOND
     1    1    5 2
     2    2    5 2
     3    3   12 2
     4    4   12 1
     5    5   16 1
     6    6   13 1
     7    7    8 1
     8    9    7 ar
     9   10    9 1
    10   11    9 ar
    11   12   11 1
    12   13    4 1
    13   14   13 1
    14   15   13 1
    15   16   15 ar
    16   17   16 ar
    17   18   17 1
    18   19   17 ar
    19   20   19 1
    20   21   19 ar
    21   22   21 1
    22   23   15 ar
    23   24   23 1
    24   25    7 ar
    25   26   25 1
    26   27   25 ar
    27   28   27 1
    28   29    6 1
    29   30    4 1
    30   31    6 1
    31   11   29 ar
    32   21   23 ar
    33   27   29 ar
@<TRIPOS>SUBSTRUCTURE
     1 RES1 1

@<TRIPOS>CRYSIN
  19.9791   10.7965   12.4154  90.0000 109.8190  90.0000  15 1

