# MOL2 file generated by ConQuest
# Please check atom types

@<TRIPOS>MOLECULE
GESJUJ
    39    41     1
SMALL
NO_CHARGES
****
Generated from CSD

@<TRIPOS>ATOM
      1 C1         3.4473    4.8691    1.4583 C.ar      1 RES1    0.0000
      2 C2         3.5439    6.3130    1.9747 C.3       1 RES1    0.0000
      3 O1         4.6685    6.9776    1.4290 O.3       1 RES1    0.0000
      4 O2         2.3507    6.9527    1.5406 O.3       1 RES1    0.0000
      5 C3         2.1430    8.3427    1.9146 C.3       1 RES1    0.0000
      6 C4         0.7855    8.7130    1.3620 C.3       1 RES1    0.0000
      7 C5         2.2209    8.4892    3.4218 C.3       1 RES1    0.0000
      8 C6         3.5423    7.9420    3.9284 C.3       1 RES1    0.0000
      9 C7         3.7748    6.4788    3.5195 C.3       1 RES1    0.0000
     10 N1         2.7376    5.6664    4.3052 N.pl3     1 RES1    0.0000
     11 O3         1.7769    5.1869    3.7372 O.2       1 RES1    0.0000
     12 O4         2.9220    5.5627    5.5095 O.2       1 RES1    0.0000
     13 C8         5.1656    6.0505    4.0163 C.3       1 RES1    0.0000
     14 C9         5.6049    4.6149    3.7456 C.3       1 RES1    0.0000
     15 C10        5.8297    4.3289    2.2579 C.3       1 RES1    0.0000
     16 C11        4.5478    3.9959    1.5281 C.ar      1 RES1    0.0000
     17 C12        4.4324    2.7289    0.9378 C.ar      1 RES1    0.0000
     18 C13        3.2665    2.3102    0.3154 C.ar      1 RES1    0.0000
     19 C14        2.1681    3.1599    0.2847 C.ar      1 RES1    0.0000
     20 C15        2.2657    4.4283    0.8499 C.ar      1 RES1    0.0000
     21 H1         4.6572    6.9168    0.5484 H         1 RES1    0.0000
     22 H2         2.8286    8.8691    1.4834 H         1 RES1    0.0000
     23 H3         0.0610    8.1838    1.7472 H         1 RES1    0.0000
     24 H4         0.7259    8.5279    0.4117 H         1 RES1    0.0000
     25 H5         0.6392    9.6871    1.4751 H         1 RES1    0.0000
     26 H6         1.4534    8.0373    3.8893 H         1 RES1    0.0000
     27 H7         2.1101    9.4536    3.7009 H         1 RES1    0.0000
     28 H8         3.6128    7.9876    4.9262 H         1 RES1    0.0000
     29 H9         4.3046    8.4615    3.5530 H         1 RES1    0.0000
     30 H10        5.1869    6.2342    4.9778 H         1 RES1    0.0000
     31 H11        5.7707    6.6570    3.5837 H         1 RES1    0.0000
     32 H12        4.9484    3.9489    4.1391 H         1 RES1    0.0000
     33 H13        6.4488    4.4449    4.2228 H         1 RES1    0.0000
     34 H14        6.2780    5.1372    1.8630 H         1 RES1    0.0000
     35 H15        6.4567    3.5537    2.1254 H         1 RES1    0.0000
     36 H16        5.2407    2.1596    0.9657 H         1 RES1    0.0000
     37 H17        3.2305    1.4770   -0.1256 H         1 RES1    0.0000
     38 H18        1.3298    2.8878   -0.1326 H         1 RES1    0.0000
     39 H19        1.4955    5.0142    0.8234 H         1 RES1    0.0000
@<TRIPOS>BOND
     1    1    2 1
     2    2    3 1
     3    3   21 1
     4    4    2 1
     5    5    4 1
     6    6    5 1
     7    7    5 1
     8    8    7 1
     9    9    2 1
    10   10    9 1
    11   11   10 2
    12   12   10 2
    13   13    9 1
    14   14   13 1
    15   15   14 1
    16   16    1 ar
    17   17   16 ar
    18   18   17 ar
    19   19   18 ar
    20   20    1 ar
    21   22    5 1
    22   23    6 1
    23   24    6 1
    24   25    6 1
    25   26    7 1
    26   27    7 1
    27   28    8 1
    28   29    8 1
    29   30   13 1
    30   31   13 1
    31   32   14 1
    32   33   14 1
    33   34   15 1
    34   35   15 1
    35   36   17 1
    36   37   18 1
    37   38   19 1
    38   39   20 1
    39    8    9 1
    40   15   16 1
    41   19   20 ar
@<TRIPOS>SUBSTRUCTURE
     1 RES1 1

@<TRIPOS>CRYSIN
   7.0570   13.8170   15.4220  90.0000 115.1920  90.0000  14 1

