# MOL2 file generated by ConQuest
# Please check atom types

@<TRIPOS>MOLECULE
GESYIN
    43    46     1
SMALL
NO_CHARGES
****
Generated from CSD

@<TRIPOS>ATOM
      1 C1         4.5494    4.8099    5.4374 C.2       1 RES1    0.0000
      2 C2         4.3783    3.9010    6.5234 C.2       1 RES1    0.0000
      3 C3         4.8552    4.0056    7.9422 C.3       1 RES1    0.0000
      4 C4         4.1975    2.9430    8.8188 C.3       1 RES1    0.0000
      5 C5         4.2468    1.5883    8.1282 C.3       1 RES1    0.0000
      6 C6         3.3847    1.5845    6.8654 C.3       1 RES1    0.0000
      7 C7         3.6594    2.8218    6.0682 C.2       1 RES1    0.0000
      8 N1         3.3451    3.0444    4.7173 N.pl3     1 RES1    0.0000
      9 C8         2.5879    2.2735    3.8246 C.ar      1 RES1    0.0000
     10 C9         1.8546    1.1582    4.2512 C.ar      1 RES1    0.0000
     11 C10        1.1368    0.3899    3.3596 C.ar      1 RES1    0.0000
     12 C11        1.0971    0.7339    2.0165 C.ar      1 RES1    0.0000
     13 C12        1.7891    1.8464    1.6018 C.ar      1 RES1    0.0000
     14 C13        2.5474    2.6746    2.4592 C.ar      1 RES1    0.0000
     15 C14        3.1806    3.9032    2.0669 C.2       1 RES1    0.0000
     16 C15        3.7972    4.6776    2.9815 C.2       1 RES1    0.0000
     17 C16        3.9148    4.2649    4.3312 C.2       1 RES1    0.0000
     18 C17        5.2558    6.0854    5.4187 C.2       1 RES1    0.0000
     19 O1         5.3130    6.8536    4.4781 O.2       1 RES1    0.0000
     20 O2         5.8429    6.3388    6.6006 O.3       1 RES1    0.0000
     21 C18        6.4917    7.6233    6.7636 C.3       1 RES1    0.0000
     22 C19        6.8580    7.7339    8.2095 C.3       1 RES1    0.0000
     23 N2         1.7123    2.1439    0.1654 N.pl3     1 RES1    0.0000
     24 O3         0.6439    1.9423   -0.4063 O.2       1 RES1    0.0000
     25 O4         2.7241    2.5414   -0.4121 O.2       1 RES1    0.0000
     26 H1         5.8422    3.9243    7.9758 H         1 RES1    0.0000
     27 H2         4.6828    4.8833    8.2800 H         1 RES1    0.0000
     28 H3         3.2440    3.2090    8.9910 H         1 RES1    0.0000
     29 H4         4.6461    2.8826    9.6900 H         1 RES1    0.0000
     30 H5         5.2027    1.3744    7.8781 H         1 RES1    0.0000
     31 H6         3.9027    0.8608    8.7221 H         1 RES1    0.0000
     32 H7         3.5834    0.7587    6.2989 H         1 RES1    0.0000
     33 H8         2.3958    1.5209    7.1177 H         1 RES1    0.0000
     34 H9         1.8255    0.9235    5.1849 H         1 RES1    0.0000
     35 H10        0.6463   -0.3930    3.6842 H         1 RES1    0.0000
     36 H11        0.6149    0.2148    1.3607 H         1 RES1    0.0000
     37 H12        3.1351    4.1971    1.1008 H         1 RES1    0.0000
     38 H13        4.2147    5.4956    2.7526 H         1 RES1    0.0000
     39 H14        7.2831    7.6481    6.1468 H         1 RES1    0.0000
     40 H15        5.8424    8.3375    6.4751 H         1 RES1    0.0000
     41 H16        6.0563    7.7152    8.7856 H         1 RES1    0.0000
     42 H17        7.3447    8.5792    8.3807 H         1 RES1    0.0000
     43 H18        7.4560    6.9887    8.5146 H         1 RES1    0.0000
@<TRIPOS>BOND
     1    1    2 1
     2    2    3 1
     3    3    4 1
     4    4    5 1
     5    5    6 1
     6    6    7 1
     7    7    2 2
     8    8    7 1
     9    9    8 1
    10   10    9 ar
    11   11   10 ar
    12   12   11 ar
    13   13   12 ar
    14   14    9 ar
    15   15   14 1
    16   16   15 2
    17   17    1 2
    18   18    1 1
    19   19   18 2
    20   20   18 1
    21   21   20 1
    22   22   21 1
    23   23   13 1
    24   24   23 2
    25   25   23 2
    26   26    3 1
    27   27    3 1
    28   28    4 1
    29   29    4 1
    30   30    5 1
    31   31    5 1
    32   32    6 1
    33   33    6 1
    34   34   10 1
    35   35   11 1
    36   36   12 1
    37   37   15 1
    38   38   16 1
    39   39   21 1
    40   40   21 1
    41   41   22 1
    42   42   22 1
    43   43   22 1
    44    8   17 1
    45   13   14 ar
    46   16   17 1
@<TRIPOS>SUBSTRUCTURE
     1 RES1 1

@<TRIPOS>CRYSIN
   8.3578    9.7068   10.2325  92.5370  98.6560 107.0140   2 1

