# MOL2 file generated by ConQuest
# Please check atom types

@<TRIPOS>MOLECULE
GETFIU
    17    17     1
SMALL
USER_CHARGES
****
Generated from CSD

@<TRIPOS>ATOM
      1 C1        -0.1224    4.0080   12.7728 C.2       1 RES1    0.0000
      2 C2        -0.8342    4.7757   11.7544 C.2       1 RES1   -1.0000
      3 C3        -2.0432    5.4234   11.8640 C.2       1 RES1    0.0000
      4 C4        -2.6362    5.3708   13.0924 C.2       1 RES1    0.0000
      5 C5        -2.0277    4.7369   14.1854 C.2       1 RES1    0.0000
      6 C6        -0.8435    4.0969   14.0393 C.2       1 RES1    0.0000
      7 N1        -0.1515    4.7826   10.5565 N.1       1 RES1    1.0000
      8 N2         0.4867    4.7110    9.6858 N.1       1 RES1    0.0000
      9 N3        -3.9374    5.9866   13.2721 N.pl3     1 RES1    0.0000
     10 N4        -0.2628    3.4664   15.2220 N.pl3     1 RES1    0.0000
     11 O1         0.9325    3.4353   12.5521 O.2       1 RES1    0.0000
     12 O2        -4.4655    6.5334   12.3207 O.2       1 RES1    0.0000
     13 O3        -4.4568    5.9176   14.3772 O.2       1 RES1    0.0000
     14 O4        -0.5331    3.9511   16.3104 O.2       1 RES1    0.0000
     15 O5         0.4545    2.5064   15.0728 O.2       1 RES1    0.0000
     16 H1        -2.4439    5.8840   11.1242 H         1 RES1    0.0000
     17 H2        -2.4544    4.7576   15.0439 H         1 RES1    0.0000
@<TRIPOS>BOND
     1    1    2 1
     2    2    3 un
     3    3    4 un
     4    4    5 un
     5    5    6 un
     6    6    1 1
     7    7    2 1
     8    8    7 3
     9    9    4 1
    10   10    6 1
    11   11    1 2
    12   12    9 2
    13   13    9 2
    14   14   10 2
    15   15   10 2
    16   16    3 1
    17   17    5 1
@<TRIPOS>SUBSTRUCTURE
     1 RES1 1

@<TRIPOS>CRYSIN
   6.1840    8.6250   15.2220  90.0000  90.0000  90.0000  19 1

