# MOL2 file generated by ConQuest
# Please check atom types

@<TRIPOS>MOLECULE
GETHET
    52    56     1
SMALL
NO_CHARGES
****
Generated from CSD

@<TRIPOS>ATOM
      1 C1         5.0548   10.5585    5.6400 C.3       1 RES1    0.0000
      2 C2         4.8939    8.4644    7.9086 C.3       1 RES1    0.0000
      3 C3         3.3517    6.4670    8.0412 C.3       1 RES1    0.0000
      4 C4         4.3191    5.9467    6.9414 C.3       1 RES1    0.0000
      5 C5         6.1359    8.3475    4.8739 C.3       1 RES1    0.0000
      6 C6         3.7646    5.9748    9.4241 C.3       1 RES1    0.0000
      7 C7         1.9006    6.0311    7.8104 C.3       1 RES1    0.0000
      8 C8         3.2703    6.8364    4.7909 C.3       1 RES1    0.0000
      9 C9         3.4051    5.5693    3.9950 C.3       1 RES1    0.0000
     10 C10        2.3559    4.7207    2.0477 C.2       1 RES1    0.0000
     11 C11        1.1942    4.9040    1.1313 C.ar      1 RES1    0.0000
     12 C12        0.1553    5.7468    1.4488 C.ar      1 RES1    0.0000
     13 C13       -0.9263    5.9186    0.5757 C.ar      1 RES1    0.0000
     14 C14       -0.8809    5.2201   -0.6078 C.ar      1 RES1    0.0000
     15 C15        0.1379    4.3743   -0.9510 C.ar      1 RES1    0.0000
     16 C16        1.1859    4.2113   -0.0700 C.ar      1 RES1    0.0000
     17 C17        4.0142    9.4919    5.6942 C.3       1 RES1    0.0000
     18 C18        3.4924    7.9852    7.9155 C.3       1 RES1    0.0000
     19 C19        4.3695    7.0242    5.8522 C.3       1 RES1    0.0000
     20 C20        5.0968    9.4385    4.6644 C.3       1 RES1    0.0000
     21 C21        4.1467    8.3173    6.6146 C.3       1 RES1    0.0000
     22 N1        -2.0239    5.3831   -1.5287 N.pl3     1 RES1    0.0000
     23 O1         5.6228    7.0375    5.1598 O.3       1 RES1    0.0000
     24 O2         2.3281    5.6077    3.0385 O.3       1 RES1    0.0000
     25 O3         3.2171    3.8992    1.9040 O.2       1 RES1    0.0000
     26 O4        -2.8792    6.1942   -1.2689 O.2       1 RES1    0.0000
     27 O5        -2.0482    4.6731   -2.5216 O.2       1 RES1    0.0000
     28 H1         5.7488   10.6407    6.3568 H         1 RES1    0.0000
     29 H2         4.8078   11.5110    5.3463 H         1 RES1    0.0000
     30 H3         5.1316    9.3736    8.2813 H         1 RES1    0.0000
     31 H4         5.6356    7.8250    8.1663 H         1 RES1    0.0000
     32 H5         5.2422    5.7829    7.3263 H         1 RES1    0.0000
     33 H6         3.9896    5.0685    6.5602 H         1 RES1    0.0000
     34 H7         6.7377    8.6303    5.6298 H         1 RES1    0.0000
     35 H8         6.7169    8.2782    4.0359 H         1 RES1    0.0000
     36 H9         3.1418    6.3227   10.1340 H         1 RES1    0.0000
     37 H10        4.7032    6.2952    9.6554 H         1 RES1    0.0000
     38 H11        3.7691    4.9675    9.4726 H         1 RES1    0.0000
     39 H12        1.3129    6.3905    8.5216 H         1 RES1    0.0000
     40 H13        1.5850    6.3732    6.9114 H         1 RES1    0.0000
     41 H14        1.8415    5.0267    7.7966 H         1 RES1    0.0000
     42 H15        3.2923    7.6172    4.1509 H         1 RES1    0.0000
     43 H16        2.3716    6.8278    5.2436 H         1 RES1    0.0000
     44 H17        4.3177    5.5332    3.5307 H         1 RES1    0.0000
     45 H18        3.3558    4.7553    4.5946 H         1 RES1    0.0000
     46 H19        0.1475    6.2390    2.3415 H         1 RES1    0.0000
     47 H20       -1.7010    6.5478    0.7866 H         1 RES1    0.0000
     48 H21        0.1235    3.8721   -1.8300 H         1 RES1    0.0000
     49 H22        1.9777    3.5748   -0.2999 H         1 RES1    0.0000
     50 H23        2.9977    9.5699    5.7715 H         1 RES1    0.0000
     51 H24        2.6619    8.2984    8.4169 H         1 RES1    0.0000
     52 H25        5.1159    9.4024    3.6354 H         1 RES1    0.0000
@<TRIPOS>BOND
     1    1   17 1
     2    2   18 1
     3    3    4 1
     4    4   19 1
     5    5   20 1
     6    6    3 1
     7    7    3 1
     8    8    9 1
     9    9   24 1
    10   10   11 1
    11   11   12 ar
    12   12   13 ar
    13   13   14 ar
    14   14   15 ar
    15   15   16 ar
    16   16   11 ar
    17   17   20 1
    18   18    3 1
    19   19    8 1
    20   20    1 1
    21   21    2 1
    22   22   14 1
    23   23    5 1
    24   24   10 1
    25   25   10 2
    26   26   22 2
    27   27   22 2
    28   28    1 1
    29   29    1 1
    30   30    2 1
    31   31    2 1
    32   32    4 1
    33   33    4 1
    34   34    5 1
    35   35    5 1
    36   36    6 1
    37   37    6 1
    38   38    6 1
    39   39    7 1
    40   40    7 1
    41   41    7 1
    42   42    8 1
    43   43    8 1
    44   44    9 1
    45   45    9 1
    46   46   12 1
    47   47   13 1
    48   48   15 1
    49   49   16 1
    50   50   17 1
    51   51   18 1
    52   52   20 1
    53   17   21 1
    54   18   21 1
    55   19   21 1
    56   19   23 1
@<TRIPOS>SUBSTRUCTURE
     1 RES1 1

@<TRIPOS>CRYSIN
   6.3040   14.4320   20.6440  90.0000  95.7800  90.0000  14 1

