# MOL2 file generated by ConQuest
# Please check atom types

@<TRIPOS>MOLECULE
GEVKAU
    44    46     1
SMALL
NO_CHARGES
****
Generated from CSD

@<TRIPOS>ATOM
      1 O1         1.9002   12.2113    8.0430 O.3       1 RES1    0.0000
      2 O2         1.1176   11.6402    6.0408 O.2       1 RES1    0.0000
      3 O3        -0.9019    9.4013    6.4250 O.3       1 RES1    0.0000
      4 O4        -3.1379    6.3445    7.2780 O.3       1 RES1    0.0000
      5 O5        -1.3963    8.4100   11.1297 O.3       1 RES1    0.0000
      6 N1        -1.8580    5.9918    6.8742 N.2       1 RES1    0.0000
      7 C1         0.4535   10.3788   11.8935 C.3       1 RES1    0.0000
      8 H1         1.3117   10.8095   11.9267 H         1 RES1    0.0000
      9 H2         0.4903    9.5533   12.3838 H         1 RES1    0.0000
     10 H3        -0.2080   10.9534   12.2850 H         1 RES1    0.0000
     11 C2         0.0875   10.0951   10.4567 C.ar      1 RES1    0.0000
     12 C3         0.6474   10.7786    9.4000 C.ar      1 RES1    0.0000
     13 C4         1.6853   11.8708    9.4152 C.3       1 RES1    0.0000
     14 H4         1.3660   12.6393    9.9122 H         1 RES1    0.0000
     15 H5         2.5080   11.5562    9.8219 H         1 RES1    0.0000
     16 C5         1.0975   11.4617    7.2163 C.2       1 RES1    0.0000
     17 C6         0.3306   10.5439    8.0753 C.ar      1 RES1    0.0000
     18 C7        -0.6108    9.5666    7.7418 C.ar      1 RES1    0.0000
     19 C8        -1.1863    8.8457    8.7699 C.ar      1 RES1    0.0000
     20 H6        -1.8098    8.1844    8.5761 H         1 RES1    0.0000
     21 C9        -0.8408    9.1022   10.0994 C.ar      1 RES1    0.0000
     22 C10       -2.1954    7.2654   10.8225 C.3       1 RES1    0.0000
     23 H7        -2.9480    7.5330   10.2904 H         1 RES1    0.0000
     24 H8        -2.5069    6.8641   11.6378 H         1 RES1    0.0000
     25 H9        -1.6682    6.6288   10.3350 H         1 RES1    0.0000
     26 C11       -1.8121    8.3452    6.0750 C.3       1 RES1    0.0000
     27 H10       -2.0407    8.4197    5.1352 H         1 RES1    0.0000
     28 H11       -2.6284    8.4430    6.5891 H         1 RES1    0.0000
     29 C12       -1.2238    6.9839    6.3354 C.2       1 RES1    0.0000
     30 C13        0.1742    6.6834    5.9619 C.ar      1 RES1    0.0000
     31 C14        0.8070    7.3457    4.9271 C.ar      1 RES1    0.0000
     32 H12        0.3585    8.0191    4.4681 H         1 RES1    0.0000
     33 C15        2.1012    7.0156    4.5688 C.ar      1 RES1    0.0000
     34 H13        2.5141    7.4591    3.8638 H         1 RES1    0.0000
     35 C16        2.7778    6.0359    5.2483 C.ar      1 RES1    0.0000
     36 H14        3.6478    5.8121    5.0050 H         1 RES1    0.0000
     37 C17        2.1605    5.3839    6.2955 C.ar      1 RES1    0.0000
     38 H15        2.6203    4.7232    6.7611 H         1 RES1    0.0000
     39 C18        0.8803    5.6995    6.6537 C.ar      1 RES1    0.0000
     40 H16        0.4775    5.2560    7.3636 H         1 RES1    0.0000
     41 C19       -3.7104    5.1638    7.9090 C.3       1 RES1    0.0000
     42 H17       -3.7972    4.4646    7.2581 H         1 RES1    0.0000
     43 H18       -4.5747    5.3785    8.2654 H         1 RES1    0.0000
     44 H19       -3.1351    4.8710    8.6189 H         1 RES1    0.0000
@<TRIPOS>BOND
     1    1   13 1
     2    2   16 2
     3    3   18 1
     4    4    6 1
     5    5   21 1
     6    6   29 2
     7    7    8 1
     8    9    7 1
     9   10    7 1
    10   11    7 1
    11   12   11 ar
    12   13   12 1
    13   14   13 1
    14   15   13 1
    15   16    1 1
    16   17   12 ar
    17   18   17 ar
    18   19   18 ar
    19   20   19 1
    20   21   11 ar
    21   22    5 1
    22   23   22 1
    23   24   22 1
    24   25   22 1
    25   26    3 1
    26   27   26 1
    27   28   26 1
    28   29   26 1
    29   30   29 1
    30   31   30 ar
    31   32   31 1
    32   33   31 ar
    33   34   33 1
    34   35   33 ar
    35   36   35 1
    36   37   35 ar
    37   38   37 1
    38   39   30 ar
    39   40   39 1
    40   41    4 1
    41   42   41 1
    42   43   41 1
    43   44   41 1
    44   16   17 1
    45   19   21 ar
    46   37   39 ar
@<TRIPOS>SUBSTRUCTURE
     1 RES1 1

@<TRIPOS>CRYSIN
   9.3964   19.4450    9.8521  90.0000 105.3070  90.0000  14 1

