# MOL2 file generated by ConQuest
# Please check atom types

@<TRIPOS>MOLECULE
GEVKOI
    21    22     1
SMALL
NO_CHARGES
****
Generated from CSD

@<TRIPOS>ATOM
      1 N1         4.0252    4.5490    1.1837 N.ar      1 RES1    0.0000
      2 N2         2.2059   -0.1134    1.2893 N.2       1 RES1    0.0000
      3 O1         1.3685   -1.2079    1.1469 O.3       1 RES1    0.0000
      4 H1         1.7382   -1.8753    1.4464 H         1 RES1    0.0000
      5 C1         1.8400    3.4854    0.8914 C.ar      1 RES1    0.0000
      6 C2         2.6692    4.6353    0.9957 C.ar      1 RES1    0.0000
      7 C3         2.4634    2.2048    0.9684 C.ar      1 RES1    0.0000
      8 C4         3.8282    2.1589    1.1242 C.ar      1 RES1    0.0000
      9 H2         4.2667    1.3400    1.1583 H         1 RES1    0.0000
     10 C5         4.5530    3.3443    1.2305 C.ar      1 RES1    0.0000
     11 H3         5.4737    3.2799    1.3428 H         1 RES1    0.0000
     12 C6         1.6805    0.9665    0.8909 C.2       1 RES1    0.0000
     13 H4         0.8129    0.9747    0.5554 H         1 RES1    0.0000
     14 C7         0.4474    3.6765    0.7272 C.ar      1 RES1    0.0000
     15 H5        -0.1121    2.9366    0.6530 H         1 RES1    0.0000
     16 C8        -0.0854    4.9321    0.6771 C.ar      1 RES1    0.0000
     17 H6        -1.0043    5.0403    0.5828 H         1 RES1    0.0000
     18 C9         0.7424    6.0603    0.7666 C.ar      1 RES1    0.0000
     19 H7         0.3681    6.9109    0.7252 H         1 RES1    0.0000
     20 C10        2.0896    5.9214    0.9150 C.ar      1 RES1    0.0000
     21 H8         2.6304    6.6763    0.9631 H         1 RES1    0.0000
@<TRIPOS>BOND
     1    1    6 ar
     2    2    3 1
     3    3    4 1
     4    5    6 ar
     5    6   20 ar
     6    7    5 ar
     7    8    7 ar
     8    9    8 1
     9   10    1 ar
    10   11   10 1
    11   12    2 2
    12   13   12 1
    13   14    5 ar
    14   15   14 1
    15   16   14 ar
    16   17   16 1
    17   18   16 ar
    18   19   18 1
    19   20   18 ar
    20   21   20 1
    21    7   12 1
    22    8   10 ar
@<TRIPOS>SUBSTRUCTURE
     1 RES1 1

@<TRIPOS>CRYSIN
   8.1610   15.7460    7.1509  90.0000 110.8260  90.0000  14 1

