# MOL2 file generated by ConQuest
# Please check atom types

@<TRIPOS>MOLECULE
GEXKUP
    29    30     1
SMALL
NO_CHARGES
****
Generated from CSD

@<TRIPOS>ATOM
      1 C1         4.6314    0.5220    2.4281 C.2       1 RES1    0.0000
      2 C2         3.5020   -0.2743    0.5528 C.ar      1 RES1    0.0000
      3 C3         2.6539   -1.3782    0.6544 C.ar      1 RES1    0.0000
      4 C4         1.5622   -1.5095   -0.1739 C.ar      1 RES1    0.0000
      5 C5         1.3112   -0.5289   -1.0920 C.ar      1 RES1    0.0000
      6 C6         2.1403    0.5727   -1.2404 C.ar      1 RES1    0.0000
      7 C7         3.2351    0.6891   -0.3985 C.ar      1 RES1    0.0000
      8 C8         5.8424    0.4943    3.3033 C.ar      1 RES1    0.0000
      9 C9         6.7034   -0.5917    3.2232 C.ar      1 RES1    0.0000
     10 C10        7.8229   -0.6568    4.0436 C.ar      1 RES1    0.0000
     11 C11        8.1003    0.3549    4.9207 C.ar      1 RES1    0.0000
     12 C12        7.2558    1.4404    5.0047 C.ar      1 RES1    0.0000
     13 C13        6.1333    1.5032    4.1941 C.ar      1 RES1    0.0000
     14 N1         3.6181    1.3269    2.8306 N.3       1 RES1    0.0000
     15 N2         4.6380   -0.2080    1.3772 N.2       1 RES1    0.0000
     16 N3         0.1461   -0.6637   -1.9671 N.pl3     1 RES1    0.0000
     17 O1        -0.0222    0.1544   -2.8501 O.2       1 RES1    0.0000
     18 O2        -0.6236   -1.5971   -1.7796 O.2       1 RES1    0.0000
     19 H1         2.8302   -2.0454    1.3674 H         1 RES1    0.0000
     20 H2         0.9689   -2.2874   -0.0977 H         1 RES1    0.0000
     21 H3         1.9164    1.2503   -1.9339 H         1 RES1    0.0000
     22 H4         3.7310    1.5268   -0.4102 H         1 RES1    0.0000
     23 H5         6.5265   -1.3136    2.6176 H         1 RES1    0.0000
     24 H6         8.3669   -1.4807    4.0827 H         1 RES1    0.0000
     25 H7         8.9431    0.2535    5.4306 H         1 RES1    0.0000
     26 H8         7.4181    2.1548    5.6845 H         1 RES1    0.0000
     27 H9         5.6227    2.2585    4.1804 H         1 RES1    0.0000
     28 H10        3.6091    1.7054    3.5357 H         1 RES1    0.0000
     29 H11        2.9813    1.2848    2.3051 H         1 RES1    0.0000
@<TRIPOS>BOND
     1    1    8 1
     2    2    3 ar
     3    3    4 ar
     4    4    5 ar
     5    5    6 ar
     6    6    7 ar
     7    7    2 ar
     8    8    9 ar
     9    9   10 ar
    10   10   11 ar
    11   11   12 ar
    12   12   13 ar
    13   13    8 ar
    14   14    1 1
    15   15    1 2
    16   16    5 1
    17   17   16 2
    18   18   16 2
    19   19    3 1
    20   20    4 1
    21   21    6 1
    22   22    7 1
    23   23    9 1
    24   24   10 1
    25   25   11 1
    26   26   12 1
    27   27   13 1
    28   28   14 1
    29   29   14 1
    30    2   15 1
@<TRIPOS>SUBSTRUCTURE
     1 RES1 1

@<TRIPOS>CRYSIN
  20.8850    5.7616   19.6030  90.0000  94.7910  90.0000  15 1

