# MOL2 file generated by ConQuest
# Please check atom types

@<TRIPOS>MOLECULE
GEXQOS
    29    30     1
SMALL
NO_CHARGES
****
Generated from CSD

@<TRIPOS>ATOM
      1 C1         4.6113   10.7246    8.6214 C.3       1 RES1    0.0000
      2 H1         4.1933   11.4603    9.1369 H         1 RES1    0.0000
      3 H2         4.5382   10.9573    7.6623 H         1 RES1    0.0000
      4 C2         6.0906   10.6621    8.9884 C.3       1 RES1    0.0000
      5 H3         6.5636   11.4303    8.5813 H         1 RES1    0.0000
      6 H4         6.1891   10.7258    9.9709 H         1 RES1    0.0000
      7 C3         6.7165    9.3678    8.5007 C.3       1 RES1    0.0000
      8 H5         7.6824    9.3646    8.7164 H         1 RES1    0.0000
      9 H6         6.6196    9.3007    7.5175 H         1 RES1    0.0000
     10 C4         6.0378    8.1709    9.1653 C.3       1 RES1    0.0000
     11 H7         6.4447    7.3348    8.8264 H         1 RES1    0.0000
     12 H8         6.1882    8.2110   10.1436 H         1 RES1    0.0000
     13 C5         4.5535    8.1513    8.8893 C.2       1 RES1    0.0000
     14 C6         3.8210    9.4642    8.8667 C.2       1 RES1    0.0000
     15 C7         3.8262    7.0608    8.6015 C.2       1 RES1    0.0000
     16 H9         2.9205    7.1931    8.3488 H         1 RES1    0.0000
     17 C8         4.3207    5.6734    8.6467 C.ar      1 RES1    0.0000
     18 O1         2.6092    9.5183    8.9969 O.2       1 RES1    0.0000
     19 C9         5.0679    5.2144    9.7417 C.ar      1 RES1    0.0000
     20 H10        5.3079    5.8199   10.4332 H         1 RES1    0.0000
     21 C10        5.4591    3.8941    9.8292 C.ar      1 RES1    0.0000
     22 H11        5.9615    3.5886   10.5752 H         1 RES1    0.0000
     23 C11        5.1073    3.0179    8.8094 C.ar      1 RES1    0.0000
     24 H12        5.3905    2.1136    8.8640 H         1 RES1    0.0000
     25 N1         4.3842    3.4059    7.7553 N.ar      1 RES1    0.0000
     26 C12        4.0270    4.6747    7.7097 C.ar      1 RES1    0.0000
     27 N2         3.2471    5.0072    6.4834 N.pl3     1 RES1    0.0000
     28 O2         3.2666    6.1652    6.0917 O.2       1 RES1    0.0000
     29 O3         2.6389    4.1083    5.9255 O.2       1 RES1    0.0000
@<TRIPOS>BOND
     1    1    2 1
     2    3    1 1
     3    4    1 1
     4    5    4 1
     5    6    4 1
     6    7    4 1
     7    8    7 1
     8    9    7 1
     9   10    7 1
    10   11   10 1
    11   12   10 1
    12   13   10 1
    13   14    1 1
    14   15   13 2
    15   16   15 1
    16   17   15 1
    17   18   14 2
    18   19   17 ar
    19   20   19 1
    20   21   19 ar
    21   22   21 1
    22   23   21 ar
    23   24   23 1
    24   25   23 ar
    25   26   17 ar
    26   27   26 1
    27   28   27 2
    28   29   27 2
    29   13   14 1
    30   25   26 ar
@<TRIPOS>SUBSTRUCTURE
     1 RES1 1

@<TRIPOS>CRYSIN
   7.8792   19.9586   13.9359  90.0000  92.3804  90.0000  15 1

