# MOL2 file generated by ConQuest
# Please check atom types

@<TRIPOS>MOLECULE
GEXQOR
    32    34     1
SMALL
NO_CHARGES
****
Generated from CSD

@<TRIPOS>ATOM
      1 C1         0.9444    6.1153    7.1257 C.2       1 RES1    0.0000
      2 C2         1.7538    6.0711    8.2399 C.2       1 RES1    0.0000
      3 H1         1.9837    5.2411    8.5928 H         1 RES1    0.0000
      4 C3         2.2428    7.2245    8.8604 C.2       1 RES1    0.0000
      5 C4         1.8630    8.5440    8.2970 C.2       1 RES1    0.0000
      6 C5         0.9429    8.5948    7.1588 C.ar      1 RES1    0.0000
      7 C6         0.5146    9.8180    6.6277 C.ar      1 RES1    0.0000
      8 H2         0.8130   10.6138    7.0070 H         1 RES1    0.0000
      9 C7        -0.3374    9.8579    5.5563 C.ar      1 RES1    0.0000
     10 H3        -0.5989   10.6762    5.2027 H         1 RES1    0.0000
     11 C8        -0.8102    8.6831    4.9985 C.ar      1 RES1    0.0000
     12 H4        -1.4003    8.7143    4.2806 H         1 RES1    0.0000
     13 C9        -0.4095    7.4715    5.5049 C.ar      1 RES1    0.0000
     14 H5        -0.7351    6.6853    5.1287 H         1 RES1    0.0000
     15 C10        0.4813    7.4038    6.5774 C.ar      1 RES1    0.0000
     16 C11        0.8818    3.6674    6.8991 C.ar      1 RES1    0.0000
     17 C12        1.7595    2.9320    6.1439 C.ar      1 RES1    0.0000
     18 H6         2.1586    3.3045    5.3920 H         1 RES1    0.0000
     19 C13        2.0440    1.6278    6.5144 C.ar      1 RES1    0.0000
     20 H7         2.6408    1.1231    6.0096 H         1 RES1    0.0000
     21 C14        1.4504    1.0769    7.6208 C.ar      1 RES1    0.0000
     22 H8         1.6492    0.2034    7.8696 H         1 RES1    0.0000
     23 C15        0.5697    1.8113    8.3562 C.ar      1 RES1    0.0000
     24 H9         0.1581    1.4304    9.0987 H         1 RES1    0.0000
     25 C16        0.2825    3.1213    8.0042 C.ar      1 RES1    0.0000
     26 H10       -0.3108    3.6258    8.5127 H         1 RES1    0.0000
     27 N1         0.5621    4.9993    6.4850 N.pl3     1 RES1    0.0000
     28 H11        0.0895    5.0908    5.7718 H         1 RES1    0.0000
     29 N2         2.3078    9.6849    8.7273 N.2       1 RES1    0.0000
     30 O1         3.0166    7.1926    9.8662 O.2       1 RES1    0.0000
     31 O2         3.1782    9.6784    9.7698 O.3       1 RES1    0.0000
     32 H12        3.2988    8.9061   10.0209 H         1 RES1    0.0000
@<TRIPOS>BOND
     1    1    2 2
     2    2    3 1
     3    4    2 1
     4    5    4 1
     5    6    5 1
     6    7    6 ar
     7    8    7 1
     8    9    7 ar
     9   10    9 1
    10   11    9 ar
    11   12   11 1
    12   13   11 ar
    13   14   13 1
    14   15    1 1
    15   16   17 ar
    16   17   18 1
    17   19   17 ar
    18   20   19 1
    19   21   19 ar
    20   22   21 1
    21   23   21 ar
    22   24   23 1
    23   25   16 ar
    24   26   25 1
    25   27    1 1
    26   28   27 1
    27   29    5 2
    28   30    4 2
    29   31   29 1
    30   32   31 1
    31    6   15 ar
    32   13   15 ar
    33   16   27 1
    34   23   25 ar
@<TRIPOS>SUBSTRUCTURE
     1 RES1 1

@<TRIPOS>CRYSIN
   4.5317   23.1087   12.3031  90.0000  99.5310  90.0000  14 1

