# MOL2 file generated by ConQuest
# Please check atom types

@<TRIPOS>MOLECULE
GEXQIM
    36    28     2
SMALL
NO_CHARGES
****
Generated from CSD

@<TRIPOS>ATOM
      1 O1         3.3389   12.3357    6.4424 O.2       1 RES1    0.0000
      2 O2        -2.0773    9.9746    6.0885 O.2       1 RES1    0.0000
      3 O3        -0.2517    8.9964    6.7186 O.2       1 RES1    0.0000
      4 N1        -1.0110    9.4146    5.8480 N.pl3     1 RES1    0.0000
      5 C1         3.1499   11.1557    6.1831 C.2       1 RES1    0.0000
      6 C2         4.0962   10.0842    6.5897 C.3       1 RES1    0.0000
      7 H1         4.5092   10.3277    7.4338 H         1 RES1    0.0000
      8 H2         4.7986   10.0108    5.9254 H         1 RES1    0.0000
      9 C3         3.4082    8.7353    6.7406 C.3       1 RES1    0.0000
     10 H3         2.7617    8.7787    7.4628 H         1 RES1    0.0000
     11 H4         4.0646    8.0571    6.9638 H         1 RES1    0.0000
     12 C4         2.6956    8.3534    5.4341 C.3       1 RES1    0.0000
     13 H5         3.3525    8.1715    4.7446 H         1 RES1    0.0000
     14 H6         2.1688    7.5510    5.5704 H         1 RES1    0.0000
     15 C5         1.8189    9.4561    5.0052 C.2       1 RES1    0.0000
     16 C6         2.0700   10.7416    5.2784 C.2       1 RES1    0.0000
     17 H7         1.5423   11.3955    4.8810 H         1 RES1    0.0000
     18 C7         0.6983    9.1160    4.0806 C.ar      1 RES1    0.0000
     19 C8         0.9740    8.7818    2.7595 C.ar      1 RES1    0.0000
     20 H8         1.8579    8.6995    2.4828 H         1 RES1    0.0000
     21 C9        -0.0518    8.5685    1.8465 C.ar      1 RES1    0.0000
     22 H9         0.1514    8.3446    0.9675 H         1 RES1    0.0000
     23 C10       -1.3750    8.6885    2.2378 C.ar      1 RES1    0.0000
     24 H10       -2.0560    8.5573    1.6181 H         1 RES1    0.0000
     25 C11       -1.6840    9.0018    3.5453 C.ar      1 RES1    0.0000
     26 H11       -2.5698    9.0838    3.8167 H         1 RES1    0.0000
     27 C12       -0.6488    9.1913    4.4450 C.ar      1 RES1    0.0000
     28 C13        3.8790   10.0534    6.9608 Du        2 SUP2    0.0000
     29 H12        4.7655   10.3614    7.2061 Du        2 SUP2    0.0000
     30 H13        3.3922    9.8568    7.7767 Du        2 SUP2    0.0000
     31 C14        3.9952    8.7824    6.1151 Du        2 SUP2    0.0000
     32 H14        4.5562    8.9577    5.3434 Du        2 SUP2    0.0000
     33 H15        4.4147    8.0820    6.6400 Du        2 SUP2    0.0000
     34 C15        2.6205    8.3138    5.6489 Du        2 SUP2    0.0000
     35 H16        2.1269    7.9647    6.4077 Du        2 SUP2    0.0000
     36 H17        2.7278    7.5965    5.0059 Du        2 SUP2    0.0000
@<TRIPOS>BOND
     1    1    5 2
     2    2    4 2
     3    3    4 2
     4    4   27 1
     5    5    6 1
     6    6    7 1
     7    8    6 1
     8    9    6 1
     9   10    9 1
    10   11    9 1
    11   12    9 1
    12   13   12 1
    13   14   12 1
    14   15   12 1
    15   16    5 1
    16   17   16 1
    17   18   15 1
    18   19   18 ar
    19   20   19 1
    20   21   19 ar
    21   22   21 1
    22   23   21 ar
    23   24   23 1
    24   25   23 ar
    25   26   25 1
    26   27   18 ar
    27   15   16 2
    28   25   27 ar
@<TRIPOS>SUBSTRUCTURE
     1 RES1 1
     2 SUP2 28

@<TRIPOS>CRYSIN
   9.3274   14.6679    7.9674  90.0000 107.0260  90.0000  14 1

