# MOL2 file generated by ConQuest
# Please check atom types

@<TRIPOS>MOLECULE
GEYJAY
    44    47     1
SMALL
NO_CHARGES
****
Generated from CSD

@<TRIPOS>ATOM
      1 O1        12.2507    3.7730    6.2329 O.3       1 RES1    0.0000
      2 C1        10.9852    3.4191    5.9186 C.ar      1 RES1    0.0000
      3 C2        10.2009    4.3623    5.2673 C.ar      1 RES1    0.0000
      4 H1        10.5565    5.2194    5.0645 H         1 RES1    0.0000
      5 C3         8.9042    4.0498    4.9148 C.ar      1 RES1    0.0000
      6 H2         8.3626    4.6851    4.4612 H         1 RES1    0.0000
      7 C4         8.4025    2.7984    5.2306 C.ar      1 RES1    0.0000
      8 C5         9.1518    1.8702    5.9158 C.ar      1 RES1    0.0000
      9 H3         8.7733    1.0294    6.1443 H         1 RES1    0.0000
     10 C6        10.4572    2.1614    6.2711 C.ar      1 RES1    0.0000
     11 C7        11.2895    1.2789    7.0635 C.2       1 RES1    0.0000
     12 H4        10.9178    0.4969    7.4541 H         1 RES1    0.0000
     13 C8        12.5692    1.5652    7.2439 C.2       1 RES1    0.0000
     14 H5        13.0857    0.9914    7.7974 H         1 RES1    0.0000
     15 C9        13.2446    2.7452    6.6179 C.3       1 RES1    0.0000
     16 C10       14.1611    2.3938    5.3688 C.3       1 RES1    0.0000
     17 C11       14.6152    0.9370    5.4308 C.3       1 RES1    0.0000
     18 H6        15.2958    0.7771    4.7442 H         1 RES1    0.0000
     19 H7        13.8481    0.3482    5.2745 H         1 RES1    0.0000
     20 H8        14.9948    0.7507    6.3157 H         1 RES1    0.0000
     21 C12       13.4795    2.6763    4.0322 C.3       1 RES1    0.0000
     22 H9        13.1731    3.6070    4.0129 H         1 RES1    0.0000
     23 H10       12.7112    2.0773    3.9249 H         1 RES1    0.0000
     24 H11       14.1158    2.5261    3.3030 H         1 RES1    0.0000
     25 C13       15.3604    3.2863    5.6240 C.ar      1 RES1    0.0000
     26 C14       16.4591    3.5080    4.8359 C.ar      1 RES1    0.0000
     27 H12       16.5019    3.1823    3.9444 H         1 RES1    0.0000
     28 C15       17.5150    4.2320    5.3970 C.ar      1 RES1    0.0000
     29 C16       17.4720    4.7118    6.6884 C.ar      1 RES1    0.0000
     30 H13       18.2213    5.1746    7.0447 H         1 RES1    0.0000
     31 C17       16.3491    4.5258    7.4667 C.ar      1 RES1    0.0000
     32 H14       16.2952    4.8841    8.3443 H         1 RES1    0.0000
     33 N1        14.1332    3.4128    7.5258 N.pl3     1 RES1    0.0000
     34 C18       13.7037    3.8913    8.8329 C.3       1 RES1    0.0000
     35 H15       14.4049    3.7103    9.4937 H         1 RES1    0.0000
     36 H16       12.8804    3.4296    9.0959 H         1 RES1    0.0000
     37 H17       13.5377    4.8562    8.7895 H         1 RES1    0.0000
     38 N2         7.0292    2.4577    4.8486 N.pl3     1 RES1    0.0000
     39 O2         6.5885    1.3666    5.1742 O.2       1 RES1    0.0000
     40 O3         6.3952    3.2782    4.1958 O.2       1 RES1    0.0000
     41 N3        18.7382    4.3861    4.6272 N.pl3     1 RES1    0.0000
     42 O4        18.7974    3.9158    3.4924 O.2       1 RES1    0.0000
     43 O5        19.6956    4.9817    5.1428 O.2       1 RES1    0.0000
     44 C19       15.2992    3.7955    6.9225 C.ar      1 RES1    0.0000
@<TRIPOS>BOND
     1    1    2 1
     2    2    3 ar
     3    3    4 1
     4    5    3 ar
     5    6    5 1
     6    7    5 ar
     7    8    7 ar
     8    9    8 1
     9   10    2 ar
    10   11   10 1
    11   12   11 1
    12   13   11 2
    13   14   13 1
    14   15    1 1
    15   16   15 1
    16   17   16 1
    17   18   17 1
    18   19   17 1
    19   20   17 1
    20   21   16 1
    21   22   21 1
    22   23   21 1
    23   24   21 1
    24   25   16 1
    25   26   25 ar
    26   27   26 1
    27   28   26 ar
    28   29   28 ar
    29   30   29 1
    30   31   29 ar
    31   32   31 1
    32   33   15 1
    33   34   33 1
    34   35   34 1
    35   36   34 1
    36   37   34 1
    37   38    7 1
    38   39   38 2
    39   40   38 2
    40   41   28 1
    41   42   41 2
    42   43   41 2
    43   44   25 ar
    44    8   10 ar
    45   13   15 1
    46   31   44 ar
    47   33   44 1
@<TRIPOS>SUBSTRUCTURE
     1 RES1 1

@<TRIPOS>CRYSIN
  18.8741    6.2632   14.2571  90.0000  98.5480  90.0000  14 1

