# MOL2 file generated by ConQuest
# Please check atom types

@<TRIPOS>MOLECULE
GEYQUZ
    34    33     2
SMALL
NO_CHARGES
****
Generated from CSD

@<TRIPOS>ATOM
      1 O1         3.3135    4.9349    5.8982 O.2       1 RES1    0.0000
      2 O2         4.2418    3.2753    4.8975 O.2       1 RES1    0.0000
      3 N1         4.0810    3.9863    5.8683 N.pl3     1 RES1    0.0000
      4 C1         4.8287    3.6903    7.0546 C.2       1 RES1    0.0000
      5 C2         6.0739    3.0811    7.1586 C.2       1 RES1    0.0000
      6 N2         6.9961    2.7204    6.0989 N.pl3     1 RES1    0.0000
      7 O3         7.0259    3.4371    5.1229 O.2       1 RES1    0.0000
      8 O4         7.6857    1.7457    6.2452 O.2       1 RES1    0.0000
      9 N3         6.4586    2.9331    8.4089 N.2       1 RES1    0.0000
     10 N4         5.4504    3.4592    9.1216 N.pl3     1 RES1    0.0000
     11 C3         5.4751    3.4649   10.5965 C.3       1 RES1    0.0000
     12 H1         6.2073    2.9065   10.9031 H         1 RES1    0.0000
     13 H2         4.6492    3.0787   10.9277 H         1 RES1    0.0000
     14 C4         5.6386    4.8557   11.1760 C.3       1 RES1    0.0000
     15 H3         6.5831    5.0731   11.2006 H         1 RES1    0.0000
     16 H4         5.3149    4.8511   12.0904 H         1 RES1    0.0000
     17 C5         4.9080    5.9448   10.4065 C.3       1 RES1    0.0000
     18 H5         4.8124    6.7240   10.9769 H         1 RES1    0.0000
     19 H6         5.4428    6.2037    9.6395 H         1 RES1    0.0000
     20 N5         3.5782    5.5263    9.9425 N.pl3     1 RES1    0.0000
     21 N6         2.4590    6.0604   10.4589 N.2       1 RES1    0.0000
     22 C6         1.4899    5.4777    9.8025 C.2       1 RES1    0.0000
     23 N7         0.1223    5.8789   10.1362 N.pl3     1 RES1    0.0000
     24 O5        -0.1604    5.9309   11.3235 O.2       1 RES1    0.0000
     25 O6        -0.6219    6.1205    9.2373 O.2       1 RES1    0.0000
     26 C7         1.9498    4.5690    8.8570 C.2       1 RES1    0.0000
     27 N8         1.2086    3.6799    8.0228 N.pl3     1 RES1    0.0000
     28 O7         0.0070    3.5377    8.3125 O.2       1 RES1    0.0000
     29 O8         1.7965    2.9747    7.2499 O.2       1 RES1    0.0000
     30 C8         3.3266    4.6210    8.9724 C.2       1 RES1    0.0000
     31 C9         4.4443    3.9343    8.3521 C.2       1 RES1    0.0000
     32 O9        -0.7259    5.0407    9.8051 Du        2 SUP2    0.0000
     33 O10       -0.1402    6.9402   10.4453 Du        2 SUP2    0.0000
     34 O11        0.2738    4.2476    7.3580 Du        2 SUP2    0.0000
@<TRIPOS>BOND
     1    1    3 2
     2    2    3 2
     3    3    4 1
     4    4    5 1
     5    5    6 1
     6    6    7 2
     7    8    6 2
     8    9    5 2
     9   10    9 1
    10   11   10 1
    11   12   11 1
    12   13   11 1
    13   14   11 1
    14   15   14 1
    15   16   14 1
    16   17   14 1
    17   18   17 1
    18   19   17 1
    19   20   17 1
    20   21   20 1
    21   22   21 2
    22   23   22 1
    23   24   23 2
    24   25   23 2
    25   26   22 1
    26   27   26 1
    27   28   27 2
    28   29   27 2
    29   30   20 1
    30   31    4 2
    31   10   31 1
    32   26   30 2
    33   30   31 1
@<TRIPOS>SUBSTRUCTURE
     1 RES1 1
     2 SUP2 32

@<TRIPOS>CRYSIN
   9.4365   11.5612   12.9442  90.0000  92.3050  90.0000 231 1

