# MOL2 file generated by ConQuest
# Please check atom types

@<TRIPOS>MOLECULE
GEYRAG
    25    24     2
SMALL
NO_CHARGES
****
Generated from CSD

@<TRIPOS>ATOM
      1 O1         6.5131    4.4242    6.7999 O.2       1 RES1    0.0000
      2 O2         6.7383    2.5036    7.7858 O.2       1 RES1    0.0000
      3 N1         6.4995    3.2141    6.8129 N.pl3     1 RES1    0.0000
      4 C1         6.1364    2.5410    5.5742 C.2       1 RES1    0.0000
      5 N2         6.0200    1.2261    5.5376 N.2       1 RES1    0.0000
      6 N3         5.6740    1.0504    4.2566 N.pl3     1 RES1    0.0000
      7 C2         5.1937   -0.2250    3.6625 C.3       1 RES1    0.0000
      8 H1         4.2285   -0.2872    3.7341 H         1 RES1    0.0000
      9 H2         5.5864   -0.9817    4.1262 H         1 RES1    0.0000
     10 C3         5.5925    2.2342    3.6291 C.2       1 RES1    0.0000
     11 N4         5.8833    3.2259    4.4567 N.2       1 RES1    0.0000
     12 C4         5.8635   -0.2230    3.5369 Du        2 SUP2    0.0000
     13 H3         5.6600   -0.9703    4.1180 Du        2 SUP2    0.0000
     14 H4         6.7890   -0.3059    3.2470 Du        2 SUP2    0.0000
     15 O1A        4.2931    4.4242   -0.9304 O.2       1 RES1    0.0000
     16 O2A        4.0679    2.5036   -1.9164 O.2       1 RES1    0.0000
     17 N1A        4.3067    3.2141   -0.9435 N.pl3     1 RES1    0.0000
     18 C1A        4.6698    2.5410    0.2952 C.2       1 RES1    0.0000
     19 N2A        4.7862    1.2261    0.3319 N.2       1 RES1    0.0000
     20 N3A        5.1322    1.0504    1.6128 N.pl3     1 RES1    0.0000
     21 C2A        5.6125   -0.2250    2.2069 C.3       1 RES1    0.0000
     22 H1A        6.5777   -0.2872    2.1353 H         1 RES1    0.0000
     23 H2A        5.2198   -0.9817    1.7432 H         1 RES1    0.0000
     24 C3A        5.2137    2.2342    2.2404 C.2       1 RES1    0.0000
     25 N4A        4.9229    3.2259    1.4128 N.2       1 RES1    0.0000
@<TRIPOS>BOND
     1    1    3 2
     2    2    3 2
     3    3    4 1
     4    4    5 2
     5    5    6 1
     6    6    7 1
     7    7    8 1
     8    9    7 1
     9   10    6 1
    10   11    4 1
    11   15   17 2
    12   16   17 2
    13   17   18 1
    14   18   19 2
    15   19   20 1
    16   20   21 1
    17   21    7 1
    18   22   21 1
    19   23   21 1
    20   24   10 1
    21   25   18 1
    22   10   11 2
    23   20   24 1
    24   24   25 2
@<TRIPOS>SUBSTRUCTURE
     1 RES1 1
     2 SUP2 12

@<TRIPOS>CRYSIN
  12.3260    6.6780   12.1260  90.0000 104.5170  90.0000  15 1

