# MOL2 file generated by ConQuest
# Please check atom types

@<TRIPOS>MOLECULE
GEYSAH
    49    50     1
SMALL
NO_CHARGES
****
Generated from CSD

@<TRIPOS>ATOM
      1 C1         5.7358    5.4090   -1.3441 C.ar      1 RES1    0.0000
      2 C2         5.2759    5.9368   -2.5351 C.ar      1 RES1    0.0000
      3 H1         5.7696    5.8222   -3.3396 H         1 RES1    0.0000
      4 C3         4.0859    6.6336   -2.5351 C.ar      1 RES1    0.0000
      5 H2         3.7362    6.9950   -3.3418 H         1 RES1    0.0000
      6 C4         3.4110    6.7959   -1.3371 C.ar      1 RES1    0.0000
      7 H3         2.5887    7.2719   -1.3115 H         1 RES1    0.0000
      8 C5         3.9488    6.2558   -0.1700 C.ar      1 RES1    0.0000
      9 C6         3.2571    6.4360    1.1487 C.2       1 RES1    0.0000
     10 C7         3.8852    5.7653    2.3473 C.3       1 RES1    0.0000
     11 H4         3.7473    6.3209    3.1420 H         1 RES1    0.0000
     12 H5         4.8458    5.6511    2.1909 H         1 RES1    0.0000
     13 H6         3.4702    4.8885    2.4863 H         1 RES1    0.0000
     14 C8         7.0106    4.6186   -1.3235 C.2       1 RES1    0.0000
     15 C9         7.5442    4.1579   -0.0119 C.3       1 RES1    0.0000
     16 H7         8.4540    3.8128   -0.1325 H         1 RES1    0.0000
     17 H8         6.9694    3.4475    0.3431 H         1 RES1    0.0000
     18 H9         7.5603    4.9103    0.6167 H         1 RES1    0.0000
     19 C10        1.4413    7.3235    2.3755 C.3       1 RES1    0.0000
     20 H10        2.0801    7.3966    3.1420 H         1 RES1    0.0000
     21 C11        0.4991    6.1430    2.5987 C.3       1 RES1    0.0000
     22 H11        1.0250    5.3046    2.5840 H         1 RES1    0.0000
     23 H12       -0.1502    6.1049    1.8522 H         1 RES1    0.0000
     24 C12       -0.2646    6.2281    3.9183 C.3       1 RES1    0.0000
     25 C13       -0.1249    8.8698    3.6241 C.3       1 RES1    0.0000
     26 C14        0.5846    8.5791    2.2971 C.3       1 RES1    0.0000
     27 H13       -0.0924    8.4679    1.5830 H         1 RES1    0.0000
     28 H14        1.1575    9.3508    2.0563 H         1 RES1    0.0000
     29 C15        0.6446    5.8651    5.1030 C.3       1 RES1    0.0000
     30 H15        1.4279    6.4542    5.1050 H         1 RES1    0.0000
     31 H16        0.9360    4.9335    5.0181 H         1 RES1    0.0000
     32 H17        0.1491    5.9773    5.9410 H         1 RES1    0.0000
     33 C16       -1.4552    5.2657    3.8853 C.3       1 RES1    0.0000
     34 H18       -1.8931    5.2582    4.7619 H         1 RES1    0.0000
     35 H19       -1.1397    4.3637    3.6697 H         1 RES1    0.0000
     36 H20       -2.0946    5.5598    3.2028 H         1 RES1    0.0000
     37 C17        0.8608    9.3804    4.6844 C.3       1 RES1    0.0000
     38 H21        1.5559    8.7071    4.8357 H         1 RES1    0.0000
     39 H22        0.3806    9.5480    5.5219 H         1 RES1    0.0000
     40 H23        1.2743   10.2120    4.3732 H         1 RES1    0.0000
     41 C18       -1.2095    9.9306    3.4206 C.3       1 RES1    0.0000
     42 H24       -1.6895   10.0728    4.2625 H         1 RES1    0.0000
     43 H25       -1.8386    9.6263    2.7338 H         1 RES1    0.0000
     44 H26       -0.7947   10.7716    3.1355 H         1 RES1    0.0000
     45 O1         7.5666    4.3607   -2.3762 O.2       1 RES1    0.0000
     46 O2        -1.6097    7.7609    5.1078 O.2       1 RES1    0.0000
     47 N1         5.0932    5.5622   -0.1659 N.ar      1 RES1    0.0000
     48 N2         2.1827    7.1290    1.1296 N.2       1 RES1    0.0000
     49 N3        -0.7959    7.6171    4.1196 N.3       1 RES1    0.0000
@<TRIPOS>BOND
     1    1    2 ar
     2    2    3 1
     3    4    2 ar
     4    5    4 1
     5    6    4 ar
     6    7    6 1
     7    8    6 ar
     8    9    8 1
     9   10    9 1
    10   11   10 1
    11   12   10 1
    12   13   10 1
    13   14    1 1
    14   15   14 1
    15   16   15 1
    16   17   15 1
    17   18   15 1
    18   19   20 1
    19   21   19 1
    20   22   21 1
    21   23   21 1
    22   24   21 1
    23   25   26 1
    24   26   19 1
    25   27   26 1
    26   28   26 1
    27   29   24 1
    28   30   29 1
    29   31   29 1
    30   32   29 1
    31   33   24 1
    32   34   33 1
    33   35   33 1
    34   36   33 1
    35   37   25 1
    36   38   37 1
    37   39   37 1
    38   40   37 1
    39   41   25 1
    40   42   41 1
    41   43   41 1
    42   44   41 1
    43   45   14 2
    44   46   49 1
    45   47    1 ar
    46   48    9 2
    47   49   24 1
    48    8   47 ar
    49   19   48 1
    50   25   49 1
@<TRIPOS>SUBSTRUCTURE
     1 RES1 1

@<TRIPOS>CRYSIN
  11.1296   14.4974   21.7140  90.0000  90.0000  90.0000  61 1

