# MOL2 file generated by ConQuest
# Please check atom types

@<TRIPOS>MOLECULE
GEZKII
    38    40     1
SMALL
NO_CHARGES
****
Generated from CSD

@<TRIPOS>ATOM
      1 N1         6.8316    6.6336    5.1829 N.pl3     1 RES1    0.0000
      2 C1         6.0622    5.5257    5.4431 C.2       1 RES1    0.0000
      3 C2         5.0232    5.5362    4.5253 C.2       1 RES1    0.0000
      4 C3         5.1941    6.6483    3.6767 C.2       1 RES1    0.0000
      5 H1         4.6461    6.8913    2.9664 H         1 RES1    0.0000
      6 C4         6.3125    7.2974    4.0954 C.2       1 RES1    0.0000
      7 H2         6.6687    8.0655    3.7099 H         1 RES1    0.0000
      8 C5         3.8735    4.6556    4.5124 C.2       1 RES1    0.0000
      9 H3         3.8462    3.9644    5.1341 H         1 RES1    0.0000
     10 O1         2.9428    4.7640    3.7366 O.2       1 RES1    0.0000
     11 C6         7.9692    7.1301    5.9107 C.ar      1 RES1    0.0000
     12 C7         9.0877    6.3663    6.0970 C.ar      1 RES1    0.0000
     13 H4         9.1125    5.4983    5.7650 H         1 RES1    0.0000
     14 C8        10.1892    6.8766    6.7778 C.ar      1 RES1    0.0000
     15 H5        10.9362    6.3432    6.9327 H         1 RES1    0.0000
     16 C9        10.1587    8.1938    7.2224 C.ar      1 RES1    0.0000
     17 O2        11.1704    8.7998    7.9014 O.3       1 RES1    0.0000
     18 C10        9.0387    8.9598    6.9973 C.ar      1 RES1    0.0000
     19 H6         9.0243    9.8446    7.2832 H         1 RES1    0.0000
     20 C11        7.9468    8.4411    6.3571 C.ar      1 RES1    0.0000
     21 H7         7.1910    8.9671    6.2225 H         1 RES1    0.0000
     22 C12       12.4028    8.0918    8.0525 C.3       1 RES1    0.0000
     23 H8        12.2640    7.3227    8.6115 H         1 RES1    0.0000
     24 H9        13.0550    8.6673    8.4584 H         1 RES1    0.0000
     25 H10       12.7173    7.8077    7.1910 H         1 RES1    0.0000
     26 C13        6.3414    4.5420    6.4881 C.ar      1 RES1    0.0000
     27 C14        6.2636    3.1816    6.1432 C.ar      1 RES1    0.0000
     28 H11        6.0806    2.9449    5.2632 H         1 RES1    0.0000
     29 C15        6.4537    2.1936    7.0803 C.ar      1 RES1    0.0000
     30 H12        6.3815    1.2962    6.8460 H         1 RES1    0.0000
     31 C16        6.7506    2.5556    8.3661 C.ar      1 RES1    0.0000
     32 N2         6.9479    1.4982    9.3678 N.pl3     1 RES1    0.0000
     33 O3         6.9744    0.3556    8.9908 O.2       1 RES1    0.0000
     34 O4         7.0931    1.7960   10.5149 O.2       1 RES1    0.0000
     35 C17        6.8372    3.8823    8.7517 C.ar      1 RES1    0.0000
     36 H13        7.0281    4.1064    9.6353 H         1 RES1    0.0000
     37 C18        6.6374    4.8639    7.8108 C.ar      1 RES1    0.0000
     38 H14        6.7008    5.7571    8.0599 H         1 RES1    0.0000
@<TRIPOS>BOND
     1    1    2 1
     2    2    3 2
     3    3    4 1
     4    4    5 1
     5    6    1 1
     6    7    6 1
     7    8    3 1
     8    9    8 1
     9   10    8 2
    10   11    1 1
    11   12   11 ar
    12   13   12 1
    13   14   12 ar
    14   15   14 1
    15   16   14 ar
    16   17   16 1
    17   18   16 ar
    18   19   18 1
    19   20   11 ar
    20   21   20 1
    21   22   17 1
    22   23   22 1
    23   24   22 1
    24   25   22 1
    25   26    2 1
    26   27   26 ar
    27   28   27 1
    28   29   27 ar
    29   30   29 1
    30   31   29 ar
    31   32   31 1
    32   33   32 2
    33   34   32 2
    34   35   31 ar
    35   36   35 1
    36   37   26 ar
    37   38   37 1
    38    4    6 2
    39   18   20 ar
    40   35   37 ar
@<TRIPOS>SUBSTRUCTURE
     1 RES1 1

@<TRIPOS>CRYSIN
   8.0230   10.5211   18.4479  90.0000  90.0000  90.0000  19 1

