# MOL2 file generated by ConQuest
# Please check atom types

@<TRIPOS>MOLECULE
GEZNAA
    72    74     1
SMALL
NO_CHARGES
****
Generated from CSD

@<TRIPOS>ATOM
      1 C1         7.8227   -0.0673    2.9205 C.3       1 RES1    0.0000
      2 O1        10.7810   -0.8944   -2.7044 O.3       1 RES1    0.0000
      3 O2         9.3311    2.4079   -2.9985 O.3       1 RES1    0.0000
      4 C2        11.0120    0.9968   -1.1695 C.3       1 RES1    0.0000
      5 O3        12.3077    1.2536   -1.7621 O.3       1 RES1    0.0000
      6 C3         8.5248    1.2261    2.4906 C.3       1 RES1    0.0000
      7 C4         9.7521    1.4080    3.3170 C.2       1 RES1    0.0000
      8 C5        10.1574   -2.0792   -2.4059 C.2       1 RES1    0.0000
      9 C6         8.8349   -1.2200    2.8604 C.3       1 RES1    0.0000
     10 O4         7.9695   -0.0015   -4.0299 O.3       1 RES1    0.0000
     11 C7         9.1926    0.5626   -4.5579 C.3       1 RES1    0.0000
     12 C8        10.6335    0.4479    3.2346 C.2       1 RES1    0.0000
     13 C9        10.1849   -0.6666    2.3569 C.3       1 RES1    0.0000
     14 C10       10.1665    0.3256   -2.2143 C.3       1 RES1    0.0000
     15 O5        11.9934   -0.9540   -0.0802 O.3       1 RES1    0.0000
     16 C11       12.9381    2.3788   -1.3767 C.2       1 RES1    0.0000
     17 C12        9.9839    1.2093   -3.4529 C.3       1 RES1    0.0000
     18 C13        7.6326   -1.2460   -4.4376 C.2       1 RES1    0.0000
     19 C14       14.2788    2.4950   -1.9737 C.3       1 RES1    0.0000
     20 C15       11.2313    0.2614    0.1782 C.3       1 RES1    0.0000
     21 O6        12.4395    3.1830   -0.6148 O.2       1 RES1    0.0000
     22 O7         9.2060   -2.1648   -1.7287 O.2       1 RES1    0.0000
     23 O8        10.8944    3.6646   -3.9831 O.2       1 RES1    0.0000
     24 C16       10.8978   -3.2044   -3.0497 C.3       1 RES1    0.0000
     25 C17        9.1451    4.7347   -2.7623 C.3       1 RES1    0.0000
     26 C18        9.9030    3.5927   -3.3260 C.2       1 RES1    0.0000
     27 N1        11.1829   -1.8239    2.3814 N.pl3     1 RES1    0.0000
     28 O9        12.2760   -1.6374    2.8604 O.2       1 RES1    0.0000
     29 O10       10.8269   -2.8635    1.8646 O.2       1 RES1    0.0000
     30 C19        9.9614   -0.1254    0.8933 C.3       1 RES1    0.0000
     31 C20        8.9700    1.0579    1.0337 C.3       1 RES1    0.0000
     32 C21        8.0312   -1.1543    5.0301 C.2       1 RES1    0.0000
     33 O11        8.2980   -1.8499   -5.2351 O.2       1 RES1    0.0000
     34 C22        8.8716   -1.7719    4.2482 C.2       1 RES1    0.0000
     35 C23        6.4219   -1.7321   -3.7693 C.3       1 RES1    0.0000
     36 C24        7.2882   -0.0489    4.3707 C.3       1 RES1    0.0000
     37 O12       13.9320    0.0734    0.4077 O.2       1 RES1    0.0000
     38 C25       13.3291   -0.9173    0.1069 C.2       1 RES1    0.0000
     39 C26       13.9120   -2.2657   -0.0891 C.3       1 RES1    0.0000
     40 H1         7.1023   -0.2446    2.3101 H         1 RES1    0.0000
     41 H2        10.6068    1.8468   -0.9757 H         1 RES1    0.0000
     42 H3         7.9353    1.9783    2.5841 H         1 RES1    0.0000
     43 H4         9.8864    2.1862    3.8651 H         1 RES1    0.0000
     44 H5         8.5189   -1.8927    2.2522 H         1 RES1    0.0000
     45 H6         8.9792    1.2154   -5.2284 H         1 RES1    0.0000
     46 H7         9.7129   -0.1315   -4.9722 H         1 RES1    0.0000
     47 H8        11.4773    0.4617    3.6935 H         1 RES1    0.0000
     48 H9         9.3027    0.1162   -1.8512 H         1 RES1    0.0000
     49 H10       10.8486    1.4463   -3.7960 H         1 RES1    0.0000
     50 H11       14.7066    1.6358   -1.9916 H         1 RES1    0.0000
     51 H12       14.8225    3.1081   -1.4725 H         1 RES1    0.0000
     52 H13       14.1971    2.8252   -2.8715 H         1 RES1    0.0000
     53 H14       11.7457    0.8271    0.7596 H         1 RES1    0.0000
     54 H15       11.8400   -3.1769   -2.8693 H         1 RES1    0.0000
     55 H16       10.7293   -3.1310   -3.9920 H         1 RES1    0.0000
     56 H17       10.5192   -4.0345   -2.7512 H         1 RES1    0.0000
     57 H18        9.0809    4.6476   -1.8089 H         1 RES1    0.0000
     58 H19        8.2663    4.7500   -3.1500 H         1 RES1    0.0000
     59 H20        9.5837    5.5588   -2.9873 H         1 RES1    0.0000
     60 H21        9.5295   -0.8149    0.3832 H         1 RES1    0.0000
     61 H22        9.4044    1.8636    0.7441 H         1 RES1    0.0000
     62 H23        8.2029    0.9142    0.4745 H         1 RES1    0.0000
     63 H24        7.8994   -1.3897    5.9524 H         1 RES1    0.0000
     64 H25        9.4386   -2.4935    4.5311 H         1 RES1    0.0000
     65 H26        6.6471   -2.3238   -3.0475 H         1 RES1    0.0000
     66 H27        5.8566   -2.2061   -4.3841 H         1 RES1    0.0000
     67 H28        5.9642   -0.9586   -3.4307 H         1 RES1    0.0000
     68 H29        6.3410   -0.2049    4.3908 H         1 RES1    0.0000
     69 H30        7.4784    0.7935    4.7940 H         1 RES1    0.0000
     70 H31       14.8183   -2.3024    0.2250 H         1 RES1    0.0000
     71 H32       13.8736   -2.4782   -1.0247 H         1 RES1    0.0000
     72 H33       13.3700   -2.9063    0.3787 H         1 RES1    0.0000
@<TRIPOS>BOND
     1    1    6 1
     2    2    8 1
     3    3   17 1
     4    4    5 1
     5    5   16 1
     6    6    7 1
     7    7   12 2
     8    8   22 2
     9    9    1 1
    10   10   11 1
    11   11   17 1
    12   12   13 1
    13   13    9 1
    14   14    2 1
    15   15   20 1
    16   16   19 1
    17   17   14 1
    18   18   10 1
    19   19   50 1
    20   20    4 1
    21   21   16 2
    22   23   26 2
    23   24    8 1
    24   25   26 1
    25   26    3 1
    26   27   13 1
    27   28   27 2
    28   29   27 2
    29   30   13 1
    30   31    6 1
    31   32   34 2
    32   33   18 2
    33   34    9 1
    34   35   18 1
    35   36    1 1
    36   37   38 2
    37   38   15 1
    38   39   38 1
    39   40    1 1
    40   41    4 1
    41   42    6 1
    42   43    7 1
    43   44    9 1
    44   45   11 1
    45   46   11 1
    46   47   12 1
    47   48   14 1
    48   49   17 1
    49   51   19 1
    50   52   19 1
    51   53   20 1
    52   54   24 1
    53   55   24 1
    54   56   24 1
    55   57   25 1
    56   58   25 1
    57   59   25 1
    58   60   30 1
    59   61   31 1
    60   62   31 1
    61   63   32 1
    62   64   34 1
    63   65   35 1
    64   66   35 1
    65   67   35 1
    66   68   36 1
    67   69   36 1
    68   70   39 1
    69   71   39 1
    70   72   39 1
    71    4   14 1
    72   20   30 1
    73   30   31 1
    74   32   36 1
@<TRIPOS>SUBSTRUCTURE
     1 RES1 1

@<TRIPOS>CRYSIN
   8.3380   15.2881   22.2770  90.0000  90.0000  90.0000  19 1

