# MOL2 file generated by ConQuest
# Please check atom types

@<TRIPOS>MOLECULE
GEZVUF
    38    41     1
SMALL
NO_CHARGES
****
Generated from CSD

@<TRIPOS>ATOM
      1 O1        24.0068    3.3452    3.1359 O.2       1 RES1    0.0000
      2 O2        22.1852    3.1441    2.0019 O.2       1 RES1    0.0000
      3 O3        21.1132    5.3121    3.0596 O.3       1 RES1    0.0000
      4 O4        19.7725    7.9380    2.3060 O.3       1 RES1    0.0000
      5 H1        19.5780    7.3584    1.7301 H         1 RES1    0.0000
      6 O5        21.7732    2.4918    5.1873 O.2       1 RES1    0.0000
      7 O6        19.2757    6.0688    6.4288 O.2       1 RES1    0.0000
      8 N1        22.8968    3.7164    2.7891 N.pl3     1 RES1    0.0000
      9 N2        20.3099    4.0957    5.9213 N.am      1 RES1    0.0000
     10 C1        22.4290    4.9736    3.4303 C.3       1 RES1    0.0000
     11 C2        23.2339    6.2006    3.0865 C.2       1 RES1    0.0000
     12 H2        24.1297    6.2463    2.7769 H         1 RES1    0.0000
     13 C3        22.3990    7.1971    3.3179 C.2       1 RES1    0.0000
     14 H3        22.5781    8.1236    3.2074 H         1 RES1    0.0000
     15 C4        21.1032    6.5792    3.7918 C.3       1 RES1    0.0000
     16 C5        21.4016    6.0651    5.2508 C.3       1 RES1    0.0000
     17 H4        21.8555    6.7574    5.8114 H         1 RES1    0.0000
     18 C6        22.3103    4.8594    4.9632 C.3       1 RES1    0.0000
     19 H5        23.1910    4.9051    5.4340 H         1 RES1    0.0000
     20 C7        21.4800    3.6471    5.3516 C.2       1 RES1    0.0000
     21 C8        20.2012    5.4670    5.9384 C.2       1 RES1    0.0000
     22 C9        19.8235    7.3385    3.5750 C.3       1 RES1    0.0000
     23 H6        19.7877    8.1089    4.2322 H         1 RES1    0.0000
     24 H7        19.0102    6.7390    3.7008 H         1 RES1    0.0000
     25 C10       19.3206    3.2119    6.5217 C.3       1 RES1    0.0000
     26 H8        18.8876    3.6840    7.2765 H         1 RES1    0.0000
     27 H9        19.7844    2.4179    6.8899 H         1 RES1    0.0000
     28 C11       18.2547    2.7501    5.5623 C.ar      1 RES1    0.0000
     29 C12       18.0728    3.3113    4.3164 C.ar      1 RES1    0.0000
     30 H10       18.6586    3.9977    4.0178 H         1 RES1    0.0000
     31 C13       17.0389    2.8797    3.4938 C.ar      1 RES1    0.0000
     32 H11       16.9166    3.2752    2.6388 H         1 RES1    0.0000
     33 C14       16.1924    1.8832    3.9158 C.ar      1 RES1    0.0000
     34 H12       15.4843    1.5908    3.3546 H         1 RES1    0.0000
     35 C15       16.3743    1.3066    5.1555 C.ar      1 RES1    0.0000
     36 H13       15.7908    0.6150    5.4450 H         1 RES1    0.0000
     37 C16       17.4028    1.7315    5.9800 C.ar      1 RES1    0.0000
     38 H14       17.5263    1.3272    6.8307 H         1 RES1    0.0000
@<TRIPOS>BOND
     1    1    8 2
     2    2    8 2
     3    3   10 1
     4    4    5 1
     5    6   20 2
     6    7   21 2
     7    8   10 1
     8    9   20 1
     9   10   11 1
    10   11   12 1
    11   13   11 2
    12   14   13 1
    13   15    3 1
    14   16   15 1
    15   17   16 1
    16   18   10 1
    17   19   18 1
    18   20   18 1
    19   21    9 1
    20   22    4 1
    21   23   22 1
    22   24   22 1
    23   25    9 1
    24   26   25 1
    25   27   25 1
    26   28   25 1
    27   29   28 ar
    28   30   29 1
    29   31   29 ar
    30   32   31 1
    31   33   31 ar
    32   34   33 1
    33   35   33 ar
    34   36   35 1
    35   37   28 ar
    36   38   37 1
    37   13   15 1
    38   15   22 1
    39   16   18 1
    40   16   21 1
    41   35   37 ar
@<TRIPOS>SUBSTRUCTURE
     1 RES1 1

@<TRIPOS>CRYSIN
  32.2590    7.3650    6.1070  90.0000  90.0000  90.0000  33 1

