# MOL2 file generated by ConQuest
# Please check atom types

@<TRIPOS>MOLECULE
GEZWAM
    38    41     1
SMALL
NO_CHARGES
****
Generated from CSD

@<TRIPOS>ATOM
      1 O1         3.7353    2.7406    8.5548 O.2       1 RES1    0.0000
      2 O2         5.7903    3.3036    8.9289 O.2       1 RES1    0.0000
      3 O3         6.5579    2.0675    6.6948 O.3       1 RES1    0.0000
      4 O4         7.7776   -0.2010    5.1222 O.3       1 RES1    0.0000
      5 H1         8.5893   -0.5471    5.5093 H         1 RES1    0.0000
      6 O5         2.9585    4.5632    5.7311 O.2       1 RES1    0.0000
      7 O6         5.6799    3.0924    2.3817 O.2       1 RES1    0.0000
      8 N1         4.8960    2.8646    8.2199 N.pl3     1 RES1    0.0000
      9 N2         4.0859    3.8462    3.8584 N.am      1 RES1    0.0000
     10 C1         5.2272    2.5224    6.8114 C.3       1 RES1    0.0000
     11 C2         4.4165    1.4415    6.1645 C.2       1 RES1    0.0000
     12 H2         3.5495    1.1375    6.4027 H         1 RES1    0.0000
     13 C3         5.1915    1.0089    5.1833 C.2       1 RES1    0.0000
     14 H3         4.9808    0.3308    4.5521 H         1 RES1    0.0000
     15 C4         6.4795    1.8016    5.2573 C.3       1 RES1    0.0000
     16 C5         6.1714    3.2597    4.7638 C.3       1 RES1    0.0000
     17 H4         7.0071    3.8036    4.6929 H         1 RES1    0.0000
     18 C6         5.2596    3.7820    5.8810 C.3       1 RES1    0.0000
     19 H5         5.6563    4.5746    6.3443 H         1 RES1    0.0000
     20 C7         3.9541    4.1236    5.2123 C.2       1 RES1    0.0000
     21 C8         5.3419    3.3653    3.5088 C.2       1 RES1    0.0000
     22 C9         7.7426    1.1686    4.7472 C.3       1 RES1    0.0000
     23 H6         7.7801    1.2456    3.7609 H         1 RES1    0.0000
     24 H7         8.5287    1.6387    5.1243 H         1 RES1    0.0000
     25 C10        3.0295    4.1128    2.8786 C.3       1 RES1    0.0000
     26 H8         3.4496    4.4366    2.0431 H         1 RES1    0.0000
     27 H9         2.4551    4.8418    3.2246 H         1 RES1    0.0000
     28 C11        2.1559    2.9314    2.5489 C.ar      1 RES1    0.0000
     29 C12        1.7685    1.9931    3.4987 C.ar      1 RES1    0.0000
     30 H10        2.0923    2.0612    4.3889 H         1 RES1    0.0000
     31 C13        0.9148    0.9619    3.1558 C.ar      1 RES1    0.0000
     32 H11        0.6550    0.3225    3.8087 H         1 RES1    0.0000
     33 C14        0.4389    0.8639    1.8625 C.ar      1 RES1    0.0000
     34 H12       -0.1487    0.1559    1.6249 H         1 RES1    0.0000
     35 C15        0.8149    1.7908    0.9159 C.ar      1 RES1    0.0000
     36 H13        0.4845    1.7227    0.0279 H         1 RES1    0.0000
     37 C16        1.6723    2.8201    1.2576 C.ar      1 RES1    0.0000
     38 H14        1.9308    3.4556    0.6014 H         1 RES1    0.0000
@<TRIPOS>BOND
     1    1    8 2
     2    2    8 2
     3    3   10 1
     4    4    5 1
     5    6   20 2
     6    7   21 2
     7    8   10 1
     8    9   20 1
     9   10   11 1
    10   11   12 1
    11   13   11 2
    12   14   13 1
    13   15    3 1
    14   16   15 1
    15   17   16 1
    16   18   10 1
    17   19   18 1
    18   20   18 1
    19   21    9 1
    20   22    4 1
    21   23   22 1
    22   24   22 1
    23   25    9 1
    24   26   25 1
    25   27   25 1
    26   28   25 1
    27   29   28 ar
    28   30   29 1
    29   31   29 ar
    30   32   31 1
    31   33   31 ar
    32   34   33 1
    33   35   33 ar
    34   36   35 1
    35   37   28 ar
    36   38   37 1
    37   13   15 1
    38   15   22 1
    39   16   18 1
    40   16   21 1
    41   35   37 ar
@<TRIPOS>SUBSTRUCTURE
     1 RES1 1

@<TRIPOS>CRYSIN
  17.0020    6.3616   13.3020  90.0000  93.6210  90.0000  14 1

