# MOL2 file generated by ConQuest
# Please check atom types

@<TRIPOS>MOLECULE
GEZXAK
    24    25     1
SMALL
NO_CHARGES
****
Generated from CSD

@<TRIPOS>ATOM
      1 N1         0.1200   10.3659    8.2628 N.2       1 RES1    0.0000
      2 N2        -1.7771   11.3392    8.8812 N.pl3     1 RES1    0.0000
      3 N3        -2.6880   11.8928    9.7575 N.3       1 RES1    0.0000
      4 N4        -3.2693   11.1305   10.6822 N.2       1 RES1    0.0000
      5 O1        -2.9335    9.9622   10.6737 O.2       1 RES1    0.0000
      6 C1        -2.0984   10.6576    7.7133 C.ar      1 RES1    0.0000
      7 C2        -3.2834   10.5412    6.9992 C.ar      1 RES1    0.0000
      8 C3        -3.1983    9.8065    5.8301 C.ar      1 RES1    0.0000
      9 C4        -2.0094    9.2229    5.4125 C.ar      1 RES1    0.0000
     10 C5        -0.8401    9.3406    6.1423 C.ar      1 RES1    0.0000
     11 C6        -0.8899   10.0798    7.3284 C.ar      1 RES1    0.0000
     12 C7        -0.4470   11.1017    9.1717 C.2       1 RES1    0.0000
     13 C8         0.1817   11.6806   10.3881 C.3       1 RES1    0.0000
     14 C9        -3.0386   13.2941    9.6534 C.3       1 RES1    0.0000
     15 H1        -4.2309   10.9794    7.3587 H         1 RES1    0.0000
     16 H2        -4.0979    9.6531    5.2406 H         1 RES1    0.0000
     17 H3        -1.9398    8.6959    4.6234 H         1 RES1    0.0000
     18 H4         0.0176    8.9727    5.8821 H         1 RES1    0.0000
     19 H5         0.2603   12.6402   10.2392 H         1 RES1    0.0000
     20 H6         1.1175   11.2562   10.5176 H         1 RES1    0.0000
     21 H7        -0.4627   11.5099   11.2559 H         1 RES1    0.0000
     22 H8        -3.5187   13.4936    8.7747 H         1 RES1    0.0000
     23 H9        -3.5940   13.5051   10.3118 H         1 RES1    0.0000
     24 H10       -2.2365   13.7935    9.7793 H         1 RES1    0.0000
@<TRIPOS>BOND
     1    1   11 1
     2    2    3 1
     3    3    4 1
     4    4    5 2
     5    6    2 1
     6    7    6 ar
     7    8    7 ar
     8    9    8 ar
     9   10    9 ar
    10   11    6 ar
    11   12    1 2
    12   13   12 1
    13   14    3 1
    14   15    7 1
    15   16    8 1
    16   17    9 1
    17   18   10 1
    18   19   13 1
    19   20   13 1
    20   21   13 1
    21   22   14 1
    22   23   14 1
    23   24   14 1
    24    2   12 1
    25   10   11 ar
@<TRIPOS>SUBSTRUCTURE
     1 RES1 1

@<TRIPOS>CRYSIN
   6.9300   11.5330   12.3590  90.0000 101.6800  90.0000 231 1

