# MOL2 file generated by ConQuest
# Please check atom types

@<TRIPOS>MOLECULE
GIBBAX
    31    30     1
SMALL
NO_CHARGES
****
Generated from CSD

@<TRIPOS>ATOM
      1 O1         1.5253    7.6391   16.5452 O.3       1 RES1    0.0000
      2 O2         3.3751    6.5749   15.8010 O.2       1 RES1    0.0000
      3 O3         3.6310    9.7533   13.1829 O.3       1 RES1    0.0000
      4 O4         5.3138    8.8061   11.9401 O.2       1 RES1    0.0000
      5 O5         4.6132   10.9674   11.7383 O.3       1 RES1    0.0000
      6 N1         3.6597    8.6005   13.9666 N.2       1 RES1    0.0000
      7 N2         0.8869   10.5016   14.7712 N.1       1 RES1    0.0000
      8 C1         0.1509    7.0026   18.3921 C.3       1 RES1    0.0000
      9 C2         1.3611    6.6215   17.5891 C.3       1 RES1    0.0000
     10 C3         2.5847    7.4762   15.7676 C.2       1 RES1    0.0000
     11 C4         2.6669    8.6221   14.7827 C.2       1 RES1    0.0000
     12 C5         4.6435    9.7467   12.2204 C.2       1 RES1    0.0000
     13 C6         5.4617   11.3369   10.5623 C.3       1 RES1    0.0000
     14 C7         6.9281   11.0817   10.8674 C.3       1 RES1    0.0000
     15 C8         4.9673   10.5631    9.3536 C.3       1 RES1    0.0000
     16 C9         5.1711   12.8170   10.4310 C.3       1 RES1    0.0000
     17 C10        1.6719    9.6700   14.8003 C.1       1 RES1    0.0000
     18 H1         0.0056    6.3288   19.1281 H         1 RES1    0.0000
     19 H2        -0.6138    6.9684   17.8026 H         1 RES1    0.0000
     20 H3         0.2816    7.8613   18.8147 H         1 RES1    0.0000
     21 H4         2.1680    6.6520   18.1320 H         1 RES1    0.0000
     22 H5         1.2501    5.7823   17.1326 H         1 RES1    0.0000
     23 H6         7.1516   10.1088   10.8968 H         1 RES1    0.0000
     24 H7         7.1798   11.4784   11.7522 H         1 RES1    0.0000
     25 H8         7.4557   11.4989   10.1900 H         1 RES1    0.0000
     26 H9         4.0263   10.7552    9.2195 H         1 RES1    0.0000
     27 H10        5.0906    9.6171    9.4625 H         1 RES1    0.0000
     28 H11        5.4566   10.8881    8.5815 H         1 RES1    0.0000
     29 H12        4.2009   12.9356   10.3499 H         1 RES1    0.0000
     30 H13        5.6030   13.1561    9.5984 H         1 RES1    0.0000
     31 H14        5.4961   13.3341   11.2118 H         1 RES1    0.0000
@<TRIPOS>BOND
     1    1    9 1
     2    2   10 2
     3    3    6 1
     4    4   12 2
     5    5   12 1
     6    6   11 2
     7    7   17 3
     8    8    9 1
     9    9   21 1
    10   10    1 1
    11   11   10 1
    12   12    3 1
    13   13    5 1
    14   14   13 1
    15   15   13 1
    16   16   13 1
    17   17   11 1
    18   18    8 1
    19   19    8 1
    20   20    8 1
    21   22    9 1
    22   23   14 1
    23   24   14 1
    24   25   14 1
    25   26   15 1
    26   27   15 1
    27   28   15 1
    28   29   16 1
    29   30   16 1
    30   31   16 1
@<TRIPOS>SUBSTRUCTURE
     1 RES1 1

@<TRIPOS>CRYSIN
   5.6312   13.6957   15.9894  90.0000  90.0000  90.0000  19 1

