# MOL2 file generated by ConQuest
# Please check atom types

@<TRIPOS>MOLECULE
GIBTOC
    48    53     1
SMALL
NO_CHARGES
****
Generated from CSD

@<TRIPOS>ATOM
      1 O1         7.1404    4.9029   10.3523 O.2       1 RES1    0.0000
      2 O2         8.9063    6.1059   10.6418 O.2       1 RES1    0.0000
      3 O3         4.3163    5.9659    8.8548 O.2       1 RES1    0.0000
      4 O4         6.1554    7.0974    9.0643 O.2       1 RES1    0.0000
      5 N1         8.1502    5.4590    9.9427 N.pl3     1 RES1    0.0000
      6 N2         5.4819    6.2021    8.5641 N.pl3     1 RES1    0.0000
      7 N3         8.9359    2.8445    2.1386 N.ar      1 RES1    0.0000
      8 N4        10.1844    2.9353    2.6019 N.ar      1 RES1    0.0000
      9 C1         8.0681    3.6060    4.2191 C.ar      1 RES1    0.0000
     10 C2         9.3776    3.6622    4.7206 C.ar      1 RES1    0.0000
     11 C3         9.3349    4.2298    6.0895 C.ar      1 RES1    0.0000
     12 C4        10.2684    4.5890    7.0183 C.ar      1 RES1    0.0000
     13 C5         9.8200    5.0690    8.2573 C.ar      1 RES1    0.0000
     14 C6         8.4938    5.2513    8.5267 C.ar      1 RES1    0.0000
     15 C7         7.4869    5.0783    7.5371 C.ar      1 RES1    0.0000
     16 C8         7.9625    4.4991    6.3493 C.ar      1 RES1    0.0000
     17 C9         7.1581    4.1814    5.2289 C.ar      1 RES1    0.0000
     18 C10        5.8243    4.5091    5.2560 C.ar      1 RES1    0.0000
     19 C11        5.3153    5.1359    6.4083 C.ar      1 RES1    0.0000
     20 C12        6.1009    5.4075    7.4973 C.ar      1 RES1    0.0000
     21 C13        7.8744    3.1230    2.9182 C.ar      1 RES1    0.0000
     22 C14        6.5569    2.8930    2.2821 C.ar      1 RES1    0.0000
     23 C15        6.3540    3.2637    0.9559 C.ar      1 RES1    0.0000
     24 C16        5.1400    3.0222    0.3547 C.ar      1 RES1    0.0000
     25 C17        4.1282    2.4022    1.0267 C.ar      1 RES1    0.0000
     26 C18        4.3115    2.0053    2.3438 C.ar      1 RES1    0.0000
     27 C19        5.5203    2.2538    2.9590 C.ar      1 RES1    0.0000
     28 C20       10.4265    3.2753    3.8843 C.ar      1 RES1    0.0000
     29 C21       11.8641    3.2276    4.2576 C.ar      1 RES1    0.0000
     30 C22       12.2939    2.6599    5.4477 C.ar      1 RES1    0.0000
     31 C23       13.6456    2.6076    5.7488 C.ar      1 RES1    0.0000
     32 C24       14.5735    3.1030    4.8639 C.ar      1 RES1    0.0000
     33 C25       14.1644    3.6445    3.6841 C.ar      1 RES1    0.0000
     34 C26       12.8226    3.7160    3.3799 C.ar      1 RES1    0.0000
     35 H1        11.1982    4.4921    6.8810 H         1 RES1    0.0000
     36 H2        10.4244    5.2459    8.9707 H         1 RES1    0.0000
     37 H3         5.2197    4.3306    4.5146 H         1 RES1    0.0000
     38 H4         4.3584    5.3613    6.4510 H         1 RES1    0.0000
     39 H5         7.0521    3.7306    0.5027 H         1 RES1    0.0000
     40 H6         5.0674    3.3537   -0.5627 H         1 RES1    0.0000
     41 H7         3.2937    2.2614    0.6528 H         1 RES1    0.0000
     42 H8         3.5887    1.5615    2.8422 H         1 RES1    0.0000
     43 H9         5.6696    1.9768    3.8981 H         1 RES1    0.0000
     44 H10       11.6710    2.3230    6.0289 H         1 RES1    0.0000
     45 H11       13.9278    2.2307    6.5901 H         1 RES1    0.0000
     46 H12       15.5551    3.0460    5.0552 H         1 RES1    0.0000
     47 H13       14.8349    3.9768    3.1046 H         1 RES1    0.0000
     48 H14       12.5138    4.0614    2.5197 H         1 RES1    0.0000
@<TRIPOS>BOND
     1    1    5 2
     2    2    5 2
     3    3    6 2
     4    4    6 2
     5    5   14 1
     6    6   20 1
     7    7    8 ar
     8    8   28 ar
     9    9   10 ar
    10   10   11 1
    11   11   12 ar
    12   12   13 ar
    13   13   14 ar
    14   14   15 ar
    15   15   16 ar
    16   16   11 ar
    17   17    9 1
    18   18   17 ar
    19   19   18 ar
    20   20   15 ar
    21   21    7 ar
    22   22   21 1
    23   23   22 ar
    24   24   23 ar
    25   25   24 ar
    26   26   25 ar
    27   27   22 ar
    28   28   10 ar
    29   29   28 1
    30   30   29 ar
    31   31   30 ar
    32   32   31 ar
    33   33   32 ar
    34   34   29 ar
    35   35   12 1
    36   36   13 1
    37   37   18 1
    38   38   19 1
    39   39   23 1
    40   40   24 1
    41   41   25 1
    42   42   26 1
    43   43   27 1
    44   44   30 1
    45   45   31 1
    46   46   32 1
    47   47   33 1
    48   48   34 1
    49    9   21 ar
    50   16   17 ar
    51   19   20 ar
    52   26   27 ar
    53   33   34 ar
@<TRIPOS>SUBSTRUCTURE
     1 RES1 1

@<TRIPOS>CRYSIN
  16.7780    7.6920   17.0440  90.0000 111.9600  90.0000 231 1

