# MOL2 file generated by ConQuest
# Please check atom types

@<TRIPOS>MOLECULE
GIBVEU
    46    49     1
SMALL
NO_CHARGES
****
Generated from CSD

@<TRIPOS>ATOM
      1 O1        -0.3308    4.1759    5.5967 O.2       1 RES1    0.0000
      2 O2        -1.8067    4.2957    4.0119 O.2       1 RES1    0.0000
      3 N1        -0.8951    4.7935    4.6805 N.pl3     1 RES1    0.0000
      4 N2         0.5618   10.1215    4.0098 N.3       1 RES1    0.0000
      5 C1        -0.5172    6.1626    4.4436 C.ar      1 RES1    0.0000
      6 C2        -0.7340    6.7910    3.1791 C.ar      1 RES1    0.0000
      7 C3        -0.7340    8.2270    3.1791 C.ar      1 RES1    0.0000
      8 C4         0.0050    8.9082    4.2226 C.ar      1 RES1    0.0000
      9 C5         0.1855    8.2331    5.4566 C.ar      1 RES1    0.0000
     10 H1         0.5141    8.7039    6.2132 H         1 RES1    0.0000
     11 C6        -0.1170    6.8914    5.5546 C.ar      1 RES1    0.0000
     12 H2        -0.0508    6.4580    6.3976 H         1 RES1    0.0000
     13 C7         0.8442   10.6932    2.6784 C.3       1 RES1    0.0000
     14 H3         0.1528   11.3530    2.4187 H         1 RES1    0.0000
     15 H4         0.8903    9.9852    1.9888 H         1 RES1    0.0000
     16 C8         2.1981   11.3632    2.8702 C.3       1 RES1    0.0000
     17 H5         2.3242   12.1049    2.2266 H         1 RES1    0.0000
     18 H6         2.9365   10.7128    2.7620 H         1 RES1    0.0000
     19 C9         2.1289   11.8840    4.3011 C.3       1 RES1    0.0000
     20 H7         1.6235   12.7334    4.3477 H         1 RES1    0.0000
     21 H8         3.0358   12.0272    4.6733 H         1 RES1    0.0000
     22 C10        1.3962   10.7640    5.0475 C.3       1 RES1    0.0000
     23 H9         2.0396   10.1183    5.4337 H         1 RES1    0.0000
     24 H10        0.8342   11.1325    5.7745 H         1 RES1    0.0000
     25 O1A       -1.1372    4.1759    0.7615 O.2       1 RES1    0.0000
     26 O2A        0.3387    4.2957    2.3463 O.2       1 RES1    0.0000
     27 N1A       -0.5730    4.7935    1.6777 N.pl3     1 RES1    0.0000
     28 N2A       -2.0299   10.1215    2.3483 N.3       1 RES1    0.0000
     29 C1A       -0.9508    6.1626    1.9146 C.ar      1 RES1    0.0000
     30 C4A       -1.4730    8.9082    2.1356 C.ar      1 RES1    0.0000
     31 C5A       -1.6535    8.2331    0.9016 C.ar      1 RES1    0.0000
     32 H1A       -1.9821    8.7039    0.1450 H         1 RES1    0.0000
     33 C6A       -1.3511    6.8914    0.8035 C.ar      1 RES1    0.0000
     34 H2A       -1.4172    6.4580   -0.0394 H         1 RES1    0.0000
     35 C7A       -2.3123   10.6932    3.6797 C.3       1 RES1    0.0000
     36 H3A       -1.6208   11.3530    3.9395 H         1 RES1    0.0000
     37 H4A       -2.3583    9.9852    4.3693 H         1 RES1    0.0000
     38 C8A       -3.6662   11.3632    3.4880 C.3       1 RES1    0.0000
     39 H5A       -3.7922   12.1049    4.1315 H         1 RES1    0.0000
     40 H6A       -4.4046   10.7128    3.5962 H         1 RES1    0.0000
     41 C9A       -3.5970   11.8840    2.0571 C.3       1 RES1    0.0000
     42 H7A       -3.0915   12.7334    2.0105 H         1 RES1    0.0000
     43 H8A       -4.5038   12.0272    1.6849 H         1 RES1    0.0000
     44 C10A      -2.8643   10.7640    1.3107 C.3       1 RES1    0.0000
     45 H9A       -3.5076   10.1183    0.9245 H         1 RES1    0.0000
     46 H10A      -2.3022   11.1325    0.5837 H         1 RES1    0.0000
@<TRIPOS>BOND
     1    1    3 2
     2    2    3 2
     3    3    5 1
     4    4    8 1
     5    5    6 ar
     6    6    7 ar
     7    7    8 ar
     8    8    9 ar
     9    9   10 1
    10   11    5 ar
    11   12   11 1
    12   13    4 1
    13   14   13 1
    14   15   13 1
    15   16   13 1
    16   17   16 1
    17   18   16 1
    18   19   16 1
    19   20   19 1
    20   21   19 1
    21   22    4 1
    22   23   22 1
    23   24   22 1
    24   25   27 2
    25   26   27 2
    26   27   29 1
    27   28   30 1
    28   29    6 ar
    29   30    7 ar
    30   31   30 ar
    31   32   31 1
    32   33   29 ar
    33   34   33 1
    34   35   28 1
    35   36   35 1
    36   37   35 1
    37   38   35 1
    38   39   38 1
    39   40   38 1
    40   41   38 1
    41   42   41 1
    42   43   41 1
    43   44   28 1
    44   45   44 1
    45   46   44 1
    46    9   11 ar
    47   19   22 1
    48   31   33 ar
    49   41   44 1
@<TRIPOS>SUBSTRUCTURE
     1 RES1 1

@<TRIPOS>CRYSIN
  13.0257    9.7142   13.0509  90.0000 103.0010  90.0000  15 1

