# MOL2 file generated by ConQuest
# Please check atom types

@<TRIPOS>MOLECULE
GIBZIA
    33    35     1
SMALL
USER_CHARGES
****
Generated from CSD

@<TRIPOS>ATOM
      1 O1         0.3099    4.3357    0.9939 O.3       1 RES1    0.0000
      2 C1         0.8393    5.5261    1.2966 C.2       1 RES1    0.0000
      3 C2         1.7740    6.1122    0.3484 C.2       1 RES1    0.0000
      4 N1         2.2339    5.4679   -0.7140 N.pl3     1 RES1    1.0000
      5 C3         1.7443    4.0863   -0.9768 C.3       1 RES1    0.0000
      6 C4         0.3347    3.9917   -0.4455 C.3       1 RES1    0.0000
      7 O2         0.6050    6.0340    2.3648 O.2       1 RES1    0.0000
      8 O3         3.1154    5.9357   -1.4623 O.2       1 RES1   -1.0000
      9 C5         2.7422    3.0725   -0.5027 C.ar      1 RES1    0.0000
     10 C6         3.4216    3.1781    0.7140 C.ar      1 RES1    0.0000
     11 C7         4.3613    2.1788    1.0510 C.ar      1 RES1    0.0000
     12 C8         4.5795    1.1140    0.2399 C.ar      1 RES1    0.0000
     13 C9         3.8951    1.0339   -0.9825 C.ar      1 RES1    0.0000
     14 C10        3.0026    2.0131   -1.2966 C.ar      1 RES1    0.0000
     15 C11       -0.2950    2.6375   -0.5940 C.ar      1 RES1    0.0000
     16 C12       -0.1314    1.6200    0.3370 C.ar      1 RES1    0.0000
     17 C13       -0.7475    0.4077    0.1314 C.ar      1 RES1    0.0000
     18 C14       -1.4703    0.1365   -1.0167 C.ar      1 RES1    0.0000
     19 C15       -1.6141    1.1431   -1.9478 C.ar      1 RES1    0.0000
     20 C16       -1.0290    2.3826   -1.7479 C.ar      1 RES1    0.0000
     21 H1         2.0852    7.0496    0.5067 H         1 RES1    0.0000
     22 H2         1.6711    3.8570   -1.9992 H         1 RES1    0.0000
     23 H3        -0.1934    4.6360   -0.9990 H         1 RES1    0.0000
     24 H4         3.2468    3.9444    1.3326 H         1 RES1    0.0000
     25 H5         4.8757    2.2589    1.9050 H         1 RES1    0.0000
     26 H6         5.2204    0.3950    0.5095 H         1 RES1    0.0000
     27 H7         4.0600    0.2730   -1.6102 H         1 RES1    0.0000
     28 H8         2.5116    1.9440   -2.1654 H         1 RES1    0.0000
     29 H9         0.4302    1.7674    1.1510 H         1 RES1    0.0000
     30 H10       -0.6707   -0.3003    0.8340 H         1 RES1    0.0000
     31 H11       -1.8769   -0.7645   -1.1670 H         1 RES1    0.0000
     32 H12       -2.1472    0.9756   -2.7772 H         1 RES1    0.0000
     33 H13       -1.1343    3.0998   -2.4373 H         1 RES1    0.0000
@<TRIPOS>BOND
     1    1    2 1
     2    2    3 1
     3    3    4 2
     4    4    5 1
     5    5    6 1
     6    6    1 1
     7    7    2 2
     8    8    4 1
     9    9    5 1
    10   10    9 ar
    11   11   10 ar
    12   12   11 ar
    13   13   12 ar
    14   14    9 ar
    15   15    6 1
    16   16   15 ar
    17   17   16 ar
    18   18   17 ar
    19   19   18 ar
    20   20   15 ar
    21   21    3 1
    22   22    5 1
    23   23    6 1
    24   24   10 1
    25   25   11 1
    26   26   12 1
    27   27   13 1
    28   28   14 1
    29   29   16 1
    30   30   17 1
    31   31   18 1
    32   32   19 1
    33   33   20 1
    34   13   14 ar
    35   19   20 ar
@<TRIPOS>SUBSTRUCTURE
     1 RES1 1

@<TRIPOS>CRYSIN
  12.3970   18.2020    5.7120  90.0000  90.0000  90.0000  19 1

