# MOL2 file generated by ConQuest
# Please check atom types

@<TRIPOS>MOLECULE
GICLAI
    42    44     1
SMALL
NO_CHARGES
****
Generated from CSD

@<TRIPOS>ATOM
      1 C1        -3.6354    1.1822    1.2965 C.3       1 RES1    0.0000
      2 H1        -4.3157    1.1546    1.9732 H         1 RES1    0.0000
      3 H2        -3.5470    0.3143    0.8953 H         1 RES1    0.0000
      4 H3        -3.8785    1.8229    0.6238 H         1 RES1    0.0000
      5 C2        -1.9487    0.6058    3.0351 C.3       1 RES1    0.0000
      6 H4        -2.6405    0.6087    3.7018 H         1 RES1    0.0000
      7 H5        -1.1163    0.8651    3.4364 H         1 RES1    0.0000
      8 H6        -1.8646   -0.2762    2.6649 H         1 RES1    0.0000
      9 C3        -2.3065    1.5882    1.9288 C.3       1 RES1    0.0000
     10 C4        -2.4167    2.9982    2.5062 C.3       1 RES1    0.0000
     11 H7        -2.7907    3.5813    1.8275 H         1 RES1    0.0000
     12 H8        -3.0378    2.9792    3.2507 H         1 RES1    0.0000
     13 C5        -1.1206    3.5843    2.9797 C.2       1 RES1    0.0000
     14 C6         0.1175    3.1246    2.3490 C.2       1 RES1    0.0000
     15 C7         0.0051    2.3183    1.2902 C.2       1 RES1    0.0000
     16 C8        -1.2277    1.6275    0.8417 C.3       1 RES1    0.0000
     17 H9        -1.0060    0.7196    0.5819 H         1 RES1    0.0000
     18 H10       -1.5796    2.0826    0.0609 H         1 RES1    0.0000
     19 C9         2.1855    2.8318    0.5637 C.2       1 RES1    0.0000
     20 C10        2.3915    3.6431    1.6218 C.2       1 RES1    0.0000
     21 C11        1.4590    3.6357    2.8158 C.3       1 RES1    0.0000
     22 H11        1.3407    4.5639    3.1100 H         1 RES1    0.0000
     23 C12        3.4933    4.5333    1.6032 C.1       1 RES1    0.0000
     24 C13        2.0030    2.8296    4.0076 C.ar      1 RES1    0.0000
     25 C14        3.3359    2.4923    4.1023 C.ar      1 RES1    0.0000
     26 H12        3.9145    2.7426    3.4184 H         1 RES1    0.0000
     27 C15        3.8401    1.7931    5.1843 C.ar      1 RES1    0.0000
     28 H13        4.7443    1.5830    5.2349 H         1 RES1    0.0000
     29 C16        2.9756    1.4178    6.1798 C.ar      1 RES1    0.0000
     30 C17        1.6396    1.7246    6.1262 C.ar      1 RES1    0.0000
     31 H14        1.0666    1.4573    6.8078 H         1 RES1    0.0000
     32 C18        1.1591    2.4338    5.0473 C.ar      1 RES1    0.0000
     33 H15        0.2554    2.6533    5.0103 H         1 RES1    0.0000
     34 O1         1.0722    2.0477    0.4643 O.3       1 RES1    0.0000
     35 O2        -1.0948    4.4691    3.8337 O.2       1 RES1    0.0000
     36 O3         4.6922    0.5533    7.4463 O.2       1 RES1    0.0000
     37 O4         2.7115    0.1863    8.1085 O.2       1 RES1    0.0000
     38 N1         2.9780    2.6533   -0.5023 N.3       1 RES1    0.0000
     39 H16        3.7739    3.0867   -0.5190 H         1 RES1    0.0000
     40 H17        2.6171    2.3952   -1.1977 H         1 RES1    0.0000
     41 N2         4.3869    5.2551    1.6142 N.1       1 RES1    0.0000
     42 N3         3.4938    0.6574    7.3212 N.pl3     1 RES1    0.0000
@<TRIPOS>BOND
     1    1    2 1
     2    3    1 1
     3    4    1 1
     4    5    6 1
     5    7    5 1
     6    8    5 1
     7    9    1 1
     8   10    9 1
     9   11   10 1
    10   12   10 1
    11   13   10 1
    12   14   13 1
    13   15   14 2
    14   16    9 1
    15   17   16 1
    16   18   16 1
    17   19   20 2
    18   20   21 1
    19   21   14 1
    20   22   21 1
    21   23   20 1
    22   24   21 1
    23   25   24 ar
    24   26   25 1
    25   27   25 ar
    26   28   27 1
    27   29   27 ar
    28   30   29 ar
    29   31   30 1
    30   32   24 ar
    31   33   32 1
    32   34   15 1
    33   35   13 2
    34   36   42 2
    35   37   42 2
    36   38   19 1
    37   39   38 1
    38   40   38 1
    39   41   23 3
    40   42   29 1
    41    5    9 1
    42   15   16 1
    43   19   34 1
    44   30   32 ar
@<TRIPOS>SUBSTRUCTURE
     1 RES1 1

@<TRIPOS>CRYSIN
   9.5820   16.5417   10.6951  90.0000 111.0600  90.0000 231 1

