# MOL2 file generated by ConQuest
# Please check atom types

@<TRIPOS>MOLECULE
GIDDOP
    23    23     1
SMALL
NO_CHARGES
****
Generated from CSD

@<TRIPOS>ATOM
      1 O1         2.4258    6.2556    4.9472 O.3       1 RES1    0.0000
      2 O2         3.2193    2.7015    6.8645 O.2       1 RES1    0.0000
      3 O3         0.4004    0.7197    9.6242 O.2       1 RES1    0.0000
      4 O4        -0.3538    2.5554    8.7710 O.2       1 RES1    0.0000
      5 O5        -1.5025    4.3940    6.5971 O.2       1 RES1    0.0000
      6 O6        -2.4294    4.0951    2.6778 O.2       1 RES1    0.0000
      7 O7        -4.4761    3.8981    3.3922 O.2       1 RES1    0.0000
      8 N1         1.2189    6.0656    4.2870 N.2       1 RES1    0.0000
      9 N2         2.5295    5.4264    6.0440 N.2       1 RES1    0.0000
     10 N3         1.1763    3.7164    6.9698 N.am      1 RES1    0.0000
     11 H1         0.4353    3.6610    7.2865 H         1 RES1    0.0000
     12 N4         1.6919    1.8179    8.2345 N.am      1 RES1    0.0000
     13 H2         2.2206    1.2105    8.4138 H         1 RES1    0.0000
     14 N5         0.5063    1.6943    8.9076 N.pl3     1 RES1    0.0000
     15 N6        -0.6081    4.6248    4.5183 N.am      1 RES1    0.0000
     16 H3        -0.7861    4.5736    3.6757 H         1 RES1    0.0000
     17 N7        -2.8586    4.0385    4.8694 N.am      1 RES1    0.0000
     18 H4        -3.5314    3.8133    5.4594 H         1 RES1    0.0000
     19 N8        -3.2707    4.0091    3.5627 N.pl3     1 RES1    0.0000
     20 C1         1.4357    4.7220    6.0486 C.2       1 RES1    0.0000
     21 C2         0.6130    5.1305    4.9526 C.2       1 RES1    0.0000
     22 C3         2.0879    2.7860    7.3125 C.2       1 RES1    0.0000
     23 C4        -1.6105    4.3669    5.3869 C.2       1 RES1    0.0000
@<TRIPOS>BOND
     1    1    8 1
     2    2   22 2
     3    3   14 2
     4    4   14 2
     5    5   23 2
     6    6   19 2
     7    7   19 2
     8    8   21 2
     9    9    1 1
    10   10   11 1
    11   12   13 1
    12   14   12 1
    13   15   16 1
    14   17   18 1
    15   19   17 1
    16   20    9 2
    17   21   15 1
    18   22   10 1
    19   23   15 1
    20   10   20 1
    21   12   22 1
    22   17   23 1
    23   20   21 1
@<TRIPOS>SUBSTRUCTURE
     1 RES1 1

@<TRIPOS>CRYSIN
   7.8096    8.0528    8.1807 110.7460  92.5030  93.2900   2 1

