# MOL2 file generated by ConQuest
# Please check atom types

@<TRIPOS>MOLECULE
GIDDUV
    20    20     1
SMALL
NO_CHARGES
****
Generated from CSD

@<TRIPOS>ATOM
      1 O1         8.2442    2.4049   17.7770 O.3       1 RES1    0.0000
      2 O2         9.3623    3.8015   16.3873 O.2       1 RES1    0.0000
      3 O3         8.1546    3.6607   12.4128 O.3       1 RES1    0.0000
      4 O4         5.2178    1.3331   14.6140 O.2       1 RES1    0.0000
      5 N1         7.6704    2.4424   15.6472 N.am      1 RES1    0.0000
      6 O5         5.1795    0.9620   12.4558 O.2       1 RES1    0.0000
      7 N2         7.0660    2.8599   12.1764 N.2       1 RES1    0.0000
      8 C1         6.7927    2.3545   13.3285 C.2       1 RES1    0.0000
      9 N3         8.5316    3.6290   13.7728 N.2       1 RES1    0.0000
     10 N4         5.6342    1.4780   13.4702 N.pl3     1 RES1    0.0000
     11 C2         7.6846    2.8127   14.3369 C.2       1 RES1    0.0000
     12 C3         8.5120    2.9649   16.6057 C.2       1 RES1    0.0000
     13 C4         9.0016    2.8761   18.9248 C.3       1 RES1    0.0000
     14 H1         8.4311    2.8444   19.7304 H         1 RES1    0.0000
     15 H2         9.2716    3.8170   18.7783 H         1 RES1    0.0000
     16 C5        10.2082    2.0428   19.1426 C.3       1 RES1    0.0000
     17 H3         9.9394    1.0987   19.2703 H         1 RES1    0.0000
     18 H4        10.6881    2.3602   19.9444 H         1 RES1    0.0000
     19 H5        10.8017    2.1079   18.3558 H         1 RES1    0.0000
     20 H6         7.1917    1.7254   15.8677 H         1 RES1    0.0000
@<TRIPOS>BOND
     1    1   12 1
     2    2   12 2
     3    3    7 1
     4    4   10 2
     5    5   11 1
     6    6   10 2
     7    7    8 2
     8    8   10 1
     9    9    3 1
    10   11    8 1
    11   12    5 1
    12   13    1 1
    13   14   13 1
    14   15   13 1
    15   16   13 1
    16   17   16 1
    17   18   16 1
    18   19   16 1
    19   20    5 1
    20    9   11 2
@<TRIPOS>SUBSTRUCTURE
     1 RES1 1

@<TRIPOS>CRYSIN
  10.9296    8.1385   18.7783  90.0000  90.0000  90.0000  61 1

