# MOL2 file generated by ConQuest
# Please check atom types

@<TRIPOS>MOLECULE
GIFKUD
    43    44     2
SMALL
NO_CHARGES
****
Generated from CSD

@<TRIPOS>ATOM
      1 C1         5.5765   -1.9235   -0.5368 C.3       1 RES1    0.0000
      2 C2         5.4832   -3.4181   -0.7918 C.2       1 RES1    0.0000
      3 C3         4.8432   -3.7950   -1.9617 C.2       1 RES1    0.0000
      4 C4         6.0393   -4.3414    0.1292 C.3       1 RES1    0.0000
      5 C5         6.7525   -1.3075   -1.2788 C.3       1 RES1    0.0000
      6 O1         6.8157    0.1130   -1.1043 O.3       1 RES1    0.0000
      7 N1         5.6370   -1.5728    0.8823 N.am      1 RES1    0.0000
      8 C6         4.5467   -1.3248    1.6157 C.2       1 RES1    0.0000
      9 O2         3.4431   -1.2784    1.0791 O.2       1 RES1    0.0000
     10 O3         6.8511   -1.8052    1.5420 O.3       1 RES1    0.0000
     11 C7         5.6858    1.1288    2.7287 C.ar      1 RES1    0.0000
     12 C8         6.2581    2.2742    3.2809 C.ar      1 RES1    0.0000
     13 C9         6.3977    2.3977    4.6561 C.ar      1 RES1    0.0000
     14 C10        5.9958    1.4314    5.5009 C.ar      1 RES1    0.0000
     15 C11        5.4185    0.2235    4.9991 C.ar      1 RES1    0.0000
     16 C12        3.9274   -2.9392    6.2357 C.ar      1 RES1    0.0000
     17 C13        3.3882   -4.0769    5.7466 C.ar      1 RES1    0.0000
     18 C14        3.2842   -4.2840    4.3842 C.ar      1 RES1    0.0000
     19 C15        3.7147   -3.3402    3.5090 C.ar      1 RES1    0.0000
     20 C16        4.7396   -1.1144    3.0828 C.ar      1 RES1    0.0000
     21 C17        5.2870    0.0729    3.5798 C.ar      1 RES1    0.0000
     22 C18        4.9647   -0.7629    5.8595 C.ar      1 RES1    0.0000
     23 C19        4.4095   -1.9101    5.3551 C.ar      1 RES1    0.0000
     24 H1         4.6887   -1.4929   -0.8254 H         1 RES1    0.0000
     25 H2         4.3819   -3.1602   -2.2591 H         1 RES1    0.0000
     26 H3         4.4527   -4.3623   -1.8898 H         1 RES1    0.0000
     27 H4         5.8530   -4.0521    1.0209 H         1 RES1    0.0000
     28 H5         5.6328   -5.1960   -0.0217 H         1 RES1    0.0000
     29 H6         7.0724   -4.4011    0.0652 H         1 RES1    0.0000
     30 H7         7.6703   -1.7255   -0.7385 H         1 RES1    0.0000
     31 H8         6.6083   -1.6092   -2.3025 H         1 RES1    0.0000
     32 H9         5.6957    0.5041   -1.2382 H         1 RES1    0.0000
     33 H10        7.6231   -0.9888    1.2599 H         1 RES1    0.0000
     34 H11        5.6170    0.9888    1.7378 H         1 RES1    0.0000
     35 H12        6.5453    2.9858    2.6935 H         1 RES1    0.0000
     36 H13        6.7814    3.1990    5.0395 H         1 RES1    0.0000
     37 H14        6.0812    1.5317    6.3428 H         1 RES1    0.0000
     38 H15        3.9335   -2.7531    7.1248 H         1 RES1    0.0000
     39 H16        3.0603   -4.6919    6.4080 H         1 RES1    0.0000
     40 H17        2.8243   -5.2348    4.0837 H         1 RES1    0.0000
     41 H18        5.0506   -0.6030    6.8663 H         1 RES1    0.0000
     42 C20        4.2855   -2.1102    3.9682 C.ar      1 RES1    0.0000
     43 H19        3.7132   -3.3347    3.5081 Du        2 SUP2    0.0000
@<TRIPOS>BOND
     1    1    2 1
     2    2    3 2
     3    3   25 1
     4    4    2 1
     5    5    1 1
     6    6    5 1
     7    7    1 1
     8    8    7 1
     9    9    8 2
    10   10    7 1
    11   11   12 ar
    12   12   13 ar
    13   13   14 ar
    14   14   15 ar
    15   15   21 ar
    16   16   17 ar
    17   17   18 ar
    18   18   19 ar
    19   19   42 ar
    20   20    8 1
    21   21   11 ar
    22   22   15 ar
    23   23   16 ar
    24   24    1 1
    25   26    3 1
    26   27    4 1
    27   28    4 1
    28   29    4 1
    29   30    5 1
    30   31    5 1
    31   32    6 1
    32   33   10 1
    33   34   11 1
    34   35   12 1
    35   36   13 1
    36   37   14 1
    37   38   16 1
    38   39   17 1
    39   40   18 1
    40   41   22 1
    41   42   20 ar
    42   20   21 ar
    43   22   23 ar
    44   23   42 ar
@<TRIPOS>SUBSTRUCTURE
     1 RES1 1
     2 SUP2 43

@<TRIPOS>CRYSIN
   7.8670   19.3880   21.7220  90.0000  90.0000  90.0000  61 1

