# MOL2 file generated by ConQuest
# Please check atom types

@<TRIPOS>MOLECULE
GIGQUI
    21    21     1
SMALL
NO_CHARGES
****
Generated from CSD

@<TRIPOS>ATOM
      1 C1         1.8451    0.4838    6.8443 C.ar      1 RES1    0.0000
      2 C2         2.9672    0.6305    7.6505 C.ar      1 RES1    0.0000
      3 C3         3.3796    1.8682    8.1472 C.ar      1 RES1    0.0000
      4 C4         2.5994    2.9613    7.8367 C.ar      1 RES1    0.0000
      5 C5         1.4547    2.8801    7.0520 C.ar      1 RES1    0.0000
      6 C6         1.1083    1.6244    6.5622 C.ar      1 RES1    0.0000
      7 O1         1.4717   -0.7529    6.4515 O.3       1 RES1    0.0000
      8 C7         1.7766   -1.1122    5.1007 C.3       1 RES1    0.0000
      9 O2         4.5332    1.9631    8.8329 O.3       1 RES1    0.0000
     10 C8         4.4536    2.1667   10.2445 C.3       1 RES1    0.0000
     11 O3         0.7879    4.0028    6.7572 O.3       1 RES1    0.0000
     12 C9        -0.4891    4.1842    7.3547 C.3       1 RES1    0.0000
     13 N1         3.7192   -0.5566    8.0296 N.pl3     1 RES1    0.0000
     14 O4         3.6929   -0.8660    9.2051 O.2       1 RES1    0.0000
     15 O5         4.3213   -1.1456    7.1696 O.2       1 RES1    0.0000
     16 N2         3.0012    4.2983    8.3069 N.pl3     1 RES1    0.0000
     17 O6         2.4500    4.7379    9.2600 O.2       1 RES1    0.0000
     18 O7         3.8630    4.8652    7.6995 O.2       1 RES1    0.0000
     19 N3        -0.0785    1.5010    5.7110 N.pl3     1 RES1    0.0000
     20 O8        -0.9986    0.8366    6.1175 O.2       1 RES1    0.0000
     21 O9        -0.0480    2.0849    4.6550 O.2       1 RES1    0.0000
@<TRIPOS>BOND
     1    1    2 ar
     2    2    3 ar
     3    3    4 ar
     4    4    5 ar
     5    5    6 ar
     6    6    1 ar
     7    7    1 1
     8    8    7 1
     9    9    3 1
    10   10    9 1
    11   11    5 1
    12   12   11 1
    13   13    2 1
    14   14   13 2
    15   15   13 2
    16   16    4 1
    17   17   16 2
    18   18   16 2
    19   19    6 1
    20   20   19 2
    21   21   19 2
@<TRIPOS>SUBSTRUCTURE
     1 RES1 1

@<TRIPOS>CRYSIN
   7.5070    9.2180   10.4260 108.5800  90.2400 110.7700   2 1

