# MOL2 file generated by ConQuest
# Please check atom types

@<TRIPOS>MOLECULE
GIGZOM
    33    34     1
SMALL
NO_CHARGES
****
Generated from CSD

@<TRIPOS>ATOM
      1 O1         1.4066    7.2343   -0.8122 O.3       1 RES1    0.0000
      2 N1         0.9147    6.1576   -0.0391 N.2       1 RES1    0.0000
      3 N2         1.8866    3.3919   -3.4028 N.1       1 RES1    0.0000
      4 C1         1.7217    5.1729    0.0279 C.2       1 RES1    0.0000
      5 C2         3.0662    5.1037   -0.6279 C.3       1 RES1    0.0000
      6 C3         3.3579    3.7239   -1.2503 C.3       1 RES1    0.0000
      7 C4         3.0197    2.5982   -0.2522 C.3       1 RES1    0.0000
      8 C5         1.5709    2.6576    0.2287 C.3       1 RES1    0.0000
      9 C6         1.3211    4.0212    0.9012 C.3       1 RES1    0.0000
     10 C7         4.8357    3.6673   -1.6618 C.3       1 RES1    0.0000
     11 C8         1.1778    1.5489    1.1869 C.ar      1 RES1    0.0000
     12 C9         2.0721    0.9830    2.0795 C.ar      1 RES1    0.0000
     13 C10        1.6499    0.0273    3.0002 C.ar      1 RES1    0.0000
     14 C11        0.3323   -0.3693    3.0417 C.ar      1 RES1    0.0000
     15 C12       -0.5615    0.1804    2.1579 C.ar      1 RES1    0.0000
     16 C13       -0.1429    1.1228    1.2332 C.ar      1 RES1    0.0000
     17 C14        2.5213    3.5487   -2.4658 C.1       1 RES1    0.0000
     18 H1         0.7049    7.8917   -0.6761 H         1 RES1    0.0000
     19 H2         3.7499    5.3043    0.0304 H         1 RES1    0.0000
     20 H3         3.1151    5.7799   -1.3216 H         1 RES1    0.0000
     21 H4         3.1783    1.7402   -0.6759 H         1 RES1    0.0000
     22 H5         3.6110    2.6651    0.5138 H         1 RES1    0.0000
     23 H6         0.9890    2.5975   -0.5575 H         1 RES1    0.0000
     24 H7         0.3791    4.1003    1.1188 H         1 RES1    0.0000
     25 H8         1.8222    4.0626    1.7308 H         1 RES1    0.0000
     26 H9         5.0244    2.8148   -2.0608 H         1 RES1    0.0000
     27 H10        5.3886    3.7871   -0.8863 H         1 RES1    0.0000
     28 H11        5.0183    4.3647   -2.2958 H         1 RES1    0.0000
     29 H12        2.9646    1.2442    2.0642 H         1 RES1    0.0000
     30 H13        2.2632   -0.3461    3.5914 H         1 RES1    0.0000
     31 H14        0.0509   -1.0026    3.6619 H         1 RES1    0.0000
     32 H15       -1.4537   -0.0814    2.1797 H         1 RES1    0.0000
     33 H16       -0.7583    1.4770    0.6322 H         1 RES1    0.0000
@<TRIPOS>BOND
     1    1    2 1
     2    2    4 2
     3    3   17 3
     4    4    5 1
     5    5    6 1
     6    6    7 1
     7    7    8 1
     8    8    9 1
     9    9    4 1
    10   10    6 1
    11   11    8 1
    12   12   11 ar
    13   13   12 ar
    14   14   13 ar
    15   15   14 ar
    16   16   11 ar
    17   17    6 1
    18   18    1 1
    19   19    5 1
    20   20    5 1
    21   21    7 1
    22   22    7 1
    23   23    8 1
    24   24    9 1
    25   25    9 1
    26   26   10 1
    27   27   10 1
    28   28   10 1
    29   29   12 1
    30   30   13 1
    31   31   14 1
    32   32   15 1
    33   33   16 1
    34   15   16 ar
@<TRIPOS>SUBSTRUCTURE
     1 RES1 1

@<TRIPOS>CRYSIN
   6.6394   14.6658   12.6653  90.0000  95.1460  90.0000 231 1

