# MOL2 file generated by ConQuest
# Please check atom types

@<TRIPOS>MOLECULE
GIHSOF
    48    51     1
SMALL
NO_CHARGES
****
Generated from CSD

@<TRIPOS>ATOM
      1 N1         4.3655   15.5620    3.5054 N.am      1 RES1    0.0000
      2 N2         4.2580   14.5580    4.4494 N.am      1 RES1    0.0000
      3 C1         3.1390   13.6647    4.2141 C.3       1 RES1    0.0000
      4 C2         1.8811   14.4024    3.9417 C.2       1 RES1    0.0000
      5 C3         1.7102   14.9492    2.7176 C.2       1 RES1    0.0000
      6 C4         2.8270   14.6522    1.7565 C.3       1 RES1    0.0000
      7 C5         4.1025   15.4229    2.0594 C.3       1 RES1    0.0000
      8 C6         4.0036   16.9713    2.0223 C.3       1 RES1    0.0000
      9 C7         4.0966   16.9030    3.5616 C.2       1 RES1    0.0000
     10 O1         3.4744   12.7409    3.1291 O.3       1 RES1    0.0000
     11 N3         3.1083   13.2099    1.8222 N.am      1 RES1    0.0000
     12 C8         5.4486   14.1762    5.0476 C.2       1 RES1    0.0000
     13 O2         6.4346   14.8502    5.0533 O.2       1 RES1    0.0000
     14 O3         5.3269   12.9765    5.6306 O.3       1 RES1    0.0000
     15 C9         6.4948   12.5570    6.4012 C.3       1 RES1    0.0000
     16 C10        6.2493   11.1830    6.9032 C.3       1 RES1    0.0000
     17 C11        0.4927   15.6963    2.2842 C.3       1 RES1    0.0000
     18 C12        5.1186   17.6972    1.3202 C.3       1 RES1    0.0000
     19 O4         4.0404   17.6736    4.4770 O.2       1 RES1    0.0000
     20 C13        2.3709   12.3496    1.0545 C.2       1 RES1    0.0000
     21 O5         1.6941   12.7762    0.1343 O.2       1 RES1    0.0000
     22 C14        2.4997   10.8790    1.3136 C.ar      1 RES1    0.0000
     23 C15        3.6938   10.3110    1.7194 C.ar      1 RES1    0.0000
     24 C16        3.8083    8.9582    1.8842 C.ar      1 RES1    0.0000
     25 C17        2.7229    8.1663    1.6965 C.ar      1 RES1    0.0000
     26 C18        1.4854    8.7013    1.3441 C.ar      1 RES1    0.0000
     27 C19        1.4034   10.0706    1.0364 C.ar      1 RES1    0.0000
     28 H1         2.9976   13.0284    4.9943 H         1 RES1    0.0000
     29 H2         1.2011   14.4778    4.6028 H         1 RES1    0.0000
     30 H3         2.4680   14.9233    0.8392 H         1 RES1    0.0000
     31 H4         4.8884   15.0788    1.6603 H         1 RES1    0.0000
     32 H5         3.0927   17.2141    1.8118 H         1 RES1    0.0000
     33 H6         6.6434   13.2759    7.1204 H         1 RES1    0.0000
     34 H7         7.3393   12.5971    5.7954 H         1 RES1    0.0000
     35 H8         6.0203   10.5278    6.2383 H         1 RES1    0.0000
     36 H9         5.3813   11.1500    7.5033 H         1 RES1    0.0000
     37 H10        7.0896   10.8908    7.2585 H         1 RES1    0.0000
     38 H11       -0.0923   15.8448    2.9844 H         1 RES1    0.0000
     39 H12        0.6172   16.5730    1.8918 H         1 RES1    0.0000
     40 H13        0.0624   15.1943    1.5298 H         1 RES1    0.0000
     41 H14        5.0293   18.6682    1.5022 H         1 RES1    0.0000
     42 H15        5.1232   17.5157    0.2562 H         1 RES1    0.0000
     43 H16        6.0288   17.5016    1.6527 H         1 RES1    0.0000
     44 H17        4.4606   10.8908    1.8403 H         1 RES1    0.0000
     45 H18        4.6830    8.5128    2.1299 H         1 RES1    0.0000
     46 H19        2.6508    7.2542    1.8861 H         1 RES1    0.0000
     47 H20        0.7838    8.2205    1.2183 H         1 RES1    0.0000
     48 H21        0.6398   10.5113    0.6039 H         1 RES1    0.0000
@<TRIPOS>BOND
     1    1    2 1
     2    2    3 1
     3    3    4 1
     4    4    5 2
     5    5    6 1
     6    6    7 1
     7    7    1 1
     8    8    7 1
     9    9    1 1
    10   10    3 1
    11   11    6 1
    12   12    2 1
    13   13   12 2
    14   14   12 1
    15   15   14 1
    16   16   15 1
    17   17    5 1
    18   18    8 1
    19   19    9 2
    20   20   11 1
    21   21   20 2
    22   22   20 1
    23   23   22 ar
    24   24   23 ar
    25   25   24 ar
    26   26   25 ar
    27   27   22 ar
    28   28    3 1
    29   29    4 1
    30   30    6 1
    31   31    7 1
    32   32    8 1
    33   33   15 1
    34   34   15 1
    35   35   16 1
    36   36   16 1
    37   37   16 1
    38   38   17 1
    39   39   17 1
    40   40   17 1
    41   41   18 1
    42   42   18 1
    43   43   18 1
    44   44   23 1
    45   45   24 1
    46   46   25 1
    47   47   26 1
    48   48   27 1
    49    8    9 1
    50   10   11 1
    51   26   27 ar
@<TRIPOS>SUBSTRUCTURE
     1 RES1 1

@<TRIPOS>CRYSIN
   8.1700   23.5680    9.9640  90.0000 107.0600  90.0000 231 1

