# MOL2 file generated by ConQuest
# Please check atom types

@<TRIPOS>MOLECULE
GIHSUL
    48    51     1
SMALL
NO_CHARGES
****
Generated from CSD

@<TRIPOS>ATOM
      1 N1         2.1728    0.0925    2.6647 N.am      1 RES1    0.0000
      2 N2         2.1743   -0.4974    3.9275 N.am      1 RES1    0.0000
      3 C1         1.0584   -0.1763    4.8021 C.3       1 RES1    0.0000
      4 H1         0.8682   -0.8611    5.4029 H         1 RES1    0.0000
      5 C2        -0.2252    0.0204    4.0174 C.2       1 RES1    0.0000
      6 H2        -0.9762   -0.6051    4.1809 H         1 RES1    0.0000
      7 C3        -0.3778    1.1758    3.3676 C.2       1 RES1    0.0000
      8 C4         0.8081    2.0456    3.3186 C.3       1 RES1    0.0000
      9 H3         0.7897    2.6530    3.1020 H         1 RES1    0.0000
     10 C5         1.9236    1.5290    2.3949 C.3       1 RES1    0.0000
     11 H4         2.8124    1.9956    2.5053 H         1 RES1    0.0000
     12 C6         1.5564    1.0740    0.9604 C.3       1 RES1    0.0000
     13 H5         0.7895    1.2800    0.7234 H         1 RES1    0.0000
     14 C7         1.6104   -0.3758    1.4917 C.2       1 RES1    0.0000
     15 N3         1.3230    1.1048    5.5255 N.am      1 RES1    0.0000
     16 O1         1.5049    2.1800    4.6346 O.3       1 RES1    0.0000
     17 C8         3.3841   -1.0693    4.3076 C.2       1 RES1    0.0000
     18 O2         4.2922   -1.2811    3.5720 O.2       1 RES1    0.0000
     19 O3         3.3319   -1.3672    5.6236 O.3       1 RES1    0.0000
     20 C9         4.4264   -2.1876    6.0813 C.3       1 RES1    0.0000
     21 H6         5.3164   -1.5825    6.1671 H         1 RES1    0.0000
     22 H7         4.5966   -2.9817    5.3702 H         1 RES1    0.0000
     23 C10        4.1407   -2.7065    7.2624 C.3       1 RES1    0.0000
     24 H8         4.9675   -3.3029    7.6221 H         1 RES1    0.0000
     25 H9         3.2117   -3.1359    7.6098 H         1 RES1    0.0000
     26 H10        4.2343   -1.6989    7.6425 H         1 RES1    0.0000
     27 C11       -1.6497    1.5872    2.6851 C.3       1 RES1    0.0000
     28 H11       -1.4270    2.5681    2.2928 H         1 RES1    0.0000
     29 H12       -2.4726    1.6558    3.3799 H         1 RES1    0.0000
     30 H13       -1.9193    0.9280    1.8718 H         1 RES1    0.0000
     31 C12        2.4974    1.4632   -0.1471 C.3       1 RES1    0.0000
     32 H14        2.2602    0.9536   -1.0667 H         1 RES1    0.0000
     33 H15        3.4880    1.1805    0.1798 H         1 RES1    0.0000
     34 H16        2.4615    2.5308   -0.3065 H         1 RES1    0.0000
     35 O4         1.3549   -1.4632    1.0871 O.2       1 RES1    0.0000
     36 C13        0.4141    1.4702    6.5431 C.2       1 RES1    0.0000
     37 O5        -0.1295    2.5593    6.5922 O.2       1 RES1    0.0000
     38 C14        0.2985    0.4643    7.6548 C.ar      1 RES1    0.0000
     39 C15        1.3121   -0.3433    8.0594 C.ar      1 RES1    0.0000
     40 H17        2.2595   -0.2961    7.5404 H         1 RES1    0.0000
     41 C16        1.1651   -1.2323    9.1220 C.ar      1 RES1    0.0000
     42 H18        1.9747   -1.9007    9.4203 H         1 RES1    0.0000
     43 C17       -0.0601   -1.2544    9.7963 C.ar      1 RES1    0.0000
     44 H19       -0.1977   -1.9083   10.6423 H         1 RES1    0.0000
     45 C18       -1.0521   -0.4753    9.3917 C.ar      1 RES1    0.0000
     46 H20       -2.0061   -0.5382    9.8944 H         1 RES1    0.0000
     47 C19       -0.8979    0.4096    8.3536 C.ar      1 RES1    0.0000
     48 H21       -1.7119    1.0653    8.0798 H         1 RES1    0.0000
@<TRIPOS>BOND
     1    1    2 1
     2    2    3 1
     3    3    4 1
     4    5    3 1
     5    6    5 1
     6    7    5 2
     7    8    7 1
     8    9    8 1
     9   10    1 1
    10   11   10 1
    11   12   10 1
    12   13   12 1
    13   14    1 1
    14   15    3 1
    15   16    8 1
    16   17    2 1
    17   18   17 2
    18   19   17 1
    19   20   19 1
    20   21   20 1
    21   22   20 1
    22   23   20 1
    23   24   23 1
    24   25   23 1
    25   26   23 1
    26   27    7 1
    27   28   27 1
    28   29   27 1
    29   30   27 1
    30   31   12 1
    31   32   31 1
    32   33   31 1
    33   34   31 1
    34   35   14 2
    35   36   15 1
    36   37   36 2
    37   38   36 1
    38   39   38 ar
    39   40   39 1
    40   41   39 ar
    41   42   41 1
    42   43   41 ar
    43   44   43 1
    44   45   43 ar
    45   46   45 1
    46   47   38 ar
    47   48   47 1
    48    8   10 1
    49   12   14 1
    50   15   16 1
    51   45   47 ar
@<TRIPOS>SUBSTRUCTURE
     1 RES1 1

@<TRIPOS>CRYSIN
   7.7290    5.8180   40.8790  90.0000  91.2600  90.0000 231 1

