# MOL2 file generated by ConQuest
# Please check atom types

@<TRIPOS>MOLECULE
GIHTAS
    52    54     1
SMALL
NO_CHARGES
****
Generated from CSD

@<TRIPOS>ATOM
      1 C1         6.8021    7.0165    1.3782 C.3       1 RES1    0.0000
      2 C2         5.3983    6.6535    1.3645 C.3       1 RES1    0.0000
      3 O1         4.9963    6.2749    2.7131 O.3       1 RES1    0.0000
      4 C3         3.8818    5.5587    2.8318 C.2       1 RES1    0.0000
      5 O2         3.1503    5.2439    1.9275 O.2       1 RES1    0.0000
      6 N1         3.6708    5.2423    4.1255 N.am      1 RES1    0.0000
      7 N2         2.5553    4.4825    4.4350 N.am      1 RES1    0.0000
      8 C4         2.3346    3.2038    4.0353 C.2       1 RES1    0.0000
      9 O3         3.1011    2.3190    3.7396 O.2       1 RES1    0.0000
     10 C5         0.8368    3.3951    4.0456 C.3       1 RES1    0.0000
     11 C6         0.1598    3.0890    2.7245 C.3       1 RES1    0.0000
     12 C7         1.1353    4.8841    4.3562 C.3       1 RES1    0.0000
     13 C8         0.5203    5.4221    5.6282 C.3       1 RES1    0.0000
     14 O4        -0.8803    5.4889    5.2663 O.3       1 RES1    0.0000
     15 N3        -1.7841    6.1864    6.0724 N.2       1 RES1    0.0000
     16 C9        -1.3062    6.8992    7.0144 C.2       1 RES1    0.0000
     17 C10        0.1412    7.1236    7.3467 C.3       1 RES1    0.0000
     18 C11        1.0150    6.7761    6.1409 C.3       1 RES1    0.0000
     19 O5         2.3796    6.6865    6.5143 O.3       1 RES1    0.0000
     20 C12        0.9070    7.8633    5.0984 C.3       1 RES1    0.0000
     21 O6         0.5175    6.2523    8.4349 O.3       1 RES1    0.0000
     22 C13        0.1414    6.6504    9.6864 C.2       1 RES1    0.0000
     23 O7        -0.5084    7.6578    9.8474 O.2       1 RES1    0.0000
     24 C14        0.6026    5.7433   10.7472 C.ar      1 RES1    0.0000
     25 C15        0.4087    6.1233   12.0797 C.ar      1 RES1    0.0000
     26 C16        0.8705    5.3263   13.0869 C.ar      1 RES1    0.0000
     27 C17        1.5071    4.1252   12.8082 C.ar      1 RES1    0.0000
     28 C18        1.6838    3.7446   11.5202 C.ar      1 RES1    0.0000
     29 C19        1.2539    4.5439   10.4914 C.ar      1 RES1    0.0000
     30 H1         7.0787    7.3765    0.4944 H         1 RES1    0.0000
     31 H2         7.4126    6.2541    1.6077 H         1 RES1    0.0000
     32 H3         7.0467    7.5661    2.2426 H         1 RES1    0.0000
     33 H4         4.8334    7.2969    1.0996 H         1 RES1    0.0000
     34 H5         5.1838    5.9069    0.7890 H         1 RES1    0.0000
     35 H6         4.1172    5.6242    4.7456 H         1 RES1    0.0000
     36 H7         0.4383    3.0244    4.7855 H         1 RES1    0.0000
     37 H8        -0.8065    3.3252    2.8318 H         1 RES1    0.0000
     38 H9         0.6693    3.5951    2.0428 H         1 RES1    0.0000
     39 H10        0.2373    2.1050    2.6206 H         1 RES1    0.0000
     40 H11        0.9368    5.4014    3.6288 H         1 RES1    0.0000
     41 H12        0.5908    4.7976    6.3350 H         1 RES1    0.0000
     42 H13       -1.9901    7.3794    7.5066 H         1 RES1    0.0000
     43 H14        0.2706    8.0658    7.5831 H         1 RES1    0.0000
     44 H15        2.5093    5.9820    7.0065 H         1 RES1    0.0000
     45 H16        1.0470    8.6977    5.5255 H         1 RES1    0.0000
     46 H17       -0.0430    7.9022    4.6873 H         1 RES1    0.0000
     47 H18        1.5546    7.7304    4.4042 H         1 RES1    0.0000
     48 H19       -0.0824    6.9780   12.1300 H         1 RES1    0.0000
     49 H20        0.7718    5.5457   13.9398 H         1 RES1    0.0000
     50 H21        1.7534    3.6219   13.6315 H         1 RES1    0.0000
     51 H22        2.1348    2.7786   11.2816 H         1 RES1    0.0000
     52 H23        1.4011    4.3010    9.6327 H         1 RES1    0.0000
@<TRIPOS>BOND
     1    1    2 1
     2    2    3 1
     3    3    4 1
     4    4    5 2
     5    6    4 1
     6    7    6 1
     7    8    7 1
     8    9    8 2
     9   10    8 1
    10   11   10 1
    11   12    7 1
    12   13   12 1
    13   14   13 1
    14   15   14 1
    15   16   15 2
    16   17   16 1
    17   18   13 1
    18   19   18 1
    19   20   18 1
    20   21   17 1
    21   22   21 1
    22   23   22 2
    23   24   22 1
    24   25   24 ar
    25   26   25 ar
    26   27   26 ar
    27   28   27 ar
    28   29   24 ar
    29   30    1 1
    30   31    1 1
    31   32    1 1
    32   33    2 1
    33   34    2 1
    34   35    6 1
    35   36   10 1
    36   37   11 1
    37   38   11 1
    38   39   11 1
    39   40   12 1
    40   41   13 1
    41   42   16 1
    42   43   17 1
    43   44   19 1
    44   45   20 1
    45   46   20 1
    46   47   20 1
    47   48   25 1
    48   49   26 1
    49   50   27 1
    50   51   28 1
    51   52   29 1
    52   10   12 1
    53   17   18 1
    54   28   29 ar
@<TRIPOS>SUBSTRUCTURE
     1 RES1 1

@<TRIPOS>CRYSIN
   7.7370   11.2920   12.3880 112.2400  92.7500  95.4700   2 1

