# MOL2 file generated by ConQuest
# Please check atom types

@<TRIPOS>MOLECULE
GIJLIU
    35    37     1
SMALL
NO_CHARGES
****
Generated from CSD

@<TRIPOS>ATOM
      1 O1         1.0160    7.4942    4.1417 O.3       1 RES1    0.0000
      2 N1         2.4777    7.3073    4.4960 N.3       1 RES1    0.0000
      3 C1         1.7139    8.4678    4.8993 C.3       1 RES1    0.0000
      4 C2         1.3241    8.4825    6.3656 C.ar      1 RES1    0.0000
      5 C3         1.3270    7.2926    7.0937 C.ar      1 RES1    0.0000
      6 C4         0.8942    7.2726    8.4129 C.ar      1 RES1    0.0000
      7 C5         0.4471    8.4226    9.0151 C.ar      1 RES1    0.0000
      8 C6         0.4414    9.6041    8.3102 C.ar      1 RES1    0.0000
      9 C7         0.8799    9.6345    6.9817 C.ar      1 RES1    0.0000
     10 C8         1.9102    9.7931    4.2305 C.ar      1 RES1    0.0000
     11 C9         2.8832   10.6658    4.6930 C.ar      1 RES1    0.0000
     12 C10        3.0838   11.8851    4.0677 C.ar      1 RES1    0.0000
     13 C11        2.3129   12.2474    2.9908 C.ar      1 RES1    0.0000
     14 C12        1.3298   11.4094    2.5348 C.ar      1 RES1    0.0000
     15 C13        1.1235   10.1743    3.1537 C.ar      1 RES1    0.0000
     16 C14        3.2744    7.4018    3.2480 C.3       1 RES1    0.0000
     17 C15        4.7045    7.6255    3.6995 C.3       1 RES1    0.0000
     18 C16        3.0867    6.1174    2.4765 C.3       1 RES1    0.0000
     19 H1         1.6336    6.4797    6.5312 H         1 RES1    0.0000
     20 H2         0.9315    6.4062    8.9087 H         1 RES1    0.0000
     21 H3         0.1576    8.4436   10.0281 H         1 RES1    0.0000
     22 H4         0.2293   10.4600    8.8162 H         1 RES1    0.0000
     23 H5         0.8741   10.4495    6.5220 H         1 RES1    0.0000
     24 H6         0.4729    9.5043    2.9233 H         1 RES1    0.0000
     25 H7         0.8885   11.6152    1.6097 H         1 RES1    0.0000
     26 H8         2.4361   13.0960    2.4793 H         1 RES1    0.0000
     27 H9         3.8691   12.4974    4.3110 H         1 RES1    0.0000
     28 H10        3.3676   10.4285    5.5321 H         1 RES1    0.0000
     29 H11        3.0523    8.2546    2.6365 H         1 RES1    0.0000
     30 H12        3.4392    5.3455    3.1638 H         1 RES1    0.0000
     31 H13        2.0779    6.0492    2.2942 H         1 RES1    0.0000
     32 H14        3.6971    6.0597    1.7947 H         1 RES1    0.0000
     33 H15        4.8722    6.9523    4.1444 H         1 RES1    0.0000
     34 H16        5.3881    7.7610    3.1268 H         1 RES1    0.0000
     35 H17        4.9152    8.6011    4.2277 H         1 RES1    0.0000
@<TRIPOS>BOND
     1    1    2 1
     2    2    3 1
     3    3    1 1
     4    4    3 1
     5    5    4 ar
     6    6    5 ar
     7    7    6 ar
     8    8    7 ar
     9    9    4 ar
    10   10    3 1
    11   11   10 ar
    12   12   11 ar
    13   13   12 ar
    14   14   13 ar
    15   15   10 ar
    16   16    2 1
    17   17   16 1
    18   18   16 1
    19   19    5 1
    20   20    6 1
    21   21    7 1
    22   22    8 1
    23   23    9 1
    24   24   15 1
    25   25   14 1
    26   26   13 1
    27   27   12 1
    28   28   11 1
    29   29   16 1
    30   30   18 1
    31   31   18 1
    32   32   18 1
    33   33   17 1
    34   34   17 1
    35   35   17 1
    36    8    9 ar
    37   14   15 ar
@<TRIPOS>SUBSTRUCTURE
     1 RES1 1

@<TRIPOS>CRYSIN
  14.3300   10.5020    9.2510  90.0000  90.0000  90.0000  19 1

