# MOL2 file generated by ConQuest
# Please check atom types

@<TRIPOS>MOLECULE
GIJPEW
    52    56     1
SMALL
NO_CHARGES
****
Generated from CSD

@<TRIPOS>ATOM
      1 O1         4.9048    8.9333    6.7552 O.3       1 RES1    0.0000
      2 C1         3.3682   10.3102    7.8243 C.ar      1 RES1    0.0000
      3 N1         3.7320    9.6933    9.0598 N.pl3     1 RES1    0.0000
      4 C2         2.4451   11.3268    7.8511 C.ar      1 RES1    0.0000
      5 H1         2.0338   11.5786    8.6472 H         1 RES1    0.0000
      6 C3         3.9785    9.9268    6.6286 C.ar      1 RES1    0.0000
      7 C4         3.6419   10.5704    5.4652 C.ar      1 RES1    0.0000
      8 H2         4.0349   10.3102    4.6636 H         1 RES1    0.0000
      9 C5         2.1474   11.9606    6.6732 C.ar      1 RES1    0.0000
     10 C6         5.6154    8.3974    5.7376 C.2       1 RES1    0.0000
     11 N2         6.4298    7.3602    6.1102 N.pl3     1 RES1    0.0000
     12 N3         3.9239    8.3894    9.2587 N.2       1 RES1    0.0000
     13 C7         6.6229    6.8400    7.4369 C.3       1 RES1    0.0000
     14 H3         6.8086    5.8895    7.3722 H         1 RES1    0.0000
     15 H4         5.7957    6.9437    7.9338 H         1 RES1    0.0000
     16 C8         7.7320    7.4953    8.2073 C.ar      1 RES1    0.0000
     17 N4         1.1752   13.0462    6.6788 N.pl3     1 RES1    0.0000
     18 C9         2.7252   11.6026    5.4786 C.ar      1 RES1    0.0000
     19 H5         2.5026   12.0471    4.6926 H         1 RES1    0.0000
     20 O2         0.7165   13.4116    7.7456 O.2       1 RES1    0.0000
     21 C10        7.0588    6.9572    4.9282 C.ar      1 RES1    0.0000
     22 N5         5.6248    8.7111    4.4607 N.2       1 RES1    0.0000
     23 O3         0.8561   13.5487    5.6175 O.2       1 RES1    0.0000
     24 C11        8.9116    6.8303    8.4306 C.ar      1 RES1    0.0000
     25 H6         9.0343    5.9779    8.0800 H         1 RES1    0.0000
     26 C12        6.5523    7.7853    3.9345 C.ar      1 RES1    0.0000
     27 C13        9.9161    7.4184    9.1730 C.ar      1 RES1    0.0000
     28 H7        10.7089    6.9582    9.3294 H         1 RES1    0.0000
     29 N6         3.9004   10.4174   10.1678 N.2       1 RES1    0.0000
     30 C14        8.0076    5.9842    4.6892 C.ar      1 RES1    0.0000
     31 H8         8.3427    5.4443    5.3681 H         1 RES1    0.0000
     32 C15        4.2451    8.3501   10.5497 C.2       1 RES1    0.0000
     33 C16        7.5771    8.7831    8.7119 C.ar      1 RES1    0.0000
     34 H9         6.7914    9.2533    8.5512 H         1 RES1    0.0000
     35 C17        6.9832    7.6423    2.6316 C.ar      1 RES1    0.0000
     36 H10        6.6471    8.1759    1.9483 H         1 RES1    0.0000
     37 N7         4.2256    9.5575   11.1127 N.2       1 RES1    0.0000
     38 C18        9.7430    8.6788    9.6766 C.ar      1 RES1    0.0000
     39 H11       10.4207    9.0709   10.1790 H         1 RES1    0.0000
     40 C19        7.9298    6.6753    2.3893 C.ar      1 RES1    0.0000
     41 H12        8.2450    6.5661    1.5207 H         1 RES1    0.0000
     42 C20        8.4288    5.8632    3.3796 C.ar      1 RES1    0.0000
     43 H13        9.0639    5.2190    3.1641 H         1 RES1    0.0000
     44 C21        8.5878    9.3639    9.4488 C.ar      1 RES1    0.0000
     45 H14        8.4805   10.2230    9.7905 H         1 RES1    0.0000
     46 C22        4.5995    7.1229   11.2810 C.3       1 RES1    0.0000
     47 H15        4.4580    6.3532   10.7082 H         1 RES1    0.0000
     48 H16        4.0229    7.0309   12.0558 H         1 RES1    0.0000
     49 C23        6.0482    7.1585   11.7309 C.3       1 RES1    0.0000
     50 H17        6.2542    6.3525   12.2099 H         1 RES1    0.0000
     51 H18        6.1864    7.9160   12.3037 H         1 RES1    0.0000
     52 H19        6.6196    7.2295   10.9628 H         1 RES1    0.0000
@<TRIPOS>BOND
     1    1    6 1
     2    2    3 1
     3    3   12 1
     4    4    2 ar
     5    5    4 1
     6    6    2 ar
     7    7    6 ar
     8    8    7 1
     9    9    4 ar
    10   10    1 1
    11   11   10 1
    12   12   32 2
    13   13   11 1
    14   14   13 1
    15   15   13 1
    16   16   13 1
    17   17    9 1
    18   18    7 ar
    19   19   18 1
    20   20   17 2
    21   21   11 1
    22   22   10 2
    23   23   17 2
    24   24   16 ar
    25   25   24 1
    26   26   21 ar
    27   27   24 ar
    28   28   27 1
    29   29    3 1
    30   30   21 ar
    31   31   30 1
    32   32   37 1
    33   33   16 ar
    34   34   33 1
    35   35   26 ar
    36   36   35 1
    37   37   29 2
    38   38   27 ar
    39   39   38 1
    40   40   35 ar
    41   41   40 1
    42   42   30 ar
    43   43   42 1
    44   44   33 ar
    45   45   44 1
    46   46   32 1
    47   47   46 1
    48   48   46 1
    49   49   46 1
    50   50   49 1
    51   51   49 1
    52   52   49 1
    53    9   18 ar
    54   22   26 1
    55   38   44 ar
    56   40   42 ar
@<TRIPOS>SUBSTRUCTURE
     1 RES1 1

@<TRIPOS>CRYSIN
   9.3717   10.1520   11.3853  86.8860  79.0350  87.6530   2 1

