# MOL2 file generated by ConQuest
# Please check atom types

@<TRIPOS>MOLECULE
GIJROJ
    30    30     1
SMALL
NO_CHARGES
****
Generated from CSD

@<TRIPOS>ATOM
      1 O1         0.1955    5.4051   15.6913 O.3       1 RES1    0.0000
      2 H1        -0.1287    5.0559   14.9998 H         1 RES1    0.0000
      3 O2        -0.1402    2.8207   15.5709 O.3       1 RES1    0.0000
      4 O3         2.0430    2.3567   15.8180 O.2       1 RES1    0.0000
      5 O4         3.7961    4.7229   13.5298 O.2       1 RES1    0.0000
      6 O5         1.6553    4.3562   13.4798 O.2       1 RES1    0.0000
      7 N1         2.6883    4.6922   14.0574 N.pl3     1 RES1    0.0000
      8 C1         1.3743    4.7833   17.6628 C.ar      1 RES1    0.0000
      9 C2         1.2788    4.6263   16.1480 C.3       1 RES1    0.0000
     10 C3         0.3939    5.4812   18.3621 C.ar      1 RES1    0.0000
     11 H2        -0.3259    5.8854   17.8915 H         1 RES1    0.0000
     12 C4         2.5967    5.1060   15.5133 C.3       1 RES1    0.0000
     13 H3         3.3553    4.6827   16.0081 H         1 RES1    0.0000
     14 C5         2.7777    6.6274   15.5678 C.3       1 RES1    0.0000
     15 H4         2.7235    6.9299   16.4983 H         1 RES1    0.0000
     16 H5         3.6529    6.8658   15.1971 H         1 RES1    0.0000
     17 H6         2.0719    7.0594   15.0424 H         1 RES1    0.0000
     18 C6         2.4151    4.2047   18.3673 C.ar      1 RES1    0.0000
     19 H7         3.0854    3.7216   17.8991 H         1 RES1    0.0000
     20 C7         1.1207    3.1371   15.8149 C.2       1 RES1    0.0000
     21 C8         2.4955    4.3193   19.7591 C.ar      1 RES1    0.0000
     22 H8         3.2141    3.9202   20.2347 H         1 RES1    0.0000
     23 C9         0.4654    5.5872   19.7357 C.ar      1 RES1    0.0000
     24 H9        -0.2141    6.0536   20.2082 H         1 RES1    0.0000
     25 C10        1.5134    5.0220   20.4290 C.ar      1 RES1    0.0000
     26 H10        1.5610    5.1156   21.3740 H         1 RES1    0.0000
     27 C11       -0.3469    1.4641   15.0728 C.3       1 RES1    0.0000
     28 H11       -1.3033    1.3148   14.9200 H         1 RES1    0.0000
     29 H12        0.1412    1.3467   14.2319 H         1 RES1    0.0000
     30 H13       -0.0178    0.8200   15.7347 H         1 RES1    0.0000
@<TRIPOS>BOND
     1    1    2 1
     2    3   20 1
     3    4   20 2
     4    5    7 2
     5    6    7 2
     6    7   12 1
     7    8    9 1
     8    9    1 1
     9   10    8 ar
    10   11   10 1
    11   12    9 1
    12   13   12 1
    13   14   12 1
    14   15   14 1
    15   16   14 1
    16   17   14 1
    17   18    8 ar
    18   19   18 1
    19   20    9 1
    20   21   18 ar
    21   22   21 1
    22   23   10 ar
    23   24   23 1
    24   25   21 ar
    25   26   25 1
    26   27    3 1
    27   28   27 1
    28   29   27 1
    29   30   27 1
    30   23   25 ar
@<TRIPOS>SUBSTRUCTURE
     1 RES1 1

@<TRIPOS>CRYSIN
   5.5866    7.8505   26.0640  90.0000  90.0000  90.0000  19 1

