# MOL2 file generated by ConQuest
# Please check atom types

@<TRIPOS>MOLECULE
GIJXAB
    54    58     1
SMALL
NO_CHARGES
****
Generated from CSD

@<TRIPOS>ATOM
      1 N1        16.3839    5.1728    2.3302 N.3       1 RES1    0.0000
      2 N2        16.9824    6.3615    2.4480 N.2       1 RES1    0.0000
      3 N3         8.6945    0.0396    4.1305 N.3       1 RES1    0.0000
      4 N4         7.4503    0.1564    4.5848 N.2       1 RES1    0.0000
      5 O1        12.5133    2.7517    3.5221 O.3       1 RES1    0.0000
      6 O2        12.9874    3.4307    7.4492 O.3       1 RES1    0.0000
      7 O3        17.8092    6.5942    1.5540 O.2       1 RES1    0.0000
      8 O4         6.6590   -0.6411    4.0810 O.2       1 RES1    0.0000
      9 C1        13.4478    3.6719    3.9453 C.ar      1 RES1    0.0000
     10 C2        14.4116    3.9727    3.0040 C.ar      1 RES1    0.0000
     11 H1        14.3858    3.5753    2.1634 H         1 RES1    0.0000
     12 C3        15.4080    4.8631    3.3156 C.ar      1 RES1    0.0000
     13 C4        15.4473    5.4334    4.5820 C.ar      1 RES1    0.0000
     14 H2        16.1332    6.0175    4.8113 H         1 RES1    0.0000
     15 C5        14.4685    5.1280    5.4891 C.ar      1 RES1    0.0000
     16 H3        14.4991    5.5244    6.3307 H         1 RES1    0.0000
     17 C6        13.4247    4.2440    5.1992 C.ar      1 RES1    0.0000
     18 C7        12.3583    3.9175    6.2173 C.3       1 RES1    0.0000
     19 C8        11.4285    2.8514    5.6804 C.ar      1 RES1    0.0000
     20 C9        11.5416    2.3520    4.3977 C.ar      1 RES1    0.0000
     21 C10       10.6658    1.4156    3.8961 C.ar      1 RES1    0.0000
     22 H4        10.7740    1.0909    3.0312 H         1 RES1    0.0000
     23 C11        9.6338    0.9621    4.6771 C.ar      1 RES1    0.0000
     24 C12        9.5043    1.4165    5.9858 C.ar      1 RES1    0.0000
     25 H5         8.8260    1.0918    6.5344 H         1 RES1    0.0000
     26 C13       10.3878    2.3465    6.4525 C.ar      1 RES1    0.0000
     27 H6        10.2892    2.6555    7.3238 H         1 RES1    0.0000
     28 C14       11.5863    5.1262    6.6962 C.ar      1 RES1    0.0000
     29 C15       10.7257    5.9393    5.9550 C.ar      1 RES1    0.0000
     30 H7        10.6043    5.8041    5.0428 H         1 RES1    0.0000
     31 C16       10.0629    6.9474    6.6154 C.ar      1 RES1    0.0000
     32 H8         9.4756    7.4965    6.1473 H         1 RES1    0.0000
     33 C17       10.2645    7.1525    7.9779 C.ar      1 RES1    0.0000
     34 H9         9.8157    7.8451    8.4068 H         1 RES1    0.0000
     35 C18       11.1076    6.3569    8.6952 C.ar      1 RES1    0.0000
     36 H10       11.2333    6.4958    9.6061 H         1 RES1    0.0000
     37 C19       11.7786    5.3304    8.0327 C.ar      1 RES1    0.0000
     38 C20       12.7352    4.3232    8.5400 C.3       1 RES1    0.0000
     39 H11       13.5583    4.7500    8.8268 H         1 RES1    0.0000
     40 H12       12.3553    3.8421    9.2924 H         1 RES1    0.0000
     41 C21       16.6735    4.2864    1.2067 C.3       1 RES1    0.0000
     42 H13       16.4424    3.3776    1.4562 H         1 RES1    0.0000
     43 H14       17.6250    4.3103    1.0248 H         1 RES1    0.0000
     44 C22       15.9251    4.6534   -0.0519 C.3       1 RES1    0.0000
     45 H15       14.9834    4.6837    0.1328 H         1 RES1    0.0000
     46 H16       16.0964    3.9957   -0.7300 H         1 RES1    0.0000
     47 H17       16.2189    5.5134   -0.3593 H         1 RES1    0.0000
     48 C23        9.0677   -0.9612    3.1160 C.3       1 RES1    0.0000
     49 H18        8.5964   -1.7890    3.3020 H         1 RES1    0.0000
     50 H19       10.0189   -1.1397    3.1843 H         1 RES1    0.0000
     51 C24        8.7566   -0.5317    1.7294 C.3       1 RES1    0.0000
     52 H20        7.8100   -0.4038    1.6383 H         1 RES1    0.0000
     53 H21        9.0494   -1.2050    1.1120 H         1 RES1    0.0000
     54 H22        9.2094    0.2943    1.5409 H         1 RES1    0.0000
@<TRIPOS>BOND
     1    1    2 1
     2    2    7 2
     3    3    4 1
     4    4    8 2
     5    5    9 1
     6    6   18 1
     7    9   10 ar
     8   10   11 1
     9   12    1 1
    10   13   12 ar
    11   14   13 1
    12   15   13 ar
    13   16   15 1
    14   17    9 ar
    15   18   17 1
    16   19   18 1
    17   20    5 1
    18   21   20 ar
    19   22   21 1
    20   23    3 1
    21   24   23 ar
    22   25   24 1
    23   26   19 ar
    24   27   26 1
    25   28   18 1
    26   29   28 ar
    27   30   29 1
    28   31   29 ar
    29   32   31 1
    30   33   31 ar
    31   34   33 1
    32   35   33 ar
    33   36   35 1
    34   37   28 ar
    35   38    6 1
    36   39   38 1
    37   40   38 1
    38   41    1 1
    39   42   41 1
    40   43   41 1
    41   44   41 1
    42   45   44 1
    43   46   44 1
    44   47   44 1
    45   48    3 1
    46   49   48 1
    47   50   48 1
    48   51   48 1
    49   52   51 1
    50   53   51 1
    51   54   51 1
    52   10   12 ar
    53   15   17 ar
    54   19   20 ar
    55   21   23 ar
    56   24   26 ar
    57   35   37 ar
    58   37   38 1
@<TRIPOS>SUBSTRUCTURE
     1 RES1 1

@<TRIPOS>CRYSIN
  18.2546    9.1982   13.3199  90.0000 108.2310  90.0000  14 1

