# MOL2 file generated by ConQuest
# Please check atom types

@<TRIPOS>MOLECULE
GIKDUC
    19    20     1
SMALL
USER_CHARGES
****
Generated from CSD

@<TRIPOS>ATOM
      1 O1         0.3692    2.2434    5.1003 O.3       1 RES1    0.0000
      2 O2        -0.5302    0.7808    6.6022 O.2       1 RES1   -1.0000
      3 O3         0.2124    4.1798   -0.6965 O.2       1 RES1    0.0000
      4 O4        -1.3259    3.6209   -2.1163 O.2       1 RES1    0.0000
      5 N1         0.0642    2.6239    3.8383 N.2       1 RES1    0.0000
      6 N2        -0.9788    1.9235    3.5494 N.pl3     1 RES1    1.0000
      7 N3        -1.4452    1.0972    4.4744 N.2       1 RES1    0.0000
      8 N4        -0.8273    3.6025   -0.9962 N.pl3     1 RES1    0.0000
      9 C1        -0.5886    1.2784    5.5120 C.2       1 RES1    0.0000
     10 C2        -1.5749    2.0198    2.2445 C.ar      1 RES1    0.0000
     11 C3        -0.9365    2.8009    1.2942 C.ar      1 RES1    0.0000
     12 H1        -0.1457    3.2884    1.4926 H         1 RES1    0.0000
     13 C4        -1.5155    2.8286    0.0461 C.ar      1 RES1    0.0000
     14 C5        -2.6739    2.1432   -0.2691 C.ar      1 RES1    0.0000
     15 H2        -3.0453    2.1940   -1.1420 H         1 RES1    0.0000
     16 C6        -3.2824    1.3801    0.7147 C.ar      1 RES1    0.0000
     17 H3        -4.0830    0.9070    0.5181 H         1 RES1    0.0000
     18 C7        -2.7301    1.3020    1.9843 C.ar      1 RES1    0.0000
     19 H4        -3.1343    0.7687    2.6586 H         1 RES1    0.0000
@<TRIPOS>BOND
     1    1    5 1
     2    2    9 1
     3    3    8 2
     4    4    8 2
     5    5    6 2
     6    6    7 1
     7    7    9 2
     8    8   13 1
     9    9    1 1
    10   10    6 1
    11   11   10 ar
    12   12   11 1
    13   13   11 ar
    14   14   13 ar
    15   15   14 1
    16   16   14 ar
    17   17   16 1
    18   18   10 ar
    19   19   18 1
    20   16   18 ar
@<TRIPOS>SUBSTRUCTURE
     1 RES1 1

@<TRIPOS>CRYSIN
   5.3726   17.5100    8.6127  90.0000  93.8950  90.0000 231 1

