# MOL2 file generated by ConQuest
# Please check atom types

@<TRIPOS>MOLECULE
GIKDUA
    46    48     1
SMALL
NO_CHARGES
****
Generated from CSD

@<TRIPOS>ATOM
      1 O1         1.8944   -0.2155    6.2387 O.2       1 RES1    0.0000
      2 O2         2.2337    1.9235    6.7687 O.3       1 RES1    0.0000
      3 O3         3.7696    2.0791   10.6443 O.3       1 RES1    0.0000
      4 O4         4.2835    1.3515   12.8213 O.3       1 RES1    0.0000
      5 O5         6.8770    3.9399    6.2413 O.3       1 RES1    0.0000
      6 O6         7.8193    1.8359    6.6229 O.3       1 RES1    0.0000
      7 N1         3.2054    2.6929    7.5055 N.2       1 RES1    0.0000
      8 C1         2.5608    0.5957    6.8252 C.2       1 RES1    0.0000
      9 C2         3.7716    0.4797    7.6669 C.2       1 RES1    0.0000
     10 C3         4.0638    1.8695    7.9950 C.2       1 RES1    0.0000
     11 C4         4.4225   -0.6541    7.9895 C.2       1 RES1    0.0000
     12 C5         3.9372   -1.9997    7.5532 C.3       1 RES1    0.0000
     13 H1         3.3343   -2.3654    8.2339 H         1 RES1    0.0000
     14 H2         4.7031   -2.6008    7.4373 H         1 RES1    0.0000
     15 H3         3.4575   -1.9133    6.7031 H         1 RES1    0.0000
     16 C6         5.6803   -0.6714    8.8036 C.3       1 RES1    0.0000
     17 H4         6.4563   -0.6028    8.2087 H         1 RES1    0.0000
     18 H5         5.7313   -1.5086    9.3095 H         1 RES1    0.0000
     19 H6         5.6784    0.0864    9.4255 H         1 RES1    0.0000
     20 C7         5.1748    2.4211    8.8065 C.ar      1 RES1    0.0000
     21 C8         4.9844    2.5391   10.1971 C.ar      1 RES1    0.0000
     22 C9         5.9849    3.0718   10.9969 C.ar      1 RES1    0.0000
     23 H7         5.8428    3.1883   11.9290 H         1 RES1    0.0000
     24 C10        7.1956    3.4318   10.4222 C.ar      1 RES1    0.0000
     25 H8         7.8855    3.7911   10.9672 H         1 RES1    0.0000
     26 C11        7.4103    3.2741    9.0637 C.ar      1 RES1    0.0000
     27 H9         8.2531    3.5015    8.6880 H         1 RES1    0.0000
     28 C12        6.3932    2.7814    8.2421 C.ar      1 RES1    0.0000
     29 C13        3.4911    2.1671   12.0409 C.3       1 RES1    0.0000
     30 H10        3.6157    3.1053   12.3317 H         1 RES1    0.0000
     31 H11        2.5421    1.9286   12.1927 H         1 RES1    0.0000
     32 C14        4.0870   -0.0417   12.5647 C.3       1 RES1    0.0000
     33 H12        3.3800   -0.3844   13.1501 H         1 RES1    0.0000
     34 H13        4.9199   -0.5266   12.7387 H         1 RES1    0.0000
     35 H14        3.8254   -0.1676   11.6281 H         1 RES1    0.0000
     36 C15        6.6697    2.6392    6.7631 C.3       1 RES1    0.0000
     37 H15        5.8913    2.2062    6.3081 H         1 RES1    0.0000
     38 C16        7.1882    3.8784    4.8327 C.3       1 RES1    0.0000
     39 H16        7.3487    4.7918    4.4884 H         1 RES1    0.0000
     40 H17        6.4213    3.4931    4.3396 H         1 RES1    0.0000
     41 C17        8.4110    3.0308    4.6048 C.3       1 RES1    0.0000
     42 H18        9.2024    3.4626    5.0136 H         1 RES1    0.0000
     43 H19        8.5769    2.9309    3.6338 H         1 RES1    0.0000
     44 C18        8.1815    1.6681    5.2339 C.3       1 RES1    0.0000
     45 H20        7.4570    1.1954    4.7532 H         1 RES1    0.0000
     46 H21        9.0059    1.1243    5.1657 H         1 RES1    0.0000
@<TRIPOS>BOND
     1    1    8 2
     2    2    7 1
     3    3   21 1
     4    4   29 1
     5    5   36 1
     6    6   36 1
     7    7   10 2
     8    8    2 1
     9    9    8 1
    10   10    9 1
    11   11    9 2
    12   12   11 1
    13   13   12 1
    14   14   12 1
    15   15   12 1
    16   16   11 1
    17   17   16 1
    18   18   16 1
    19   19   16 1
    20   20   10 1
    21   21   20 ar
    22   22   21 ar
    23   23   22 1
    24   24   22 ar
    25   25   24 1
    26   26   24 ar
    27   27   26 1
    28   28   20 ar
    29   29    3 1
    30   30   29 1
    31   31   29 1
    32   32    4 1
    33   33   32 1
    34   34   32 1
    35   35   32 1
    36   36   28 1
    37   37   36 1
    38   38    5 1
    39   39   38 1
    40   40   38 1
    41   41   38 1
    42   42   41 1
    43   43   41 1
    44   44    6 1
    45   45   44 1
    46   46   44 1
    47   26   28 ar
    48   41   44 1
@<TRIPOS>SUBSTRUCTURE
     1 RES1 1

@<TRIPOS>CRYSIN
   9.1770   16.9320   11.2000  90.0000 102.3210  90.0000 231 1

