# MOL2 file generated by ConQuest
# Please check atom types

@<TRIPOS>MOLECULE
GIKDOW
    19    20     1
SMALL
USER_CHARGES
****
Generated from CSD

@<TRIPOS>ATOM
      1 O1         4.0737    0.5694    9.3904 O.3       1 RES1    0.0000
      2 O2         1.8047    0.5859    9.1530 O.2       1 RES1   -1.0000
      3 O3         6.0251   -6.0414   14.0227 O.2       1 RES1    0.0000
      4 O4         7.7797   -5.7838   12.8111 O.2       1 RES1    0.0000
      5 N1         4.9703   -0.2509    9.9899 N.2       1 RES1    0.0000
      6 N2         4.2285   -1.1599   10.5212 N.pl3     1 RES1    1.0000
      7 N3         2.9194   -1.0724   10.3713 N.2       1 RES1    0.0000
      8 N4         6.6610   -5.4578   13.1620 N.pl3     1 RES1    0.0000
      9 C1         2.7650    0.0469    9.6155 C.2       1 RES1    0.0000
     10 C2         4.8536   -2.2521   11.2218 C.ar      1 RES1    0.0000
     11 C3         6.1434   -2.5888   10.8757 C.ar      1 RES1    0.0000
     12 H1         6.6080   -2.1052   10.2027 H         1 RES1    0.0000
     13 C4         6.7444   -3.6436   11.5287 C.ar      1 RES1    0.0000
     14 H2         7.6309   -3.9092   11.3138 H         1 RES1    0.0000
     15 C5         6.0249   -4.3018   12.5015 C.ar      1 RES1    0.0000
     16 C6         4.7382   -3.9707   12.8464 C.ar      1 RES1    0.0000
     17 H3         4.2763   -4.4555   13.5202 H         1 RES1    0.0000
     18 C7         4.1284   -2.9131   12.1900 C.ar      1 RES1    0.0000
     19 H4         3.2392   -2.6526   12.4000 H         1 RES1    0.0000
@<TRIPOS>BOND
     1    1    5 1
     2    2    9 1
     3    3    8 2
     4    4    8 2
     5    5    6 2
     6    6    7 1
     7    7    9 2
     8    8   15 1
     9    9    1 1
    10   10    6 1
    11   11   10 ar
    12   12   11 1
    13   13   11 ar
    14   14   13 1
    15   15   13 ar
    16   16   15 ar
    17   17   16 1
    18   18   10 ar
    19   19   18 1
    20   16   18 ar
@<TRIPOS>SUBSTRUCTURE
     1 RES1 1

@<TRIPOS>CRYSIN
  12.6080    5.6499   12.1020  90.0000 110.6260  90.0000  14 1

