# MOL2 file generated by ConQuest
# Please check atom types

@<TRIPOS>MOLECULE
GIKFUB
    32    33     1
SMALL
NO_CHARGES
****
Generated from CSD

@<TRIPOS>ATOM
      1 N1         6.0017    2.1299    5.8317 N.pl3     1 RES1    0.0000
      2 C1         8.1336   -0.7649    5.6070 C.ar      1 RES1    0.0000
      3 O1        11.1550   -3.6036    5.7855 O.3       1 RES1    0.0000
      4 C2         9.2116   -2.7624    4.8136 C.ar      1 RES1    0.0000
      5 C3         6.0063    3.5563    6.0011 C.ar      1 RES1    0.0000
      6 C4         9.1246   -0.6201    6.5569 C.ar      1 RES1    0.0000
      7 C5         7.0442    4.2099    6.6412 C.ar      1 RES1    0.0000
      8 C6        10.1955   -2.6150    5.7855 C.ar      1 RES1    0.0000
      9 C7         8.1963   -1.8450    4.7268 C.ar      1 RES1    0.0000
     10 C8        10.1540   -1.5451    6.6448 C.ar      1 RES1    0.0000
     11 C9         4.9515    4.2658    5.4846 C.ar      1 RES1    0.0000
     12 C10        4.9306    5.6546    5.5749 C.ar      1 RES1    0.0000
     13 C11        7.0187    5.5888    6.7357 C.ar      1 RES1    0.0000
     14 C12        5.9637    6.3045    6.1990 C.ar      1 RES1    0.0000
     15 C13       12.1674   -3.5502    6.7770 C.3       1 RES1    0.0000
     16 N2         7.0285    0.1151    5.5260 N.pl3     1 RES1    0.0000
     17 O2         4.8297    1.5588    5.5629 O.2       1 RES1    0.0000
     18 C14        7.0826    1.4056    5.8340 C.2       1 RES1    0.0000
     19 H1         9.2343   -3.5095    4.2101 H         1 RES1    0.0000
     20 H2         9.1014    0.1281    7.1592 H         1 RES1    0.0000
     21 H3         7.7741    3.7108    7.0241 H         1 RES1    0.0000
     22 H4         7.5245   -1.9390    4.0432 H         1 RES1    0.0000
     23 H5        10.8420   -1.4409    7.3106 H         1 RES1    0.0000
     24 H6         4.2170    3.8048    5.0646 H         1 RES1    0.0000
     25 H7         4.1993    6.1550    5.1963 H         1 RES1    0.0000
     26 H8         7.7415    6.0485    7.1767 H         1 RES1    0.0000
     27 H9         5.9569    7.2623    6.2625 H         1 RES1    0.0000
     28 H10        6.1837   -0.2389    5.2213 H         1 RES1    0.0000
     29 H11        7.9303    1.8020    6.0685 H         1 RES1    0.0000
     30 H12       12.7727   -4.2897    6.6647 H         1 RES1    0.0000
     31 H13       12.6611   -2.7268    6.7162 H         1 RES1    0.0000
     32 H14       11.7427   -3.6086    7.6374 H         1 RES1    0.0000
@<TRIPOS>BOND
     1    1    5 1
     2    2    6 ar
     3    3    8 1
     4    4    8 ar
     5    5    7 ar
     6    6   10 ar
     7    7   13 ar
     8    8   10 ar
     9    9    2 ar
    10   10   23 1
    11   11    5 ar
    12   12   11 ar
    13   13   14 ar
    14   14   12 ar
    15   15    3 1
    16   16    2 1
    17   17    1 1
    18   18    1 2
    19   19    4 1
    20   20    6 1
    21   21    7 1
    22   22    9 1
    23   24   11 1
    24   25   12 1
    25   26   13 1
    26   27   14 1
    27   28   16 1
    28   29   18 1
    29   30   15 1
    30   31   15 1
    31   32   15 1
    32    4    9 ar
    33   16   18 1
@<TRIPOS>SUBSTRUCTURE
     1 RES1 1

@<TRIPOS>CRYSIN
   9.9820   25.4130    9.8110  90.0000  90.0000  90.0000  61 1

