# MOL2 file generated by ConQuest
# Please check atom types

@<TRIPOS>MOLECULE
GIKGAL
    18    18     1
SMALL
USER_CHARGES
****
Generated from CSD

@<TRIPOS>ATOM
      1 O1         8.0447    0.7818    2.5417 O.2       1 RES1    0.0000
      2 O2         6.2668    0.5291    3.7619 O.2       1 RES1    0.0000
      3 O3         3.9494    4.3064    5.4856 O.2       1 RES1    0.0000
      4 O4         4.7975    6.2938    5.3332 O.2       1 RES1    0.0000
      5 N1         8.8011    5.8031    2.4416 N.2       1 RES1    0.0000
      6 N2         9.7343    5.3384    1.7560 N.1       1 RES1    1.0000
      7 N3        10.6257    5.0885    1.1150 N.2       1 RES1   -1.0000
      8 N4         7.1176    1.2241    3.2063 N.pl3     1 RES1    0.0000
      9 N5         4.8088    5.0885    5.0958 N.pl3     1 RES1    0.0000
     10 C1         7.8869    4.8688    2.9933 C.ar      1 RES1    0.0000
     11 C2         7.9822    3.4894    2.7973 C.ar      1 RES1    0.0000
     12 C3         7.0179    2.6882    3.3738 C.ar      1 RES1    0.0000
     13 C4         5.9616    3.1740    4.1138 C.ar      1 RES1    0.0000
     14 C5         5.9178    4.5468    4.2927 C.ar      1 RES1    0.0000
     15 C6         6.8572    5.4129    3.7644 C.ar      1 RES1    0.0000
     16 H1         8.6666    3.1116    2.2981 H         1 RES1    0.0000
     17 H2         6.7796    6.2982    3.8989 H         1 RES1    0.0000
     18 H3         5.3206    2.5875    4.4980 H         1 RES1    0.0000
@<TRIPOS>BOND
     1    1    8 2
     2    2    8 2
     3    3    9 2
     4    4    9 2
     5    5    6 2
     6    6    7 2
     7    8   12 1
     8    9   14 1
     9   10    5 1
    10   11   10 ar
    11   12   11 ar
    12   13   12 ar
    13   14   13 ar
    14   15   10 ar
    15   16   11 1
    16   17   15 1
    17   18   13 1
    18   14   15 ar
@<TRIPOS>SUBSTRUCTURE
     1 RES1 1

@<TRIPOS>CRYSIN
   9.7268    8.3199    9.8210  90.0000  90.0000  90.0000  33 1

