# MOL2 file generated by ConQuest
# Please check atom types

@<TRIPOS>MOLECULE
GIKQUM
    37    38     1
SMALL
NO_CHARGES
****
Generated from CSD

@<TRIPOS>ATOM
      1 N1        10.5571   -5.5752  -14.2633 N.3       1 RES1    0.0000
      2 C1         9.9240   -6.8777  -14.3770 C.3       1 RES1    0.0000
      3 H1        10.6338   -7.5416  -14.5020 H         1 RES1    0.0000
      4 C2         8.9964   -6.9714  -15.5689 C.3       1 RES1    0.0000
      5 H2         9.4709   -6.7184  -16.3645 H         1 RES1    0.0000
      6 H3         8.2497   -6.3804  -15.4410 H         1 RES1    0.0000
      7 H4         8.6798   -7.8721  -15.6580 H         1 RES1    0.0000
      8 O1         9.1733   -7.2611  -13.2287 O.3       1 RES1    0.0000
      9 C3         9.9987   -7.3243  -12.0663 C.3       1 RES1    0.0000
     10 H5        10.7714   -7.9048  -12.2309 H         1 RES1    0.0000
     11 C4         9.1687   -7.8736  -10.9418 C.3       1 RES1    0.0000
     12 H6         9.6581   -7.8170  -10.1073 H         1 RES1    0.0000
     13 H7         8.3484   -7.3645  -10.8528 H         1 RES1    0.0000
     14 O2         8.8680   -9.2499  -11.2484 O.3       1 RES1    0.0000
     15 C5         7.9455   -9.8088  -10.4819 C.2       1 RES1    0.0000
     16 O3         7.3901   -9.2238   -9.6010 O.2       1 RES1    0.0000
     17 C6         7.7138  -11.2514  -10.8491 C.3       1 RES1    0.0000
     18 H8         8.2779  -11.4881  -11.5891 H         1 RES1    0.0000
     19 H9         6.7943  -11.3749  -11.0958 H         1 RES1    0.0000
     20 H10        7.9209  -11.8111  -10.0980 H         1 RES1    0.0000
     21 C7        10.4605   -5.8996  -11.7792 C.3       1 RES1    0.0000
     22 H11        9.6842   -5.3324  -11.5876 H         1 RES1    0.0000
     23 O4        11.3575   -5.8844  -10.6600 O.3       1 RES1    0.0000
     24 C8        10.8885   -5.4500   -9.4601 C.2       1 RES1    0.0000
     25 O5         9.8182   -4.9394   -9.3378 O.2       1 RES1    0.0000
     26 C9        11.8397   -5.7448   -8.3789 C.3       1 RES1    0.0000
     27 H12       12.6247   -6.1571   -8.7461 H         1 RES1    0.0000
     28 H13       11.4311   -6.3417   -7.7465 H         1 RES1    0.0000
     29 H14       12.0847   -4.9290   -7.9356 H         1 RES1    0.0000
     30 C10       11.2291   -5.3324  -12.9778 C.3       1 RES1    0.0000
     31 H15       12.1399   -5.6927  -12.9978 H         1 RES1    0.0000
     32 C11       11.2654   -3.8095  -12.9540 C.3       1 RES1    0.0000
     33 H16       11.3222   -3.4701  -12.0472 H         1 RES1    0.0000
     34 H17       12.0074   -3.4626  -13.4733 H         1 RES1    0.0000
     35 C12        9.9445   -3.4716  -13.5862 C.2       1 RES1    0.0000
     36 O6         9.3027   -2.4614  -13.5469 O.2       1 RES1    0.0000
     37 O7         9.4745   -4.5507  -14.2541 O.3       1 RES1    0.0000
@<TRIPOS>BOND
     1    1    2 1
     2    2    3 1
     3    4    2 1
     4    5    4 1
     5    6    4 1
     6    7    4 1
     7    8    2 1
     8    9    8 1
     9   10    9 1
    10   11    9 1
    11   12   11 1
    12   13   11 1
    13   14   11 1
    14   15   14 1
    15   16   15 2
    16   17   15 1
    17   18   17 1
    18   19   17 1
    19   20   17 1
    20   21    9 1
    21   22   21 1
    22   23   21 1
    23   24   23 1
    24   25   24 2
    25   26   24 1
    26   27   26 1
    27   28   26 1
    28   29   26 1
    29   30    1 1
    30   31   30 1
    31   32   30 1
    32   33   32 1
    33   34   32 1
    34   35   32 1
    35   36   35 2
    36   37    1 1
    37   21   30 1
    38   35   37 1
@<TRIPOS>SUBSTRUCTURE
     1 RES1 1

@<TRIPOS>CRYSIN
   5.1139   14.8867   18.5455  90.0000  90.0000  90.0000  19 1

