# MOL2 file generated by ConQuest
# Please check atom types

@<TRIPOS>MOLECULE
GILHOZ
    52    57     1
SMALL
NO_CHARGES
****
Generated from CSD

@<TRIPOS>ATOM
      1 O1        11.4389    1.6795    6.4441 O.2       1 RES1    0.0000
      2 N1        12.1689    1.6795    5.3831 N.3       1 RES1    0.0000
      3 C1        11.4550    1.6795    4.0596 C.3       1 RES1    0.0000
      4 C2         9.9454    1.6795    4.3387 C.3       1 RES1    0.0000
      5 H1         9.7029    2.4816    4.8667 H         1 RES1    0.0000
      6 H2         9.7029    0.8774    4.8667 H         1 RES1    0.0000
      7 C3         9.1691    1.6795    3.0117 C.3       1 RES1    0.0000
      8 H3         8.1879    1.6795    3.2062 H         1 RES1    0.0000
      9 C4         9.5198    2.9304    2.2070 C.3       1 RES1    0.0000
     10 H4         9.0135    2.9371    1.3559 H         1 RES1    0.0000
     11 H5         9.2777    3.7413    2.7199 H         1 RES1    0.0000
     12 C5        11.0189    2.9237    1.9221 C.3       1 RES1    0.0000
     13 H6        11.2571    3.7359    1.3906 H         1 RES1    0.0000
     14 C6        11.7889    2.9432    3.2490 C.3       1 RES1    0.0000
     15 H7        11.5398    3.7486    3.7678 H         1 RES1    0.0000
     16 H8        12.7617    2.9781    3.0696 H         1 RES1    0.0000
     17 C7        11.4001    1.6795    1.1359 C.3       1 RES1    0.0000
     18 H9        12.3757    1.6795    0.9634 H         1 RES1    0.0000
     19 H10       10.9330    1.6795    0.2640 H         1 RES1    0.0000
     20 C8        13.6424    1.6795    5.6876 C.3       1 RES1    0.0000
     21 C9        14.5727    1.6795    4.4961 C.3       1 RES1    0.0000
     22 H11       14.4026    2.4810    3.9415 H         1 RES1    0.0000
     23 H12       14.4026    0.8780    3.9415 H         1 RES1    0.0000
     24 C10       16.0414    1.6795    4.9685 C.3       1 RES1    0.0000
     25 H13       16.6441    1.6795    4.1696 H         1 RES1    0.0000
     26 C11       16.3180    0.4494    5.7988 C.3       1 RES1    0.0000
     27 H14       16.1570   -0.3655    5.2603 H         1 RES1    0.0000
     28 H15       17.2612    0.4461    6.0963 H         1 RES1    0.0000
     29 C12       15.4043    0.4662    6.9902 C.3       1 RES1    0.0000
     30 H16       15.5791   -0.3460    7.5460 H         1 RES1    0.0000
     31 C13       13.9372    0.4481    6.5282 C.3       1 RES1    0.0000
     32 H17       13.7648   -0.3681    5.9956 H         1 RES1    0.0000
     33 H18       13.3396    0.4326    7.3179 H         1 RES1    0.0000
     34 C14       15.6658    1.6795    7.8100 C.3       1 RES1    0.0000
     35 H19       16.6069    1.6795    8.1192 H         1 RES1    0.0000
     36 H20       15.0775    1.6795    8.6067 H         1 RES1    0.0000
     37 C4G        9.5198    0.4286    2.2070 C.3       1 RES1    0.0000
     38 H4G        9.0135    0.4219    1.3559 H         1 RES1    0.0000
     39 H5G        9.2777   -0.3823    2.7199 H         1 RES1    0.0000
     40 C5G       11.0189    0.4353    1.9221 C.3       1 RES1    0.0000
     41 H6G       11.2571   -0.3769    1.3906 H         1 RES1    0.0000
     42 C6G       11.7889    0.4158    3.2490 C.3       1 RES1    0.0000
     43 H7G       11.5398   -0.3896    3.7678 H         1 RES1    0.0000
     44 H8G       12.7617    0.3809    3.0696 H         1 RES1    0.0000
     45 C11G      16.3180    2.9096    5.7988 C.3       1 RES1    0.0000
     46 H14G      16.1570    3.7245    5.2603 H         1 RES1    0.0000
     47 H15G      17.2612    2.9129    6.0963 H         1 RES1    0.0000
     48 C12G      15.4043    2.8928    6.9902 C.3       1 RES1    0.0000
     49 H16G      15.5791    3.7050    7.5460 H         1 RES1    0.0000
     50 C13G      13.9372    2.9109    6.5282 C.3       1 RES1    0.0000
     51 H17G      13.7648    3.7271    5.9956 H         1 RES1    0.0000
     52 H18G      13.3396    2.9264    7.3179 H         1 RES1    0.0000
@<TRIPOS>BOND
     1    1    2 1
     2    2    3 1
     3    3    4 1
     4    4    5 1
     5    6    4 1
     6    7    4 1
     7    8    7 1
     8    9    7 1
     9   10    9 1
    10   11    9 1
    11   12    9 1
    12   13   12 1
    13   14    3 1
    14   15   14 1
    15   16   14 1
    16   17   12 1
    17   18   17 1
    18   19   17 1
    19   20    2 1
    20   21   20 1
    21   22   21 1
    22   23   21 1
    23   24   21 1
    24   25   24 1
    25   26   24 1
    26   27   26 1
    27   28   26 1
    28   29   26 1
    29   30   29 1
    30   31   20 1
    31   32   31 1
    32   33   31 1
    33   34   29 1
    34   35   34 1
    35   36   34 1
    36   37    7 1
    37   38   37 1
    38   39   37 1
    39   40   17 1
    40   41   40 1
    41   42    3 1
    42   43   42 1
    43   44   42 1
    44   45   24 1
    45   46   45 1
    46   47   45 1
    47   48   34 1
    48   49   48 1
    49   50   20 1
    50   51   50 1
    51   52   50 1
    52   12   14 1
    53   29   31 1
    54   37   40 1
    55   40   42 1
    56   45   48 1
    57   48   50 1
@<TRIPOS>SUBSTRUCTURE
     1 RES1 1

@<TRIPOS>CRYSIN
  20.6400    6.7180   11.5790  90.0000  90.0000  90.0000  62 1

