# MOL2 file generated by ConQuest
# Please check atom types

@<TRIPOS>MOLECULE
GILRUQ
    33    33     1
SMALL
NO_CHARGES
****
Generated from CSD

@<TRIPOS>ATOM
      1 C1         8.6893    1.7877   -1.2757 C.3       1 RES1    0.0000
      2 H1         9.1234    2.6297   -1.0256 H         1 RES1    0.0000
      3 H2         7.9500    1.9724   -1.8903 H         1 RES1    0.0000
      4 H3         9.3407    1.2021   -1.7144 H         1 RES1    0.0000
      5 C2        11.4245   -0.0348    5.4506 C.2       1 RES1    0.0000
      6 C3        11.6104   -0.1818    4.1362 C.2       1 RES1    0.0000
      7 H4        12.4280   -0.5844    3.8677 H         1 RES1    0.0000
      8 C4        10.6963    0.2074    3.0662 C.ar      1 RES1    0.0000
      9 C5         9.3231   -0.1142    3.0590 C.ar      1 RES1    0.0000
     10 C6         8.5154    0.2171    1.9884 C.ar      1 RES1    0.0000
     11 H5         7.5894    0.0065    2.0020 H         1 RES1    0.0000
     12 C7         9.0714    0.8615    0.8899 C.ar      1 RES1    0.0000
     13 C8         7.4931   -1.1199    4.2197 C.3       1 RES1    0.0000
     14 H6         6.9584   -0.2989    4.1800 H         1 RES1    0.0000
     15 H7         7.3109   -1.5876    5.0617 H         1 RES1    0.0000
     16 H8         7.2562   -1.6994    3.4666 H         1 RES1    0.0000
     17 C9        10.4195    1.1753    0.8352 C.ar      1 RES1    0.0000
     18 H9        10.7893    1.6119    0.0776 H         1 RES1    0.0000
     19 C10       11.2136    0.8327    1.9204 C.ar      1 RES1    0.0000
     20 C11       13.1589    1.7095    0.8367 C.3       1 RES1    0.0000
     21 H10       13.0428    1.1300    0.0549 H         1 RES1    0.0000
     22 H11       14.1148    1.8412    1.0067 H         1 RES1    0.0000
     23 H12       12.7354    2.5767    0.6661 H         1 RES1    0.0000
     24 C12       10.3330    0.6634    6.1693 C.3       1 RES1    0.0000
     25 H13        9.8284    1.2183    5.5386 H         1 RES1    0.0000
     26 H14       10.7153    1.2316    6.8707 H         1 RES1    0.0000
     27 H15        9.7334    0.0028    6.5755 H         1 RES1    0.0000
     28 N1        12.4743   -0.5852    6.3212 N.pl3     1 RES1    0.0000
     29 O1        13.4272   -1.1644    5.8404 O.2       1 RES1    0.0000
     30 O2         8.1869    1.1474   -0.1082 O.3       1 RES1    0.0000
     31 O3         8.8732   -0.7902    4.1493 O.3       1 RES1    0.0000
     32 O4        12.5535    1.0992    1.9761 O.3       1 RES1    0.0000
     33 O5        12.3238   -0.4650    7.5266 O.2       1 RES1    0.0000
@<TRIPOS>BOND
     1    1    2 1
     2    3    1 1
     3    4    1 1
     4    5    6 2
     5    6    7 1
     6    8    6 1
     7    9    8 ar
     8   10    9 ar
     9   11   10 1
    10   12   10 ar
    11   13   14 1
    12   15   13 1
    13   16   13 1
    14   17   12 ar
    15   18   17 1
    16   19    8 ar
    17   20   21 1
    18   22   20 1
    19   23   20 1
    20   24    5 1
    21   25   24 1
    22   26   24 1
    23   27   24 1
    24   28    5 1
    25   29   28 2
    26   30    1 1
    27   31    9 1
    28   32   19 1
    29   33   28 2
    30   12   30 1
    31   13   31 1
    32   17   19 ar
    33   20   32 1
@<TRIPOS>SUBSTRUCTURE
     1 RES1 1

@<TRIPOS>CRYSIN
  16.0963    4.0501   18.9224  90.0000  90.0000  90.0000  29 1

