# MOL2 file generated by ConQuest
# Please check atom types

@<TRIPOS>MOLECULE
GIMBUB
    33    28     2
SMALL
NO_CHARGES
****
Generated from CSD

@<TRIPOS>ATOM
      1 C1         7.2804    3.1608    1.6950 C.ar      1 RES1    0.0000
      2 C2         8.0602    2.2593    2.4253 C.ar      1 RES1    0.0000
      3 C3         8.3083    2.5838    3.7622 C.ar      1 RES1    0.0000
      4 C4         7.8171    3.7395    4.3355 C.ar      1 RES1    0.0000
      5 H1         7.9920    3.9181    5.2521 H         1 RES1    0.0000
      6 C5         7.0669    4.6511    3.5891 C.ar      1 RES1    0.0000
      7 C6         6.8031    4.3358    2.2625 C.ar      1 RES1    0.0000
      8 H2         6.2876    4.9337    1.7336 H         1 RES1    0.0000
      9 C7         6.5765    5.9409    4.2453 C.3       1 RES1    0.0000
     10 C8         5.5927    5.5786    5.3641 C.3       1 RES1    0.0000
     11 H3         6.0421    5.0084    6.0218 H         1 RES1    0.0000
     12 H4         4.8275    5.0989    4.9832 H         1 RES1    0.0000
     13 H5         5.2797    6.3980    5.8015 H         1 RES1    0.0000
     14 C9         7.7838    6.6789    4.8413 C.3       1 RES1    0.0000
     15 H6         8.2090    6.1145    5.5209 H         1 RES1    0.0000
     16 H7         7.4851    7.5167    5.2534 H         1 RES1    0.0000
     17 H8         8.4288    6.8768    4.1308 H         1 RES1    0.0000
     18 C10        5.8773    6.8668    3.2467 C.3       1 RES1    0.0000
     19 H9         5.6262    7.7012    3.6955 H         1 RES1    0.0000
     20 H10        5.0734    6.4265    2.9008 H         1 RES1    0.0000
     21 H11        6.4853    7.0655    2.5047 H         1 RES1    0.0000
     22 C11        8.5546    1.0433    1.8273 C.1       1 RES1    0.0000
     23 C12        7.0646    2.9520    0.3200 C.1       1 RES1    0.0000
     24 N1         8.9291    0.0847    1.3409 N.1       1 RES1    0.0000
     25 N2         6.7792    2.7541   -0.7685 N.1       1 RES1    0.0000
     26 N3         9.0367    1.6907    4.6777 N.pl3     1 RES1    0.0000
     27 O1         8.8039    1.6857    5.8772 O.2       1 RES1    0.0000
     28 O2         9.9074    0.9955    4.1512 O.2       1 RES1    0.0000
     29 N4         6.7789    2.7952    0.2859 Du        2 SUP2    0.0000
     30 C13        9.2609    1.6647    4.4285 Du        2 SUP2    0.0000
     31 N5         9.9029    0.9477    4.9977 Du        2 SUP2    0.0000
     32 O3         6.2884    3.7051   -0.3829 Du        2 SUP2    0.0000
     33 O4         6.8197    1.6177   -0.0892 Du        2 SUP2    0.0000
@<TRIPOS>BOND
     1    1    2 ar
     2    2    3 ar
     3    3    4 ar
     4    4    5 1
     5    6    4 ar
     6    7    1 ar
     7    8    7 1
     8    9    6 1
     9   10    9 1
    10   11   10 1
    11   12   10 1
    12   13   10 1
    13   14    9 1
    14   15   14 1
    15   16   14 1
    16   17   14 1
    17   18    9 1
    18   19   18 1
    19   20   18 1
    20   21   18 1
    21   22    2 1
    22   23    1 1
    23   24   22 3
    24   25   23 3
    25   26    3 1
    26   27   26 2
    27   28   26 2
    28    6    7 ar
@<TRIPOS>SUBSTRUCTURE
     1 RES1 1
     2 SUP2 29

@<TRIPOS>CRYSIN
  10.4263    8.3864   13.2617  90.0000  98.5660  90.0000  14 1

