# MOL2 file generated by ConQuest
# Please check atom types

@<TRIPOS>MOLECULE
GIMSUR
    26    27     1
SMALL
NO_CHARGES
****
Generated from CSD

@<TRIPOS>ATOM
      1 O1         3.4090    3.1945    1.4079 O.2       1 RES1    0.0000
      2 O2         4.7808   -2.3423    1.4812 O.3       1 RES1    0.0000
      3 H1         5.3886   -2.9217    1.4507 H         1 RES1    0.0000
      4 O3         0.9799    2.2809    7.3707 O.3       1 RES1    0.0000
      5 H2         1.6004    2.6334    7.8148 H         1 RES1    0.0000
      6 N1         3.2042   -0.2983    1.9399 N.pl3     1 RES1    0.0000
      7 H3         2.8411   -1.0639    2.1740 H         1 RES1    0.0000
      8 N2         3.5933    1.8738    1.5281 N.pl3     1 RES1    0.0000
      9 N3         5.7073    1.7915    0.5454 N.pl3     1 RES1    0.0000
     10 H4         5.7391    2.6639    0.4359 H         1 RES1    0.0000
     11 H5         6.3813    1.2905    0.2832 H         1 RES1    0.0000
     12 N4         5.3102   -1.0822    1.1075 N.2       1 RES1    0.0000
     13 C1         2.5557    0.9943    2.1024 C.3       1 RES1    0.0000
     14 H6         1.7364    1.0290    1.5297 H         1 RES1    0.0000
     15 C2         4.6469    1.2340    1.1028 C.2       1 RES1    0.0000
     16 C3         4.4341   -0.1820    1.3855 C.2       1 RES1    0.0000
     17 C4         2.1902    1.3508    3.5172 C.ar      1 RES1    0.0000
     18 C5         3.1342    1.4446    4.5206 C.ar      1 RES1    0.0000
     19 H7         4.0489    1.2857    4.3185 H         1 RES1    0.0000
     20 C6         2.7659    1.7678    5.8177 C.ar      1 RES1    0.0000
     21 H8         3.4249    1.8451    6.4978 H         1 RES1    0.0000
     22 C7         1.4344    1.9765    6.1103 C.ar      1 RES1    0.0000
     23 C8         0.4922    1.8720    5.1249 C.ar      1 RES1    0.0000
     24 H9        -0.4254    2.0072    5.3323 H         1 RES1    0.0000
     25 C9         0.8676    1.5717    3.8300 C.ar      1 RES1    0.0000
     26 H10        0.2072    1.5166    3.1489 H         1 RES1    0.0000
@<TRIPOS>BOND
     1    1    8 1
     2    2    3 1
     3    4    5 1
     4    6    7 1
     5    8   13 1
     6    9   10 1
     7   11    9 1
     8   12    2 1
     9   13    6 1
    10   14   13 1
    11   15    8 2
    12   16    6 1
    13   17   13 1
    14   18   17 ar
    15   19   18 1
    16   20   18 ar
    17   21   20 1
    18   22    4 1
    19   23   22 ar
    20   24   23 1
    21   25   17 ar
    22   26   25 1
    23    9   15 1
    24   12   16 2
    25   15   16 1
    26   20   22 ar
    27   23   25 ar
@<TRIPOS>SUBSTRUCTURE
     1 RES1 1

@<TRIPOS>CRYSIN
   6.6739    7.5697   10.8990  85.0360  75.0390  66.5960   2 1

