# MOL2 file generated by ConQuest
# Please check atom types

@<TRIPOS>MOLECULE
GINZUY
    68    72     1
SMALL
NO_CHARGES
****
Generated from CSD

@<TRIPOS>ATOM
      1 C1         1.5319    4.3679   37.8017 C.3       1 RES1    0.0000
      2 C2         0.3062    5.0712   37.2785 C.3       1 RES1    0.0000
      3 C3         0.3201    5.2755   35.7711 C.3       1 RES1    0.0000
      4 C4         0.6374    3.9783   35.0706 C.2       1 RES1    0.0000
      5 C5         1.9260    3.3069   35.5095 C.3       1 RES1    0.0000
      6 C6         2.1223    1.9436   34.8356 C.3       1 RES1    0.0000
      7 C7         3.2830    1.1620   35.3987 C.3       1 RES1    0.0000
      8 C8         3.1164    0.8742   36.9017 C.3       1 RES1    0.0000
      9 C9         2.9083    2.1790   37.7264 C.3       1 RES1    0.0000
     10 C10        1.8154    3.0676   37.0569 C.3       1 RES1    0.0000
     11 C11        2.4797    1.8099   39.1717 C.3       1 RES1    0.0000
     12 C12        1.0923    1.1803   39.3402 C.3       1 RES1    0.0000
     13 C13        0.8199    0.4732   40.6836 C.3       1 RES1    0.0000
     14 C14        1.8250   -0.6881   40.8344 C.3       1 RES1    0.0000
     15 C15        1.4891   -1.8076   41.7610 C.3       1 RES1    0.0000
     16 C16       -0.6236   -0.0046   40.6925 C.3       1 RES1    0.0000
     17 C17        4.2529   -0.0182   37.3805 C.3       1 RES1    0.0000
     18 C18       -0.1756    3.5005   34.1351 C.2       1 RES1    0.0000
     19 C19        3.0777    4.2312   35.1016 C.3       1 RES1    0.0000
     20 C20        4.2467    2.9218   37.8771 C.3       1 RES1    0.0000
     21 N1         0.9153    2.1896   43.9601 N.2       1 RES1    0.0000
     22 C21        1.0452    1.9352   45.2725 C.2       1 RES1    0.0000
     23 N2         1.3266    0.8157   45.8932 N.2       1 RES1    0.0000
     24 C22        1.4351   -0.2362   45.0287 C.2       1 RES1    0.0000
     25 C23        1.3335   -0.0972   43.6542 C.2       1 RES1    0.0000
     26 C24        1.0784    1.1643   43.1133 C.2       1 RES1    0.0000
     27 N3         1.5167   -1.3671   43.1532 N.pl3     1 RES1    0.0000
     28 C25        1.7054   -2.1577   44.2306 C.2       1 RES1    0.0000
     29 N4         1.6778   -1.5274   45.3878 N.2       1 RES1    0.0000
     30 N5         1.0397    1.4643   41.7788 N.pl3     1 RES1    0.0000
     31 O1         0.5178    2.7228   41.4640 O.3       1 RES1    0.0000
     32 H1         1.4123    4.1757   38.7417 H         1 RES1    0.0000
     33 H2         2.2972    4.9573   37.7131 H         1 RES1    0.0000
     34 H3         0.2323    5.9355   37.7131 H         1 RES1    0.0000
     35 H4        -0.4784    4.5524   37.5180 H         1 RES1    0.0000
     36 H5        -0.5454    5.5998   35.4785 H         1 RES1    0.0000
     37 H6         0.9865    5.9416   35.5405 H         1 RES1    0.0000
     38 H7         1.3114    1.4218   34.9376 H         1 RES1    0.0000
     39 H8         2.2654    2.0795   33.8868 H         1 RES1    0.0000
     40 H9         4.1015    1.6633   35.2568 H         1 RES1    0.0000
     41 H10        3.3632    0.3220   34.9198 H         1 RES1    0.0000
     42 H11        2.2930    0.3516   36.9948 H         1 RES1    0.0000
     43 H12        0.9906    2.5489   37.1588 H         1 RES1    0.0000
     44 H13        3.1357    1.1939   39.5353 H         1 RES1    0.0000
     45 H14        2.5122    2.6157   39.7127 H         1 RES1    0.0000
     46 H15        0.9637    0.5354   38.6264 H         1 RES1    0.0000
     47 H16        0.4272    1.8767   39.2249 H         1 RES1    0.0000
     48 H17        1.9688   -1.0686   39.9521 H         1 RES1    0.0000
     49 H18        2.6705   -0.3099   41.1226 H         1 RES1    0.0000
     50 H19        0.6063   -2.1479   41.5482 H         1 RES1    0.0000
     51 H20        2.1264   -2.5291   41.6413 H         1 RES1    0.0000
     52 H21       -0.8178   -0.4230   41.5349 H         1 RES1    0.0000
     53 H22       -0.7535   -0.6380   39.9831 H         1 RES1    0.0000
     54 H23       -1.2091    0.7443   40.5639 H         1 RES1    0.0000
     55 H24        5.0914    0.4261   37.2342 H         1 RES1    0.0000
     56 H25        4.2404   -0.8438   36.8884 H         1 RES1    0.0000
     57 H26        4.1437   -0.2013   38.3160 H         1 RES1    0.0000
     58 H27       -0.9478    3.9661   33.9089 H         1 RES1    0.0000
     59 H28        0.0277    2.7000   33.7050 H         1 RES1    0.0000
     60 H29        2.9982    4.4499   34.1705 H         1 RES1    0.0000
     61 H30        3.9141    3.7869   35.2568 H         1 RES1    0.0000
     62 H31        3.0417    5.0362   35.6248 H         1 RES1    0.0000
     63 H32        4.0883    3.7952   38.2407 H         1 RES1    0.0000
     64 H33        4.6670    3.0046   37.0170 H         1 RES1    0.0000
     65 H34        4.8211    2.4281   38.4668 H         1 RES1    0.0000
     66 H35        0.9146    2.6681   45.8312 H         1 RES1    0.0000
     67 H36        1.8437   -3.0745   44.1597 H         1 RES1    0.0000
     68 H37       -0.3802    3.0760   41.9472 H         1 RES1    0.0000
@<TRIPOS>BOND
     1    1    2 1
     2    2    3 1
     3    3    4 1
     4    4    5 1
     5    5    6 1
     6    6    7 1
     7    7    8 1
     8    8    9 1
     9    9   10 1
    10   10    1 1
    11   11    9 1
    12   12   11 1
    13   13   12 1
    14   14   13 1
    15   15   14 1
    16   16   13 1
    17   17    8 1
    18   18    4 2
    19   19    5 1
    20   20    9 1
    21   21   22 1
    22   22   23 2
    23   23   24 1
    24   24   25 2
    25   25   26 1
    26   26   21 2
    27   27   15 1
    28   28   27 1
    29   29   24 1
    30   30   13 1
    31   31   30 1
    32   32    1 1
    33   33    1 1
    34   34    2 1
    35   35    2 1
    36   36    3 1
    37   37    3 1
    38   38    6 1
    39   39    6 1
    40   40    7 1
    41   41    7 1
    42   42    8 1
    43   43   10 1
    44   44   11 1
    45   45   11 1
    46   46   12 1
    47   47   12 1
    48   48   14 1
    49   49   14 1
    50   50   15 1
    51   51   15 1
    52   52   16 1
    53   53   16 1
    54   54   16 1
    55   55   17 1
    56   56   17 1
    57   57   17 1
    58   58   18 1
    59   59   18 1
    60   60   19 1
    61   61   19 1
    62   62   19 1
    63   63   20 1
    64   64   20 1
    65   65   20 1
    66   66   22 1
    67   67   28 1
    68   68   31 1
    69    5   10 1
    70   25   27 1
    71   26   30 1
    72   28   29 2
@<TRIPOS>SUBSTRUCTURE
     1 RES1 1

@<TRIPOS>CRYSIN
   6.9130    7.5950   44.3370  90.0000  90.0000  90.0000  19 1

