# MOL2 file generated by ConQuest
# Please check atom types

@<TRIPOS>MOLECULE
GIPCUF
    36    38     1
SMALL
NO_CHARGES
****
Generated from CSD

@<TRIPOS>ATOM
      1 N1         0.4697    8.2386   10.3493 N.ar      1 RES1    0.0000
      2 N2        -0.6964   11.1811   12.3040 N.pl3     1 RES1    0.0000
      3 O1        -1.7758   11.4428   11.7809 O.2       1 RES1    0.0000
      4 O2        -0.1569   11.8971   13.1525 O.2       1 RES1    0.0000
      5 C1         0.0005    9.4720   10.6213 C.ar      1 RES1    0.0000
      6 C2        -0.0356    9.9229   11.9454 C.ar      1 RES1    0.0000
      7 C3         0.5195    9.1902   12.9680 C.ar      1 RES1    0.0000
      8 H1         0.5582    9.5320   13.8547 H         1 RES1    0.0000
      9 C4         1.0165    7.9453   12.6615 C.ar      1 RES1    0.0000
     10 H2         1.4185    7.4127   13.3368 H         1 RES1    0.0000
     11 C5         0.9288    7.4686   11.3592 C.ar      1 RES1    0.0000
     12 C6         1.4026    6.0980   11.0045 C.ar      1 RES1    0.0000
     13 C7         0.9533    4.9631   11.7054 C.ar      1 RES1    0.0000
     14 C8         1.4846    3.7223   11.3507 C.ar      1 RES1    0.0000
     15 H3         1.1936    2.9461   11.8140 H         1 RES1    0.0000
     16 C9         2.4190    3.5908   10.3462 C.ar      1 RES1    0.0000
     17 H4         2.7712    2.7345   10.1328 H         1 RES1    0.0000
     18 C10        2.8443    4.7081    9.6471 C.ar      1 RES1    0.0000
     19 H5         3.4853    4.6226    8.9497 H         1 RES1    0.0000
     20 C11        2.3263    5.9528    9.9726 C.ar      1 RES1    0.0000
     21 H6         2.6055    6.7179    9.4846 H         1 RES1    0.0000
     22 C12       -0.0994    5.0305   12.7735 C.3       1 RES1    0.0000
     23 H7        -0.4632    4.1350   12.9320 H         1 RES1    0.0000
     24 H8        -0.8193    5.6293   12.4848 H         1 RES1    0.0000
     25 H9         0.2972    5.3719   13.6028 H         1 RES1    0.0000
     26 C13       -0.3805   10.3209    9.4611 C.ar      1 RES1    0.0000
     27 C14       -1.2871    9.8654    8.5101 C.ar      1 RES1    0.0000
     28 H10       -1.6784    9.0051    8.6015 H         1 RES1    0.0000
     29 C15       -1.6196   10.6609    7.4312 C.ar      1 RES1    0.0000
     30 H11       -2.2529   10.3511    6.7958 H         1 RES1    0.0000
     31 C16       -1.0389   11.9043    7.2704 C.ar      1 RES1    0.0000
     32 H12       -1.2669   12.4453    6.5240 H         1 RES1    0.0000
     33 C17       -0.1284   12.3548    8.1988 C.ar      1 RES1    0.0000
     34 H13        0.2792   13.2056    8.0892 H         1 RES1    0.0000
     35 C18        0.1962   11.5689    9.2967 C.ar      1 RES1    0.0000
     36 H14        0.8182   11.8902    9.9403 H         1 RES1    0.0000
@<TRIPOS>BOND
     1    1    5 ar
     2    2    3 2
     3    4    2 2
     4    5    6 ar
     5    6    2 1
     6    7    6 ar
     7    8    7 1
     8    9    7 ar
     9   10    9 1
    10   11    1 ar
    11   12   11 1
    12   13   12 ar
    13   14   13 ar
    14   15   14 1
    15   16   14 ar
    16   17   16 1
    17   18   16 ar
    18   19   18 1
    19   20   12 ar
    20   21   20 1
    21   22   13 1
    22   23   22 1
    23   24   22 1
    24   25   22 1
    25   26    5 1
    26   27   26 ar
    27   28   27 1
    28   29   27 ar
    29   30   29 1
    30   31   29 ar
    31   32   31 1
    32   33   31 ar
    33   34   33 1
    34   35   26 ar
    35   36   35 1
    36    9   11 ar
    37   18   20 ar
    38   33   35 ar
@<TRIPOS>SUBSTRUCTURE
     1 RES1 1

@<TRIPOS>CRYSIN
   4.6807   10.9074   28.3760  90.0000  94.0860  90.0000  14 1

