# MOL2 file generated by ConQuest
# Please check atom types

@<TRIPOS>MOLECULE
GIQTIK
    44    45     1
SMALL
NO_CHARGES
****
Generated from CSD

@<TRIPOS>ATOM
      1 N1         7.1132    5.1382    0.8222 N.2       1 RES1    0.0000
      2 O1         5.9576    5.5643    0.1703 O.3       1 RES1    0.0000
      3 O2         9.1510    3.5969    1.3828 O.3       1 RES1    0.0000
      4 H1         8.4925    3.8423    0.9591 H         1 RES1    0.0000
      5 C1         5.3844    4.4626   -0.5399 C.3       1 RES1    0.0000
      6 H2         6.0850    3.9965   -1.0214 H         1 RES1    0.0000
      7 H3         4.7497    4.8004   -1.1903 H         1 RES1    0.0000
      8 C2         4.6813    3.4875    0.3766 C.3       1 RES1    0.0000
      9 H4         4.0458    3.9724    0.9263 H         1 RES1    0.0000
     10 H5         5.3346    3.0814    0.9673 H         1 RES1    0.0000
     11 C3         7.6085    6.0315    1.5953 C.2       1 RES1    0.0000
     12 H6         7.1979    6.8637    1.6559 H         1 RES1    0.0000
     13 C4         8.7930    5.7667    2.3737 C.ar      1 RES1    0.0000
     14 C5         9.5039    4.5609    2.2660 C.ar      1 RES1    0.0000
     15 C6        10.5855    4.3237    3.0784 C.ar      1 RES1    0.0000
     16 H7        11.0454    3.5186    3.0086 H         1 RES1    0.0000
     17 C7        10.9969    5.2635    3.9956 C.ar      1 RES1    0.0000
     18 H8        11.7330    5.0952    4.5383 H         1 RES1    0.0000
     19 C8        10.3113    6.4553    4.1084 C.ar      1 RES1    0.0000
     20 H9        10.5849    7.0932    4.7285 H         1 RES1    0.0000
     21 C9         9.2310    6.6977    3.3085 C.ar      1 RES1    0.0000
     22 H10        8.7775    7.5051    3.3906 H         1 RES1    0.0000
     23 N1B        1.5198    0.7468   -0.8222 N.2       1 RES1    0.0000
     24 O1B        2.6754    0.3207   -0.1703 O.3       1 RES1    0.0000
     25 O2B       -0.5180    2.2881   -1.3828 O.3       1 RES1    0.0000
     26 H1B        0.1405    2.0427   -0.9591 H         1 RES1    0.0000
     27 C1B        3.2486    1.4224    0.5399 C.3       1 RES1    0.0000
     28 H2B        2.5480    1.8885    1.0214 H         1 RES1    0.0000
     29 H3B        3.8833    1.0846    1.1903 H         1 RES1    0.0000
     30 C2B        3.9517    2.3975   -0.3766 C.3       1 RES1    0.0000
     31 H4B        4.5872    1.9126   -0.9263 H         1 RES1    0.0000
     32 H5B        3.2984    2.8036   -0.9673 H         1 RES1    0.0000
     33 C3B        1.0245   -0.1465   -1.5953 C.2       1 RES1    0.0000
     34 H6B        1.4351   -0.9787   -1.6559 H         1 RES1    0.0000
     35 C4B       -0.1600    0.1183   -2.3737 C.ar      1 RES1    0.0000
     36 C5B       -0.8709    1.3241   -2.2660 C.ar      1 RES1    0.0000
     37 C6B       -1.9525    1.5613   -3.0784 C.ar      1 RES1    0.0000
     38 H7B       -2.4124    2.3664   -3.0086 H         1 RES1    0.0000
     39 C7B       -2.3639    0.6215   -3.9956 C.ar      1 RES1    0.0000
     40 H8B       -3.1000    0.7898   -4.5383 H         1 RES1    0.0000
     41 C8B       -1.6783   -0.5703   -4.1084 C.ar      1 RES1    0.0000
     42 H9B       -1.9519   -1.2082   -4.7285 H         1 RES1    0.0000
     43 C9B       -0.5980   -0.8127   -3.3085 C.ar      1 RES1    0.0000
     44 H10B      -0.1445   -1.6201   -3.3906 H         1 RES1    0.0000
@<TRIPOS>BOND
     1    1    2 1
     2    2    5 1
     3    3    4 1
     4    5    6 1
     5    7    5 1
     6    8    5 1
     7    9    8 1
     8   10    8 1
     9   11    1 2
    10   12   11 1
    11   13   11 1
    12   14    3 1
    13   15   14 ar
    14   16   15 1
    15   17   15 ar
    16   18   17 1
    17   19   17 ar
    18   20   19 1
    19   21   13 ar
    20   22   21 1
    21   23   24 1
    22   24   27 1
    23   25   26 1
    24   27   28 1
    25   29   27 1
    26   30    8 1
    27   31   30 1
    28   32   30 1
    29   33   23 2
    30   34   33 1
    31   35   33 1
    32   36   25 1
    33   37   36 ar
    34   38   37 1
    35   39   37 ar
    36   40   39 1
    37   41   39 ar
    38   42   41 1
    39   43   35 ar
    40   44   43 1
    41   13   14 ar
    42   19   21 ar
    43   27   30 1
    44   35   36 ar
    45   41   43 ar
@<TRIPOS>SUBSTRUCTURE
     1 RES1 1

@<TRIPOS>CRYSIN
   8.6330    5.8850   16.4920  90.0000  96.2000  90.0000  14 1

