# MOL2 file generated by ConQuest
# Please check atom types

@<TRIPOS>MOLECULE
GIQVEJ01
    28    30     1
SMALL
NO_CHARGES
****
Generated from CSD

@<TRIPOS>ATOM
      1 N1         2.9569    4.2646   11.6137 N.ar      1 RES1    0.0000
      2 C1         1.2480    5.4772   15.1744 C.ar      1 RES1    0.0000
      3 C2         1.2375    6.3617   14.1372 C.ar      1 RES1    0.0000
      4 H1         0.8581    7.2051   14.2333 H         1 RES1    0.0000
      5 C3         2.3867    4.6739   12.7877 C.ar      1 RES1    0.0000
      6 C4         1.8151    5.9647   12.9177 C.ar      1 RES1    0.0000
      7 C5         3.5486    4.6941    9.3190 C.ar      1 RES1    0.0000
      8 C6         2.3689    3.8016   13.8960 C.ar      1 RES1    0.0000
      9 H2         2.7449    2.9539   13.8234 H         1 RES1    0.0000
     10 N2         1.8139    6.8396   11.8610 N.ar      1 RES1    0.0000
     11 N3         0.6168    5.8662   16.4475 N.pl3     1 RES1    0.0000
     12 C7         2.9607    5.1231   10.6081 C.ar      1 RES1    0.0000
     13 C8         2.3689    6.4137   10.7611 C.ar      1 RES1    0.0000
     14 H3         2.3803    6.9875   10.0290 H         1 RES1    0.0000
     15 O1         0.4396    4.9978   17.2819 O.2       1 RES1    0.0000
     16 C9         1.8025    4.1943   15.0748 C.ar      1 RES1    0.0000
     17 H4         1.7848    3.6170   15.8036 H         1 RES1    0.0000
     18 C10        3.9648    5.6119    8.3584 C.ar      1 RES1    0.0000
     19 H5         3.8764    6.5241    8.5183 H         1 RES1    0.0000
     20 C11        3.6816    3.3439    9.0331 C.ar      1 RES1    0.0000
     21 H6         3.4024    2.7156    9.6594 H         1 RES1    0.0000
     22 O2         0.2803    7.0287   16.6046 O.2       1 RES1    0.0000
     23 C12        4.5113    5.1691    7.1636 C.ar      1 RES1    0.0000
     24 H7         4.7914    5.7880    6.5286 H         1 RES1    0.0000
     25 C13        4.2191    2.9145    7.8383 C.ar      1 RES1    0.0000
     26 H8         4.2950    2.0038    7.6625 H         1 RES1    0.0000
     27 C14        4.6425    3.8318    6.9049 C.ar      1 RES1    0.0000
     28 H9         5.0163    3.5457    6.1032 H         1 RES1    0.0000
@<TRIPOS>BOND
     1    1    5 ar
     2    2    3 ar
     3    3    4 1
     4    5    6 ar
     5    6    3 ar
     6    7   12 1
     7    8    5 ar
     8    9    8 1
     9   10    6 ar
    10   11    2 1
    11   12    1 ar
    12   13   10 ar
    13   14   13 1
    14   15   11 2
    15   16    2 ar
    16   17   16 1
    17   18    7 ar
    18   19   18 1
    19   20    7 ar
    20   21   20 1
    21   22   11 2
    22   23   18 ar
    23   24   23 1
    24   25   20 ar
    25   26   25 1
    26   27   23 ar
    27   28   27 1
    28    8   16 ar
    29   12   13 ar
    30   25   27 ar
@<TRIPOS>SUBSTRUCTURE
     1 RES1 1

@<TRIPOS>CRYSIN
   3.9286   11.3555   13.3245  78.5360  83.0120  81.0830   2 1

