# MOL2 file generated by ConQuest
# Please check atom types

@<TRIPOS>MOLECULE
GIRKIC
    44    47     1
SMALL
NO_CHARGES
****
Generated from CSD

@<TRIPOS>ATOM
      1 N1        -1.9985    1.6900   10.2619 N.pl3     1 RES1    0.0000
      2 N2         4.6343    2.7271    7.4873 N.3       1 RES1    0.0000
      3 O1        -3.1450    1.7702   10.6894 O.2       1 RES1    0.0000
      4 O2        -1.3101    2.6561    9.9658 O.2       1 RES1    0.0000
      5 O3         2.1103   -2.3797    8.4595 O.2       1 RES1    0.0000
      6 O4         2.2096   -0.1424    8.2567 O.3       1 RES1    0.0000
      7 O5         1.9987    1.0786    5.9332 O.3       1 RES1    0.0000
      8 O6         0.0727    2.1676    6.3490 O.2       1 RES1    0.0000
      9 C1        -1.4180    0.3457   10.1170 C.ar      1 RES1    0.0000
     10 C2        -2.1172   -0.7390   10.6047 C.ar      1 RES1    0.0000
     11 H1        -2.9475   -0.6171   11.0490 H         1 RES1    0.0000
     12 C3        -1.5904   -2.0073   10.4364 C.ar      1 RES1    0.0000
     13 H2        -2.0602   -2.7655   10.7644 H         1 RES1    0.0000
     14 C4        -0.3739   -2.1710    9.7889 C.ar      1 RES1    0.0000
     15 H3        -0.0158   -3.0419    9.6618 H         1 RES1    0.0000
     16 C5         0.3215   -1.0529    9.3235 C.ar      1 RES1    0.0000
     17 C6        -0.1956    0.2246    9.4753 C.ar      1 RES1    0.0000
     18 H4         0.2688    0.9878    9.1523 H         1 RES1    0.0000
     19 C7         1.6359   -1.2850    8.6428 C.2       1 RES1    0.0000
     20 C8         3.3643   -0.2355    7.3683 C.3       1 RES1    0.0000
     21 H5         3.2426   -1.0195    6.7602 H         1 RES1    0.0000
     22 C9         4.6220   -0.4409    8.1898 C.3       1 RES1    0.0000
     23 H6         4.5344   -1.2592    8.7210 H         1 RES1    0.0000
     24 H7         4.7503    0.3248    8.7873 H         1 RES1    0.0000
     25 H8         5.3938   -0.5219    7.5902 H         1 RES1    0.0000
     26 C10        3.3065    1.0538    6.5345 C.3       1 RES1    0.0000
     27 C11        1.2519    2.0566    6.6049 C.2       1 RES1    0.0000
     28 C12        2.1124    2.8523    7.4581 C.2       1 RES1    0.0000
     29 H9         1.8571    3.5838    8.0084 H         1 RES1    0.0000
     30 C13        3.3563    2.3371    7.3089 C.2       1 RES1    0.0000
     31 C14        5.4917    2.1025    6.4184 C.3       1 RES1    0.0000
     32 H10        6.2053    1.5355    6.8308 H         1 RES1    0.0000
     33 C15        4.5176    1.2274    5.5917 C.3       1 RES1    0.0000
     34 H11        4.2541    1.6833    4.7527 H         1 RES1    0.0000
     35 H12        4.9250    0.3532    5.3697 H         1 RES1    0.0000
     36 C16        5.0311    4.1190    7.7542 C.3       1 RES1    0.0000
     37 H13        5.2150    4.2584    8.7167 H         1 RES1    0.0000
     38 H14        4.3255    4.7511    7.4652 H         1 RES1    0.0000
     39 C17        6.3061    4.2952    6.9177 C.3       1 RES1    0.0000
     40 H15        6.3943    5.2270    6.5962 H         1 RES1    0.0000
     41 H16        7.1108    4.0572    7.4435 H         1 RES1    0.0000
     42 C18        6.1064    3.3266    5.7499 C.3       1 RES1    0.0000
     43 H17        5.4956    3.7074    5.0699 H         1 RES1    0.0000
     44 H18        6.9695    3.1037    5.3198 H         1 RES1    0.0000
@<TRIPOS>BOND
     1    1    3 2
     2    2   30 1
     3    4    1 2
     4    5   19 2
     5    6   19 1
     6    7   26 1
     7    8   27 2
     8    9    1 1
     9   10    9 ar
    10   11   10 1
    11   12   10 ar
    12   13   12 1
    13   14   12 ar
    14   15   14 1
    15   16   14 ar
    16   17    9 ar
    17   18   17 1
    18   19   16 1
    19   20    6 1
    20   21   20 1
    21   22   20 1
    22   23   22 1
    23   24   22 1
    24   25   22 1
    25   26   20 1
    26   27    7 1
    27   28   27 1
    28   29   28 1
    29   30   26 1
    30   31    2 1
    31   32   31 1
    32   33   26 1
    33   34   33 1
    34   35   33 1
    35   36    2 1
    36   37   36 1
    37   38   36 1
    38   39   36 1
    39   40   39 1
    40   41   39 1
    41   42   31 1
    42   43   42 1
    43   44   42 1
    44   16   17 ar
    45   28   30 2
    46   31   33 1
    47   39   42 1
@<TRIPOS>SUBSTRUCTURE
     1 RES1 1

@<TRIPOS>CRYSIN
   9.0290    8.3499   11.5722  90.0000 110.1590  90.0000   4 1

