# MOL2 file generated by ConQuest
# Please check atom types

@<TRIPOS>MOLECULE
GIRKEY
    41    44     1
SMALL
NO_CHARGES
****
Generated from CSD

@<TRIPOS>ATOM
      1 C1         2.7188    4.5289   -1.5527 C.ar      1 RES1    0.0000
      2 H1         2.3468    5.0727   -2.2371 H         1 RES1    0.0000
      3 C2         3.1752    3.2605   -1.8568 C.ar      1 RES1    0.0000
      4 H2         3.1268    2.9467   -2.7528 H         1 RES1    0.0000
      5 C3         3.6989    2.4485   -0.8798 C.ar      1 RES1    0.0000
      6 H3         3.9987    1.5697   -1.0798 H         1 RES1    0.0000
      7 C4         3.7735    2.9544    0.4104 C.ar      1 RES1    0.0000
      8 C5         3.3419    4.2166    0.7492 C.ar      1 RES1    0.0000
      9 H4         3.4132    4.5336    1.6417 H         1 RES1    0.0000
     10 C6         2.7997    5.0148   -0.2497 C.ar      1 RES1    0.0000
     11 C7         2.3493    6.4038    0.0358 C.2       1 RES1    0.0000
     12 C8         2.3653    8.1123    1.7111 C.3       1 RES1    0.0000
     13 H5         1.4666    8.3813    1.3966 H         1 RES1    0.0000
     14 H6         3.0316    8.7467    1.3434 H         1 RES1    0.0000
     15 C9         2.4157    8.1124    3.2302 C.3       1 RES1    0.0000
     16 C10        1.9567    6.0510    4.1760 C.2       1 RES1    0.0000
     17 C11        3.3813    6.2549    4.2766 C.2       1 RES1    0.0000
     18 H7         4.0155    5.6282    4.6037 H         1 RES1    0.0000
     19 C12        3.6484    7.4999    3.8199 C.2       1 RES1    0.0000
     20 C13        5.7153    8.3989    4.8720 C.3       1 RES1    0.0000
     21 H8         6.5083    7.9350    4.5043 H         1 RES1    0.0000
     22 H9         5.4292    7.9392    5.7021 H         1 RES1    0.0000
     23 C14        6.0197    9.8718    5.1390 C.3       1 RES1    0.0000
     24 H10        6.6868   10.2212    4.4962 H         1 RES1    0.0000
     25 H11        6.3598   10.0033    6.0605 H         1 RES1    0.0000
     26 C15        4.6628   10.5552    4.9506 C.3       1 RES1    0.0000
     27 H12        4.1095   10.4724    5.7680 H         1 RES1    0.0000
     28 H13        4.7779   11.5144    4.7344 H         1 RES1    0.0000
     29 C16        4.0212    9.8068    3.7817 C.3       1 RES1    0.0000
     30 H14        4.2829   10.2334    2.9146 H         1 RES1    0.0000
     31 C17        2.4988    9.5338    3.8049 C.3       1 RES1    0.0000
     32 H15        2.1394    9.5704    4.7274 H         1 RES1    0.0000
     33 H16        2.0087   10.1807    3.2383 H         1 RES1    0.0000
     34 N1         4.3723    2.1143    1.4833 N.pl3     1 RES1    0.0000
     35 N2         4.6226    8.4353    3.8872 N.3       1 RES1    0.0000
     36 O1         2.6643    6.7659    1.2826 O.3       1 RES1    0.0000
     37 O2         1.7910    7.1279   -0.7526 O.2       1 RES1    0.0000
     38 O3         1.3613    7.2256    3.6860 O.3       1 RES1    0.0000
     39 O4         4.6520    0.9571    1.2116 O.2       1 RES1    0.0000
     40 O5         4.5732    2.6304    2.5713 O.2       1 RES1    0.0000
     41 O6         1.2482    5.1166    4.4876 O.2       1 RES1    0.0000
@<TRIPOS>BOND
     1    1    2 1
     2    3    1 ar
     3    4    3 1
     4    5    3 ar
     5    6    5 1
     6    7    5 ar
     7    8    7 ar
     8    9    8 1
     9   10    1 ar
    10   11   10 1
    11   12   13 1
    12   14   12 1
    13   15   12 1
    14   16   17 1
    15   17   18 1
    16   19   15 1
    17   20   21 1
    18   22   20 1
    19   23   20 1
    20   24   23 1
    21   25   23 1
    22   26   23 1
    23   27   26 1
    24   28   26 1
    25   29   26 1
    26   30   29 1
    27   31   15 1
    28   32   31 1
    29   33   31 1
    30   34    7 1
    31   35   19 1
    32   36   11 1
    33   37   11 2
    34   38   15 1
    35   39   34 2
    36   40   34 2
    37   41   16 2
    38    8   10 ar
    39   12   36 1
    40   16   38 1
    41   17   19 2
    42   20   35 1
    43   29   31 1
    44   29   35 1
@<TRIPOS>SUBSTRUCTURE
     1 RES1 1

@<TRIPOS>CRYSIN
   7.4410    9.4600   12.5000  68.0000  81.1300  75.9000   2 1

