# MOL2 file generated by ConQuest
# Please check atom types

@<TRIPOS>MOLECULE
GIRMUS
    60    64     1
SMALL
NO_CHARGES
****
Generated from CSD

@<TRIPOS>ATOM
      1 O1         1.0052    0.9660   17.0965 O.2       1 RES1    0.0000
      2 O2         0.9637   -0.8081   14.1645 O.2       1 RES1    0.0000
      3 O3         6.3651    4.5480   14.2899 O.2       1 RES1    0.0000
      4 O4         5.8936    6.6210   14.4274 O.2       1 RES1    0.0000
      5 O5        -4.8483    1.0256   12.6723 O.3       1 RES1    0.0000
      6 N1         5.5562    5.4574   14.2131 N.pl3     1 RES1    0.0000
      7 C1         4.4565    1.4435   17.8144 C.ar      1 RES1    0.0000
      8 C2         5.3445    1.4316   18.8861 C.ar      1 RES1    0.0000
      9 C3         4.9558    0.7952   20.0487 C.ar      1 RES1    0.0000
     10 C4         3.6738    0.1996   20.1357 C.ar      1 RES1    0.0000
     11 C5         2.8185    0.2750   19.0539 C.ar      1 RES1    0.0000
     12 C6         3.2274    0.8776   17.8973 C.ar      1 RES1    0.0000
     13 C7         2.2005    0.9630   16.7811 C.2       1 RES1    0.0000
     14 C8         2.5681    1.0424   15.3353 C.2       1 RES1    0.0000
     15 C9         3.6946    0.5520   14.8864 C.2       1 RES1    0.0000
     16 C10        3.9660    0.4904   13.4447 C.ar      1 RES1    0.0000
     17 C11        5.1014   -0.2393   12.9230 C.ar      1 RES1    0.0000
     18 C12        5.3313   -0.2998   11.5621 C.ar      1 RES1    0.0000
     19 C13        4.5071    0.3842   10.7129 C.ar      1 RES1    0.0000
     20 C14        3.4299    1.1348   11.2366 C.ar      1 RES1    0.0000
     21 C15        3.1489    1.2072   12.5712 C.ar      1 RES1    0.0000
     22 C16        2.0794    2.0640   13.1272 C.3       1 RES1    0.0000
     23 C17        1.4951    1.4971   14.4598 C.3       1 RES1    0.0000
     24 C18        2.5282    3.5234   13.3092 C.ar      1 RES1    0.0000
     25 C19        3.8347    3.8689   13.6712 C.ar      1 RES1    0.0000
     26 C20        4.1815    5.1824   13.8895 C.ar      1 RES1    0.0000
     27 C21        3.2369    6.1951   13.7318 C.ar      1 RES1    0.0000
     28 C22        1.9572    5.8585   13.3840 C.ar      1 RES1    0.0000
     29 C23        1.6437    4.5579   13.2182 C.ar      1 RES1    0.0000
     30 C24        0.5527    0.3246   14.1099 C.2       1 RES1    0.0000
     31 C25       -0.8439    0.6175   13.6873 C.ar      1 RES1    0.0000
     32 C26       -1.6597   -0.4666   13.2829 C.ar      1 RES1    0.0000
     33 C27       -2.9545   -0.2740   12.9574 C.ar      1 RES1    0.0000
     34 C28       -3.5306    1.0007   13.0099 C.ar      1 RES1    0.0000
     35 C29       -2.7629    2.0561   13.3658 C.ar      1 RES1    0.0000
     36 C30       -1.4398    1.8724   13.6934 C.ar      1 RES1    0.0000
     37 C31       -5.5041    2.3152   12.5934 C.3       1 RES1    0.0000
     38 H1         3.4737    7.0856   13.8592 H         1 RES1    0.0000
     39 H2         1.3127    6.5177   13.2647 H         1 RES1    0.0000
     40 H3         0.7562    4.3495   13.0302 H         1 RES1    0.0000
     41 H4         4.4768    3.2018   13.7642 H         1 RES1    0.0000
     42 H5         1.3491    2.0680   12.4741 H         1 RES1    0.0000
     43 H6         2.8857    1.6014   10.6441 H         1 RES1    0.0000
     44 H7         4.6532    0.3564    9.7949 H         1 RES1    0.0000
     45 H8         6.0393   -0.8012   11.2265 H         1 RES1    0.0000
     46 H9         5.6809   -0.6701   13.5094 H         1 RES1    0.0000
     47 H10        4.3308    0.2373   15.4870 H         1 RES1    0.0000
     48 H11        0.9834    2.2000   14.9127 H         1 RES1    0.0000
     49 H12        1.9634   -0.0844   19.1125 H         1 RES1    0.0000
     50 H13        3.4088   -0.2373   20.9122 H         1 RES1    0.0000
     51 H14        5.5364    0.7575   20.7747 H         1 RES1    0.0000
     52 H15        6.1766    1.8416   18.8234 H         1 RES1    0.0000
     53 H16        4.7137    1.8506   17.0177 H         1 RES1    0.0000
     54 H17       -0.9280    2.6130   13.9300 H         1 RES1    0.0000
     55 H18       -3.1315    2.9099   13.3881 H         1 RES1    0.0000
     56 H19       -3.4727   -0.9997   12.6925 H         1 RES1    0.0000
     57 H20       -1.2977   -1.3234   13.2405 H         1 RES1    0.0000
     58 H21       -5.5617    2.6994   13.4710 H         1 RES1    0.0000
     59 H22       -6.3882    2.2020   12.2355 H         1 RES1    0.0000
     60 H23       -4.9991    2.8970   12.0212 H         1 RES1    0.0000
@<TRIPOS>BOND
     1    1   13 2
     2    2   30 2
     3    3    6 2
     4    4    6 2
     5    5   34 1
     6    6   26 1
     7    7    8 ar
     8    8    9 ar
     9    9   10 ar
    10   10   11 ar
    11   11   12 ar
    12   12    7 ar
    13   13   12 1
    14   14   13 1
    15   15   14 2
    16   16   15 1
    17   17   16 ar
    18   18   17 ar
    19   19   18 ar
    20   20   19 ar
    21   21   16 ar
    22   22   21 1
    23   23   14 1
    24   24   22 1
    25   25   24 ar
    26   26   25 ar
    27   27   26 ar
    28   28   27 ar
    29   29   24 ar
    30   30   23 1
    31   31   30 1
    32   32   31 ar
    33   33   32 ar
    34   34   33 ar
    35   35   34 ar
    36   36   31 ar
    37   37    5 1
    38   38   27 1
    39   39   28 1
    40   40   29 1
    41   41   25 1
    42   42   22 1
    43   43   20 1
    44   44   19 1
    45   45   18 1
    46   46   17 1
    47   47   15 1
    48   48   23 1
    49   49   11 1
    50   50   10 1
    51   51    9 1
    52   52    8 1
    53   53    7 1
    54   54   36 1
    55   55   35 1
    56   56   33 1
    57   57   32 1
    58   58   37 1
    59   59   37 1
    60   60   37 1
    61   20   21 ar
    62   22   23 1
    63   28   29 ar
    64   35   36 ar
@<TRIPOS>SUBSTRUCTURE
     1 RES1 1

@<TRIPOS>CRYSIN
  13.5410    9.9280   20.2220  90.0000  90.6700  90.0000  14 1

