# MOL2 file generated by ConQuest
# Please check atom types

@<TRIPOS>MOLECULE
GISQUW
    29    30     1
SMALL
NO_CHARGES
****
Generated from CSD

@<TRIPOS>ATOM
      1 O1         5.5817    6.5345    9.4251 O.3       1 RES1    0.0000
      2 H1         6.3938    6.6801    9.6439 H         1 RES1    0.0000
      3 O2         0.0801    8.2731    1.2262 O.2       1 RES1    0.0000
      4 O3         0.1760    6.5530   -0.0360 O.2       1 RES1    0.0000
      5 N1         0.5747    7.2028    0.9223 N.pl3     1 RES1    0.0000
      6 C1         5.8248    4.3742    3.4126 C.2       1 RES1    0.0000
      7 H2         5.7196    4.1153    2.5040 H         1 RES1    0.0000
      8 H3         6.5665    4.0572    3.9149 H         1 RES1    0.0000
      9 C2         4.9326    5.1809    3.9820 C.2       1 RES1    0.0000
     10 C3         3.7683    5.6843    3.2114 C.ar      1 RES1    0.0000
     11 C4         3.1880    4.9182    2.1964 C.ar      1 RES1    0.0000
     12 H4         3.5174    4.0435    2.0234 H         1 RES1    0.0000
     13 C5         2.1461    5.4107    1.4415 C.ar      1 RES1    0.0000
     14 H5         1.7594    4.8895    0.7481 H         1 RES1    0.0000
     15 C6         1.6766    6.6790    1.7169 C.ar      1 RES1    0.0000
     16 C7         2.2122    7.4661    2.7151 C.ar      1 RES1    0.0000
     17 H6         1.8715    8.3368    2.8839 H         1 RES1    0.0000
     18 C8         3.2546    6.9585    3.4620 C.ar      1 RES1    0.0000
     19 H7         3.6295    7.4848    4.1591 H         1 RES1    0.0000
     20 C9         5.0955    5.6141    5.3952 C.ar      1 RES1    0.0000
     21 C10        6.3262    6.0647    5.8658 C.ar      1 RES1    0.0000
     22 H8         7.0494    6.1616    5.2580 H         1 RES1    0.0000
     23 C11        6.5184    6.3739    7.2029 C.ar      1 RES1    0.0000
     24 H9         7.3660    6.6781    7.5042 H         1 RES1    0.0000
     25 C12        5.4717    6.2380    8.0983 C.ar      1 RES1    0.0000
     26 C13        4.2335    5.8058    7.6478 C.ar      1 RES1    0.0000
     27 H10        3.5118    5.7140    8.2581 H         1 RES1    0.0000
     28 C14        4.0494    5.5085    6.3129 C.ar      1 RES1    0.0000
     29 H11        3.1933    5.2260    6.0119 H         1 RES1    0.0000
@<TRIPOS>BOND
     1    1    2 1
     2    3    5 2
     3    4    5 2
     4    5   15 1
     5    6    7 1
     6    8    6 1
     7    9    6 2
     8   10    9 1
     9   11   10 ar
    10   12   11 1
    11   13   11 ar
    12   14   13 1
    13   15   13 ar
    14   16   15 ar
    15   17   16 1
    16   18   10 ar
    17   19   18 1
    18   20    9 1
    19   21   20 ar
    20   22   21 1
    21   23   21 ar
    22   24   23 1
    23   25    1 1
    24   26   25 ar
    25   27   26 1
    26   28   20 ar
    27   29   28 1
    28   16   18 ar
    29   23   25 ar
    30   26   28 ar
@<TRIPOS>SUBSTRUCTURE
     1 RES1 1

@<TRIPOS>CRYSIN
   6.0965    9.8381   19.4703  90.0000  95.4970  90.0000 231 1

