# MOL2 file generated by ConQuest
# Please check atom types

@<TRIPOS>MOLECULE
GISXOW
    19    20     1
SMALL
NO_CHARGES
****
Generated from CSD

@<TRIPOS>ATOM
      1 O1        -2.4362    4.1756    3.2996 O.2       1 RES1    0.0000
      2 O2        -1.5520    5.7987    4.4263 O.2       1 RES1    0.0000
      3 O3         2.6363   -0.0446    5.5646 O.2       1 RES1    0.0000
      4 N1         2.0878    3.7238    7.0866 N.2       1 RES1    0.0000
      5 N2         3.1772    1.6291    7.0096 N.am      1 RES1    0.0000
      6 H1         3.8169    1.1374    7.3609 H         1 RES1    0.0000
      7 C1         2.9776    2.8858    7.5045 C.2       1 RES1    0.0000
      8 H2         3.5402    3.1679    8.2156 H         1 RES1    0.0000
      9 C2         2.4290    1.0965    5.9912 C.2       1 RES1    0.0000
     10 C3         1.3977    1.9970    5.4719 C.ar      1 RES1    0.0000
     11 C4         0.5566    1.6017    4.4216 C.ar      1 RES1    0.0000
     12 H3         0.6521    0.7374    4.0397 H         1 RES1    0.0000
     13 C5        -0.4073    2.4608    3.9407 C.ar      1 RES1    0.0000
     14 H4        -0.9847    2.2009    3.2331 H         1 RES1    0.0000
     15 C6        -0.5107    3.7263    4.5262 C.ar      1 RES1    0.0000
     16 C7         0.3001    4.1652    5.5465 C.ar      1 RES1    0.0000
     17 H5         0.2060    5.0405    5.9040 H         1 RES1    0.0000
     18 C8         1.2733    3.2790    6.0455 C.ar      1 RES1    0.0000
     19 N3        -1.5721    4.6368    4.0417 N.pl3     1 RES1    0.0000
@<TRIPOS>BOND
     1    1   19 2
     2    2   19 2
     3    3    9 2
     4    4    7 2
     5    5    6 1
     6    7    5 1
     7    8    7 1
     8    9    5 1
     9   10    9 1
    10   11   10 ar
    11   12   11 1
    12   13   11 ar
    13   14   13 1
    14   15   13 ar
    15   16   15 ar
    16   17   16 1
    17   18    4 1
    18   19   15 1
    19   10   18 ar
    20   16   18 ar
@<TRIPOS>SUBSTRUCTURE
     1 RES1 1

@<TRIPOS>CRYSIN
   5.1063   11.2060   13.5280  90.0000  99.1900  90.0000 231 1

