# MOL2 file generated by ConQuest
# Please check atom types

@<TRIPOS>MOLECULE
GITJEZ
    51    55     1
SMALL
NO_CHARGES
****
Generated from CSD

@<TRIPOS>ATOM
      1 O1         3.8132    8.6906    4.4273 O.2       1 RES1    0.0000
      2 O2         2.8592    6.8485    2.1069 O.3       1 RES1    0.0000
      3 O3        -3.5844    5.5757    7.4457 O.2       1 RES1    0.0000
      4 O4        -4.5531    6.4764    5.7580 O.2       1 RES1    0.0000
      5 N1         1.5328    6.9138    2.5601 N.2       1 RES1    0.0000
      6 N2        -3.5547    6.0805    6.3499 N.pl3     1 RES1    0.0000
      7 C1         3.7479    6.6114    3.2613 C.3       1 RES1    0.0000
      8 C2         4.8338    5.6721    2.7994 C.3       1 RES1    0.0000
      9 C3         5.6018    6.2258    1.5909 C.3       1 RES1    0.0000
     10 C4         6.0903    7.6352    1.8352 C.ar      1 RES1    0.0000
     11 C5         7.1808    8.1479    1.1463 C.ar      1 RES1    0.0000
     12 C6         7.5808    9.4583    1.3133 C.ar      1 RES1    0.0000
     13 C7         6.9019   10.2932    2.1649 C.ar      1 RES1    0.0000
     14 C8         5.8198    9.8119    2.8716 C.ar      1 RES1    0.0000
     15 C9         5.4218    8.4876    2.7241 C.ar      1 RES1    0.0000
     16 C10        4.3021    8.0067    3.5593 C.2       1 RES1    0.0000
     17 C11        2.8050    6.1388    4.3814 C.3       1 RES1    0.0000
     18 C12        1.4843    6.5571    3.7834 C.2       1 RES1    0.0000
     19 C13        0.1875    6.4864    4.4654 C.ar      1 RES1    0.0000
     20 C14        0.1139    6.1597    5.8070 C.ar      1 RES1    0.0000
     21 C15       -1.1096    6.0333    6.4358 C.ar      1 RES1    0.0000
     22 C16       -2.2521    6.2445    5.7018 C.ar      1 RES1    0.0000
     23 C17       -2.2121    6.6183    4.3843 C.ar      1 RES1    0.0000
     24 C18       -0.9899    6.7354    3.7634 C.ar      1 RES1    0.0000
     25 C19        2.8256    4.6644    4.7281 C.ar      1 RES1    0.0000
     26 C20        3.4265    4.2365    5.8990 C.ar      1 RES1    0.0000
     27 C21        3.4300    2.8940    6.2247 C.ar      1 RES1    0.0000
     28 C22        2.8439    1.9697    5.3877 C.ar      1 RES1    0.0000
     29 C23        2.2469    2.3851    4.2228 C.ar      1 RES1    0.0000
     30 C24        2.2310    3.7264    3.8973 C.ar      1 RES1    0.0000
     31 C25        6.6768    5.2666    1.1570 C.3       1 RES1    0.0000
     32 H1         4.4292    4.8017    2.5570 H         1 RES1    0.0000
     33 H2         5.4670    5.5163    3.5442 H         1 RES1    0.0000
     34 H3         4.9468    6.2781    0.8369 H         1 RES1    0.0000
     35 H4         7.6610    7.5865    0.5485 H         1 RES1    0.0000
     36 H5         8.3332    9.7855    0.8344 H         1 RES1    0.0000
     37 H6         7.1750   11.1976    2.2663 H         1 RES1    0.0000
     38 H7         5.3453   10.3871    3.4611 H         1 RES1    0.0000
     39 H8         2.9783    6.6755    5.2081 H         1 RES1    0.0000
     40 H9         0.9128    6.0205    6.3015 H         1 RES1    0.0000
     41 H10       -1.1608    5.8053    7.3571 H         1 RES1    0.0000
     42 H11       -3.0150    6.7933    3.9070 H         1 RES1    0.0000
     43 H12       -0.9491    6.9881    2.8490 H         1 RES1    0.0000
     44 H13        3.8372    4.8661    6.4799 H         1 RES1    0.0000
     45 H14        3.8392    2.6058    7.0321 H         1 RES1    0.0000
     46 H15        2.8540    1.0477    5.6162 H         1 RES1    0.0000
     47 H16        1.8440    1.7498    3.6419 H         1 RES1    0.0000
     48 H17        1.8093    4.0100    3.0958 H         1 RES1    0.0000
     49 H18        6.2965    4.3681    1.0690 H         1 RES1    0.0000
     50 H19        7.3928    5.2540    1.8264 H         1 RES1    0.0000
     51 H20        7.0413    5.5525    0.2944 H         1 RES1    0.0000
@<TRIPOS>BOND
     1    1   16 2
     2    2    5 1
     3    3    6 2
     4    4    6 2
     5    5   18 2
     6    6   22 1
     7    7    2 1
     8    8    7 1
     9    9    8 1
    10   10    9 1
    11   11   10 ar
    12   12   11 ar
    13   13   12 ar
    14   14   13 ar
    15   15   10 ar
    16   16    7 1
    17   17    7 1
    18   18   17 1
    19   19   18 1
    20   20   19 ar
    21   21   20 ar
    22   22   21 ar
    23   23   22 ar
    24   24   19 ar
    25   25   17 1
    26   26   25 ar
    27   27   26 ar
    28   28   27 ar
    29   29   28 ar
    30   30   25 ar
    31   31    9 1
    32   32    8 1
    33   33    8 1
    34   34    9 1
    35   35   11 1
    36   36   12 1
    37   37   13 1
    38   38   14 1
    39   39   17 1
    40   40   20 1
    41   41   21 1
    42   42   23 1
    43   43   24 1
    44   44   26 1
    45   45   27 1
    46   46   28 1
    47   47   29 1
    48   48   30 1
    49   49   31 1
    50   50   31 1
    51   51   31 1
    52   14   15 ar
    53   15   16 1
    54   23   24 ar
    55   29   30 ar
@<TRIPOS>SUBSTRUCTURE
     1 RES1 1

@<TRIPOS>CRYSIN
  10.6567   15.7071   12.7259  90.0000 106.2580  90.0000 231 1

