# MOL2 file generated by ConQuest
# Please check atom types

@<TRIPOS>MOLECULE
GITKOL
    46    48     1
SMALL
NO_CHARGES
****
Generated from CSD

@<TRIPOS>ATOM
      1 C1         4.5499    4.4724    5.9685 C.3       1 RES1    0.0000
      2 H1         5.1623    3.7404    6.2680 H         1 RES1    0.0000
      3 C2         3.5763    3.8741    4.9737 C.3       1 RES1    0.0000
      4 H2         2.8115    4.5040    4.8439 H         1 RES1    0.0000
      5 C3         4.2458    3.6054    3.6126 C.3       1 RES1    0.0000
      6 H3         5.0837    3.0862    3.7844 H         1 RES1    0.0000
      7 C4         4.6489    4.9637    3.0383 C.3       1 RES1    0.0000
      8 H4         5.1725    4.8226    2.2108 H         1 RES1    0.0000
      9 H5         3.8330    5.4695    2.7983 H         1 RES1    0.0000
     10 C5         5.4642    5.7723    4.0036 C.2       1 RES1    0.0000
     11 C6         5.3986    5.5388    5.3218 C.2       1 RES1    0.0000
     12 H6         5.9260    6.0860    5.8903 H         1 RES1    0.0000
     13 C7         3.8244    5.0062    7.2129 C.3       1 RES1    0.0000
     14 H7         3.4207    5.8830    6.9918 H         1 RES1    0.0000
     15 H8         3.0865    4.3861    7.4377 H         1 RES1    0.0000
     16 C8         4.6946    5.1740    8.4235 C.2       1 RES1    0.0000
     17 H9         4.3163    5.6069    9.1791 H         1 RES1    0.0000
     18 C9         3.3642    2.7688    2.7186 C.ar      1 RES1    0.0000
     19 C10        3.6113    1.3935    2.6021 C.ar      1 RES1    0.0000
     20 H10        4.3690    1.0117    3.0291 H         1 RES1    0.0000
     21 C11        2.7534    0.5861    1.8660 C.ar      1 RES1    0.0000
     22 H11        2.9348   -0.3453    1.8122 H         1 RES1    0.0000
     23 C12        1.6452    1.0883    1.2101 C.ar      1 RES1    0.0000
     24 C13        1.4176    2.4721    1.3068 C.ar      1 RES1    0.0000
     25 H12        0.6770    2.8588    0.8550 H         1 RES1    0.0000
     26 C14        2.2609    3.2795    2.0545 C.ar      1 RES1    0.0000
     27 H13        2.0769    4.2098    2.1138 H         1 RES1    0.0000
     28 C15        0.6937    0.1788    0.4810 C.3       1 RES1    0.0000
     29 H14        1.1932   -0.3721   -0.1574 H         1 RES1    0.0000
     30 H15        0.0312    0.7162    0.0000 H         1 RES1    0.0000
     31 H16        0.2379   -0.4013    1.1251 H         1 RES1    0.0000
     32 C16        6.3754    6.8302    3.4555 C.ar      1 RES1    0.0000
     33 C17        6.1553    7.3507    2.1665 C.ar      1 RES1    0.0000
     34 H17        5.4239    7.0333    1.6496 H         1 RES1    0.0000
     35 C18        6.9954    8.3198    1.6425 C.ar      1 RES1    0.0000
     36 H18        6.8264    8.6712    0.7763 H         1 RES1    0.0000
     37 C19        8.0728    8.7794    2.3674 C.ar      1 RES1    0.0000
     38 H19        8.6525    9.4337    1.9958 H         1 RES1    0.0000
     39 C20        8.3134    8.2797    3.6522 C.ar      1 RES1    0.0000
     40 H20        9.0507    8.5934    4.1621 H         1 RES1    0.0000
     41 C21        7.4566    7.3215    4.1647 C.ar      1 RES1    0.0000
     42 H21        7.6175    6.9883    5.0406 H         1 RES1    0.0000
     43 N1         3.0526    2.5657    5.5263 N.pl3     1 RES1    0.0000
     44 O1         5.8377    4.8007    8.5111 O.2       1 RES1    0.0000
     45 O2         3.8787    1.6744    5.7241 O.2       1 RES1    0.0000
     46 O3         1.8616    2.4527    5.7272 O.2       1 RES1    0.0000
@<TRIPOS>BOND
     1    1    2 1
     2    3    1 1
     3    4    3 1
     4    5    3 1
     5    6    5 1
     6    7    5 1
     7    8    7 1
     8    9    7 1
     9   10    7 1
    10   11    1 1
    11   12   11 1
    12   13    1 1
    13   14   13 1
    14   15   13 1
    15   16   13 1
    16   17   16 1
    17   18    5 1
    18   19   18 ar
    19   20   19 1
    20   21   19 ar
    21   22   21 1
    22   23   21 ar
    23   24   23 ar
    24   25   24 1
    25   26   18 ar
    26   27   26 1
    27   28   23 1
    28   29   28 1
    29   30   28 1
    30   31   28 1
    31   32   10 1
    32   33   32 ar
    33   34   33 1
    34   35   33 ar
    35   36   35 1
    36   37   35 ar
    37   38   37 1
    38   39   37 ar
    39   40   39 1
    40   41   32 ar
    41   42   41 1
    42   43    3 1
    43   44   16 2
    44   45   43 2
    45   46   43 2
    46   10   11 2
    47   24   26 ar
    48   39   41 ar
@<TRIPOS>SUBSTRUCTURE
     1 RES1 1

@<TRIPOS>CRYSIN
   5.3819   12.1599   26.2259  90.0000  90.0000  90.0000  19 1

