# MOL2 file generated by ConQuest
# Please check atom types

@<TRIPOS>MOLECULE
GITRAD
    48    51     1
SMALL
NO_CHARGES
****
Generated from CSD

@<TRIPOS>ATOM
      1 C1         2.3007    1.2287    5.8712 C.2       1 RES1    0.0000
      2 C2         2.0174    0.4261    6.8790 C.2       1 RES1    0.0000
      3 C3         2.3175   -1.0535    6.8866 C.3       1 RES1    0.0000
      4 C4         2.8784   -1.5317    8.2224 C.3       1 RES1    0.0000
      5 C5         2.0066   -1.0712    9.3646 C.3       1 RES1    0.0000
      6 C6         1.8877    0.4131    9.3627 C.3       1 RES1    0.0000
      7 C7         1.2752    0.9730    8.0756 C.3       1 RES1    0.0000
      8 C8        -0.2373    0.6641    7.9869 C.3       1 RES1    0.0000
      9 C9        -1.0426    1.7507    7.2685 C.3       1 RES1    0.0000
     10 C10       -0.6257    2.0833    5.8584 C.3       1 RES1    0.0000
     11 C11        0.5036    3.0883    5.7508 C.3       1 RES1    0.0000
     12 C12        1.2832    3.1853    4.5039 C.3       1 RES1    0.0000
     13 C13        1.9494    2.6586    5.7380 C.3       1 RES1    0.0000
     14 C14        2.4934    0.1125    3.7741 C.2       1 RES1    0.0000
     15 C15        3.4574   -0.3433    2.7531 C.ar      1 RES1    0.0000
     16 C16        4.8199   -0.0840    2.8240 C.ar      1 RES1    0.0000
     17 C17        5.6857   -0.5646    1.8801 C.ar      1 RES1    0.0000
     18 C18        5.1735   -1.3447    0.8561 C.ar      1 RES1    0.0000
     19 C19        3.8237   -1.6075    0.7443 C.ar      1 RES1    0.0000
     20 C20        2.9770   -1.1186    1.7024 C.ar      1 RES1    0.0000
     21 N1         6.0888   -1.8773   -0.1339 N.pl3     1 RES1    0.0000
     22 O1         3.0997    0.7410    4.7881 O.3       1 RES1    0.0000
     23 O2         1.3065   -0.0639    3.7151 O.2       1 RES1    0.0000
     24 O3         7.2866   -1.7862    0.0581 O.2       1 RES1    0.0000
     25 O4         5.6396   -2.4065   -1.1124 O.2       1 RES1    0.0000
     26 H1         1.4714   -1.5530    6.6958 H         1 RES1    0.0000
     27 H2         2.9870   -1.2476    6.1694 H         1 RES1    0.0000
     28 H3         3.8008   -1.1648    8.3424 H         1 RES1    0.0000
     29 H4         2.9174   -2.5331    8.2224 H         1 RES1    0.0000
     30 H5         2.4103   -1.3684   10.2311 H         1 RES1    0.0000
     31 H6         1.0956   -1.4737    9.2688 H         1 RES1    0.0000
     32 H7         1.3117    0.6889   10.1342 H         1 RES1    0.0000
     33 H8         2.8016    0.8061    9.4752 H         1 RES1    0.0000
     34 H9         1.3679    1.9697    8.0834 H         1 RES1    0.0000
     35 H10       -0.5943    0.5682    8.9172 H         1 RES1    0.0000
     36 H11       -0.3550   -0.1977    7.4938 H         1 RES1    0.0000
     37 H12       -0.9722    2.5888    7.8097 H         1 RES1    0.0000
     38 H13       -1.9960    1.4512    7.2390 H         1 RES1    0.0000
     39 H14       -1.4206    2.4538    5.3777 H         1 RES1    0.0000
     40 H15       -0.3314    1.2370    5.4135 H         1 RES1    0.0000
     41 H16       -0.0303    3.7227    6.3126 H         1 RES1    0.0000
     42 H17        1.5387    4.0838    4.1438 H         1 RES1    0.0000
     43 H18        1.0843    2.5674    3.7416 H         1 RES1    0.0000
     44 H19        2.7756    2.8918    6.2536 H         1 RES1    0.0000
     45 H20        5.1752    0.4664    3.5795 H         1 RES1    0.0000
     46 H21        6.6632   -0.3598    1.9287 H         1 RES1    0.0000
     47 H22        3.4698   -2.1449   -0.0211 H         1 RES1    0.0000
     48 H23        1.9989   -1.3210    1.6466 H         1 RES1    0.0000
@<TRIPOS>BOND
     1    1    2 2
     2    2    3 1
     3    3    4 1
     4    4    5 1
     5    5    6 1
     6    6    7 1
     7    7    2 1
     8    8    7 1
     9    9    8 1
    10   10    9 1
    11   11   10 1
    12   12   11 1
    13   13    1 1
    14   14   15 1
    15   15   16 ar
    16   16   17 ar
    17   17   18 ar
    18   18   19 ar
    19   19   20 ar
    20   20   15 ar
    21   21   18 1
    22   22    1 1
    23   23   14 2
    24   24   21 2
    25   25   21 2
    26   26    3 1
    27   27    3 1
    28   28    4 1
    29   29    4 1
    30   30    5 1
    31   31    5 1
    32   32    6 1
    33   33    6 1
    34   34    7 1
    35   35    8 1
    36   36    8 1
    37   37    9 1
    38   38    9 1
    39   39   10 1
    40   40   10 1
    41   41   11 1
    42   42   12 1
    43   43   12 1
    44   44   13 1
    45   45   16 1
    46   46   17 1
    47   47   19 1
    48   48   20 1
    49   11   13 1
    50   12   13 1
    51   14   22 1
@<TRIPOS>SUBSTRUCTURE
     1 RES1 1

@<TRIPOS>CRYSIN
   7.0770   11.8370   21.0560  90.0000  89.8900  90.0000  14 1

