# MOL2 file generated by ConQuest
# Please check atom types

@<TRIPOS>MOLECULE
GIVGEZ
    47    49     1
SMALL
NO_CHARGES
****
Generated from CSD

@<TRIPOS>ATOM
      1 C1         1.4408    4.5215    6.5604 C.ar      1 RES1    0.0000
      2 C2         2.2275    3.8465    7.6390 C.3       1 RES1    0.0000
      3 H1         2.0673    4.3097    8.4755 H         1 RES1    0.0000
      4 H2         3.1724    3.9316    7.4334 H         1 RES1    0.0000
      5 C3         1.9001    2.3690    7.8277 C.3       1 RES1    0.0000
      6 H3         2.2286    2.0948    8.6989 H         1 RES1    0.0000
      7 H4         0.9345    2.2712    7.8390 H         1 RES1    0.0000
      8 C4         2.4630    1.4115    6.7841 C.3       1 RES1    0.0000
      9 H5         3.4216    1.5501    6.7320 H         1 RES1    0.0000
     10 H6         2.3193    0.5049    7.0964 H         1 RES1    0.0000
     11 C5         1.8917    1.5250    5.3811 C.3       1 RES1    0.0000
     12 H7         1.7577    0.6295    5.0347 H         1 RES1    0.0000
     13 H8         1.0202    1.9459    5.4415 H         1 RES1    0.0000
     14 C6         2.7244    2.3008    4.3800 C.3       1 RES1    0.0000
     15 H9         2.2609    2.2976    3.5283 H         1 RES1    0.0000
     16 H10        3.5648    1.8346    4.2546 H         1 RES1    0.0000
     17 C7         3.0285    3.7479    4.7572 C.3       1 RES1    0.0000
     18 H11        3.6907    3.7563    5.4652 H         1 RES1    0.0000
     19 H12        3.4125    4.1995    3.9888 H         1 RES1    0.0000
     20 C8         1.8140    4.5088    5.2151 C.ar      1 RES1    0.0000
     21 C9         0.9778    5.1628    4.3070 C.ar      1 RES1    0.0000
     22 C10       -0.1629    5.8099    4.7742 C.ar      1 RES1    0.0000
     23 C11       -0.4454    5.7419    6.1459 C.ar      1 RES1    0.0000
     24 C12       -1.0600    6.4921    3.8877 C.1       1 RES1    0.0000
     25 C13       -1.9316    6.1796    7.9583 C.3       1 RES1    0.0000
     26 H13       -1.1840    6.4078    8.5330 H         1 RES1    0.0000
     27 H14       -2.1814    5.2579    8.1286 H         1 RES1    0.0000
     28 C14       -3.0664    7.0712    8.2246 C.3       1 RES1    0.0000
     29 H15       -2.8001    7.9811    8.0762 H         1 RES1    0.0000
     30 H16       -3.3493    6.9657    9.1358 H         1 RES1    0.0000
     31 H17       -3.7919    6.8499    7.6356 H         1 RES1    0.0000
     32 C15        1.2768    5.1722    2.8441 C.ar      1 RES1    0.0000
     33 C16        0.7617    4.1916    2.0129 C.ar      1 RES1    0.0000
     34 H18        0.2072    3.5324    2.3638 H         1 RES1    0.0000
     35 C17        1.0661    4.1862    0.6627 C.ar      1 RES1    0.0000
     36 H19        0.7238    3.5170    0.1161 H         1 RES1    0.0000
     37 C18        1.8683    5.1586    0.1214 C.ar      1 RES1    0.0000
     38 H20        2.0683    5.1608   -0.7863 H         1 RES1    0.0000
     39 C19        2.3623    6.1182    0.9495 C.ar      1 RES1    0.0000
     40 C20        2.0866    6.1456    2.2993 C.ar      1 RES1    0.0000
     41 H21        2.4431    6.8146    2.8381 H         1 RES1    0.0000
     42 N1         0.3213    5.1176    7.0062 N.ar      1 RES1    0.0000
     43 N2         3.2492    7.1614    0.4061 N.pl3     1 RES1    0.0000
     44 N3        -1.7865    7.0174    3.1918 N.1       1 RES1    0.0000
     45 O1        -1.5645    6.3521    6.5614 O.3       1 RES1    0.0000
     46 O2         3.3719    7.2336   -0.7928 O.2       1 RES1    0.0000
     47 O3         3.8131    7.9058    1.1792 O.2       1 RES1    0.0000
@<TRIPOS>BOND
     1    1    2 1
     2    2    3 1
     3    4    2 1
     4    5    2 1
     5    6    5 1
     6    7    5 1
     7    8    5 1
     8    9    8 1
     9   10    8 1
    10   11    8 1
    11   12   11 1
    12   13   11 1
    13   14   11 1
    14   15   14 1
    15   16   14 1
    16   17   14 1
    17   18   17 1
    18   19   17 1
    19   20    1 ar
    20   21   20 ar
    21   22   21 ar
    22   23   22 ar
    23   24   22 1
    24   25   26 1
    25   27   25 1
    26   28   25 1
    27   29   28 1
    28   30   28 1
    29   31   28 1
    30   32   21 1
    31   33   32 ar
    32   34   33 1
    33   35   33 ar
    34   36   35 1
    35   37   35 ar
    36   38   37 1
    37   39   37 ar
    38   40   32 ar
    39   41   40 1
    40   42    1 ar
    41   43   39 1
    42   44   24 3
    43   45   23 1
    44   46   43 2
    45   47   43 2
    46   17   20 1
    47   23   42 ar
    48   25   45 1
    49   39   40 ar
@<TRIPOS>SUBSTRUCTURE
     1 RES1 1

@<TRIPOS>CRYSIN
  13.2948   11.0251   14.0788  90.0000 117.5660  90.0000  14 1

