# MOL2 file generated by ConQuest
# Please check atom types

@<TRIPOS>MOLECULE
GIVJAX
    25    26     1
SMALL
NO_CHARGES
****
Generated from CSD

@<TRIPOS>ATOM
      1 C1         4.3299    9.9692   17.1414 C.ar      1 RES1    0.0000
      2 C2         3.7908   11.1609   17.5471 C.ar      1 RES1    0.0000
      3 H1         4.0068   11.9525   17.1091 H         1 RES1    0.0000
      4 C3         2.9267   11.1659   18.6122 C.ar      1 RES1    0.0000
      5 H2         2.5544   11.9697   18.8951 H         1 RES1    0.0000
      6 C4         2.5967    9.9914   19.2773 C.ar      1 RES1    0.0000
      7 C5         3.1559    8.8114   18.8380 C.ar      1 RES1    0.0000
      8 H3         2.9445    8.0170   19.2718 H         1 RES1    0.0000
      9 C6         4.0195    8.7859   17.7706 C.ar      1 RES1    0.0000
     10 H4         4.3878    7.9837   17.4794 H         1 RES1    0.0000
     11 C7         1.6611   10.0105   20.4674 C.3       1 RES1    0.0000
     12 H5         0.8354   10.4541   20.2177 H         1 RES1    0.0000
     13 H6         1.4451    9.0997   20.7192 H         1 RES1    0.0000
     14 C8         2.2659   10.7193   21.6455 C.ar      1 RES1    0.0000
     15 C9         2.0175   12.0491   21.9043 C.ar      1 RES1    0.0000
     16 H7         1.4324   12.5056   21.3435 H         1 RES1    0.0000
     17 C10        3.3642   12.0158   23.6901 C.ar      1 RES1    0.0000
     18 H8         3.7725   12.4326   24.4140 H         1 RES1    0.0000
     19 C11        3.6048   10.7022   23.4626 C.ar      1 RES1    0.0000
     20 H9         4.1608   10.2425   24.0500 H         1 RES1    0.0000
     21 N1         5.2687    9.9526   16.0161 N.pl3     1 RES1    0.0000
     22 N2         2.5699   12.7174   22.9154 N.ar      1 RES1    0.0000
     23 N3         3.0780   10.0409   22.4327 N.ar      1 RES1    0.0000
     24 O1         5.7650    8.8910   15.6868 O.2       1 RES1    0.0000
     25 O2         5.5203   11.0073   15.4606 O.2       1 RES1    0.0000
@<TRIPOS>BOND
     1    1    2 ar
     2    2    3 1
     3    4    2 ar
     4    5    4 1
     5    6    4 ar
     6    7    6 ar
     7    8    7 1
     8    9    1 ar
     9   10    9 1
    10   11    6 1
    11   12   11 1
    12   13   11 1
    13   14   11 1
    14   15   14 ar
    15   16   15 1
    16   17   18 1
    17   19   17 ar
    18   20   19 1
    19   21    1 1
    20   22   15 ar
    21   23   14 ar
    22   24   21 2
    23   25   21 2
    24    7    9 ar
    25   17   22 ar
    26   19   23 ar
@<TRIPOS>SUBSTRUCTURE
     1 RES1 1

@<TRIPOS>CRYSIN
   4.5573   10.7409   21.1615  90.0000  90.0000  90.0000  19 1

