# MOL2 file generated by ConQuest
# Please check atom types

@<TRIPOS>MOLECULE
GIWHOJ
    32    33     1
SMALL
NO_CHARGES
****
Generated from CSD

@<TRIPOS>ATOM
      1 O1         4.9016   14.0034   -1.9762 O.2       1 RES1    0.0000
      2 O2         5.3990   12.5227   -3.4324 O.2       1 RES1    0.0000
      3 N1         4.8610   12.8640   -2.3967 N.pl3     1 RES1    0.0000
      4 C1         1.2224    6.7340    1.2813 C.2       1 RES1    0.0000
      5 C2         0.2592    7.2752    2.2606 C.2       1 RES1    0.0000
      6 H1        -0.4049    7.8763    1.9154 H         1 RES1    0.0000
      7 C3         0.2092    7.0010    3.5452 C.2       1 RES1    0.0000
      8 H2        -0.4679    7.4465    4.0597 H         1 RES1    0.0000
      9 C4         1.0660    6.0629    4.2799 C.2       1 RES1    0.0000
     10 H3         1.5689    6.4313    5.0091 H         1 RES1    0.0000
     11 C5         1.2230    4.7920    4.0210 C.2       1 RES1    0.0000
     12 H4         1.8153    4.2923    4.5875 H         1 RES1    0.0000
     13 C6         0.5850    4.0510    2.9433 C.2       1 RES1    0.0000
     14 H5         0.0604    3.2913    3.2044 H         1 RES1    0.0000
     15 C7         0.6282    4.3308    1.6454 C.2       1 RES1    0.0000
     16 H6         0.1317    3.7525    1.0611 H         1 RES1    0.0000
     17 C8         1.3205    5.4346    1.0025 C.2       1 RES1    0.0000
     18 H7         1.9599    5.2033    0.3242 H         1 RES1    0.0000
     19 C9         1.9875    7.6864    0.4913 C.2       1 RES1    0.0000
     20 H8         2.5271    7.3323   -0.2202 H         1 RES1    0.0000
     21 C10        2.0159    9.0029    0.6573 C.2       1 RES1    0.0000
     22 H9         1.4912    9.3470    1.3842 H         1 RES1    0.0000
     23 C11        2.7423    9.9767   -0.1549 C.ar      1 RES1    0.0000
     24 C12        3.4603    9.6226   -1.2913 C.ar      1 RES1    0.0000
     25 H10        3.4814    8.7002   -1.5591 H         1 RES1    0.0000
     26 C13        4.1441   10.5550   -2.0227 C.ar      1 RES1    0.0000
     27 H11        4.6208   10.2994   -2.8149 H         1 RES1    0.0000
     28 C14        4.1212   11.8630   -1.6277 C.ar      1 RES1    0.0000
     29 C15        3.4141   12.2571   -0.5245 C.ar      1 RES1    0.0000
     30 H12        3.4021   13.1824   -0.2711 H         1 RES1    0.0000
     31 C16        2.7256   11.3161    0.2025 C.ar      1 RES1    0.0000
     32 H13        2.2250   11.5874    0.9759 H         1 RES1    0.0000
@<TRIPOS>BOND
     1    1    3 2
     2    2    3 2
     3    3   28 1
     4    4    5 1
     5    5    6 1
     6    7    5 2
     7    8    7 1
     8    9    7 1
     9   10    9 1
    10   11    9 2
    11   12   11 1
    12   13   11 1
    13   14   13 1
    14   15   13 2
    15   16   15 1
    16   17    4 2
    17   18   17 1
    18   19    4 1
    19   20   19 1
    20   21   19 2
    21   22   21 1
    22   23   21 1
    23   24   23 ar
    24   25   24 1
    25   26   24 ar
    26   27   26 1
    27   28   26 ar
    28   29   28 ar
    29   30   29 1
    30   31   23 ar
    31   32   31 1
    32   15   17 1
    33   29   31 ar
@<TRIPOS>SUBSTRUCTURE
     1 RES1 1

@<TRIPOS>CRYSIN
   8.3150   14.2790   11.0810  90.0000  93.0800  90.0000  14 1

