# MOL2 file generated by ConQuest
# Please check atom types

@<TRIPOS>MOLECULE
GIXJUU
    52    55     1
SMALL
NO_CHARGES
****
Generated from CSD

@<TRIPOS>ATOM
      1 C1         5.7944    4.0057   25.5531 C.ar      1 RES1    0.0000
      2 H1         5.9152    4.8313   25.1414 H         1 RES1    0.0000
      3 C2         4.7863    3.2074   25.1013 C.ar      1 RES1    0.0000
      4 H2         4.2339    3.4834   24.4046 H         1 RES1    0.0000
      5 C3         4.6090    1.9950   25.6947 C.ar      1 RES1    0.0000
      6 H3         3.9251    1.4303   25.4132 H         1 RES1    0.0000
      7 C4         5.4538    1.6125   26.7170 C.ar      1 RES1    0.0000
      8 H4         5.3568    0.7832   27.1265 H         1 RES1    0.0000
      9 C5         6.4416    2.4816   27.1151 C.ar      1 RES1    0.0000
     10 C6         7.4288    2.1433   28.2039 C.3       1 RES1    0.0000
     11 H5         8.2487    1.8304   27.7918 H         1 RES1    0.0000
     12 H6         7.6382    2.9538   28.6932 H         1 RES1    0.0000
     13 C7         7.6429   -0.1489   29.1270 C.3       1 RES1    0.0000
     14 H7         7.9477   -0.3226   28.2210 H         1 RES1    0.0000
     15 H8         6.9976   -0.8365   29.3549 H         1 RES1    0.0000
     16 C8         8.8209   -0.2687   30.0617 C.ar      1 RES1    0.0000
     17 C9         9.2338    0.7524   30.8786 C.ar      1 RES1    0.0000
     18 H9         8.7864    1.5677   30.8786 H         1 RES1    0.0000
     19 C10       10.3177    0.5532   31.6966 C.ar      1 RES1    0.0000
     20 H10       10.6106    1.2281   32.2664 H         1 RES1    0.0000
     21 C11       10.9597   -0.6513   31.6626 C.ar      1 RES1    0.0000
     22 H11       11.7054   -0.8087   32.1949 H         1 RES1    0.0000
     23 C12       10.4797   -1.6228   30.8232 C.ar      1 RES1    0.0000
     24 H12       10.9161   -2.4435   30.8107 H         1 RES1    0.0000
     25 C13        6.0775    1.4521   30.1364 C.ar      1 RES1    0.0000
     26 C14        5.4188    2.6905   30.1497 C.ar      1 RES1    0.0000
     27 H13        5.5929    3.3091   29.4765 H         1 RES1    0.0000
     28 C15        4.5202    3.0052   31.1401 C.ar      1 RES1    0.0000
     29 H14        4.1016    3.8351   31.1290 H         1 RES1    0.0000
     30 C16        4.2249    2.1136   32.1559 C.ar      1 RES1    0.0000
     31 C17        4.8610    0.8764   32.1491 C.ar      1 RES1    0.0000
     32 H15        4.6654    0.2597   32.8172 H         1 RES1    0.0000
     33 C18        5.7699    0.5490   31.1766 C.ar      1 RES1    0.0000
     34 H16        6.1898   -0.2802   31.2041 H         1 RES1    0.0000
     35 C19        2.0628    2.2323   34.9583 C.ar      1 RES1    0.0000
     36 C20        1.4776    3.4743   34.8879 C.ar      1 RES1    0.0000
     37 H17        1.7256    4.0657   34.2158 H         1 RES1    0.0000
     38 C21        0.5214    3.8490   35.8135 C.ar      1 RES1    0.0000
     39 H18        0.1206    4.6867   35.7681 H         1 RES1    0.0000
     40 C22        0.1789    2.9659   36.7929 C.ar      1 RES1    0.0000
     41 C23        0.7468    1.7384   36.8855 C.ar      1 RES1    0.0000
     42 H19        0.4966    1.1518   37.5637 H         1 RES1    0.0000
     43 C24        1.6995    1.3734   35.9609 C.ar      1 RES1    0.0000
     44 H20        2.0994    0.5357   36.0185 H         1 RES1    0.0000
     45 N1         6.6189    3.6747   26.5482 N.ar      1 RES1    0.0000
     46 N2         9.4243   -1.4618   30.0230 N.ar      1 RES1    0.0000
     47 N3         6.9734    1.1367   29.1492 N.pl3     1 RES1    0.0000
     48 N4         3.2919    2.5603   33.1152 N.2       1 RES1    0.0000
     49 N5         3.0435    1.7426   34.0341 N.2       1 RES1    0.0000
     50 N6        -0.8293    3.3738   37.7829 N.pl3     1 RES1    0.0000
     51 O1        -1.3649    4.4621   37.6366 O.2       1 RES1    0.0000
     52 O2        -1.0873    2.6178   38.6868 O.2       1 RES1    0.0000
@<TRIPOS>BOND
     1    1    2 1
     2    3    1 ar
     3    4    3 1
     4    5    3 ar
     5    6    5 1
     6    7    5 ar
     7    8    7 1
     8    9    7 ar
     9   10    9 1
    10   11   10 1
    11   12   10 1
    12   13   14 1
    13   15   13 1
    14   16   13 1
    15   17   16 ar
    16   18   17 1
    17   19   17 ar
    18   20   19 1
    19   21   19 ar
    20   22   21 1
    21   23   21 ar
    22   24   23 1
    23   25   26 ar
    24   26   27 1
    25   28   26 ar
    26   29   28 1
    27   30   28 ar
    28   31   30 ar
    29   32   31 1
    30   33   25 ar
    31   34   33 1
    32   35   36 ar
    33   36   37 1
    34   38   36 ar
    35   39   38 1
    36   40   38 ar
    37   41   40 ar
    38   42   41 1
    39   43   35 ar
    40   44   43 1
    41   45    1 ar
    42   46   16 ar
    43   47   10 1
    44   48   30 1
    45   49   35 1
    46   50   40 1
    47   51   50 2
    48   52   50 2
    49    9   45 ar
    50   13   47 1
    51   23   46 ar
    52   25   47 1
    53   31   33 ar
    54   41   43 ar
    55   48   49 2
@<TRIPOS>SUBSTRUCTURE
     1 RES1 1

@<TRIPOS>CRYSIN
   9.6546    6.0528   35.7968  90.0000  92.2940  90.0000  14 1

