# MOL2 file generated by ConQuest
# Please check atom types

@<TRIPOS>MOLECULE
GIYPAF
    60    60     1
SMALL
NO_CHARGES
****
Generated from CSD

@<TRIPOS>ATOM
      1 O1         1.4224    6.1947    9.9156 O.3       1 RES1    0.0000
      2 O2        -0.1113    7.4381   10.9409 O.2       1 RES1    0.0000
      3 O3         4.2744    5.7559    9.8656 O.3       1 RES1    0.0000
      4 O4         5.9657    7.1558    9.4386 O.2       1 RES1    0.0000
      5 O5         2.7698    7.0628   12.8524 O.3       1 RES1    0.0000
      6 O6         1.3739    5.5487   13.6908 O.2       1 RES1    0.0000
      7 O7         5.5286    6.5849   12.8402 O.3       1 RES1    0.0000
      8 O8         7.2027    5.2780   12.2008 O.2       1 RES1    0.0000
      9 O9        -4.5882    4.4925    4.3012 O.2       1 RES1    0.0000
     10 O10       -5.9577    6.0816    4.7782 O.2       1 RES1    0.0000
     11 N1         0.4964    7.9033    7.3770 N.2       1 RES1    0.0000
     12 N2        -0.7029    8.5070    7.1056 N.pl3     1 RES1    0.0000
     13 H1        -0.8292    9.3328    7.3080 H         1 RES1    0.0000
     14 N3         3.0466    6.8788    7.5871 N.2       1 RES1    0.0000
     15 N4         2.3315    5.9103    7.3302 N.1       1 RES1    0.0000
     16 N5         1.7857    4.9535    7.0022 N.2       1 RES1    0.0000
     17 N6        -4.8429    5.6026    4.7749 N.pl3     1 RES1    0.0000
     18 C1         1.2967    8.4922    8.1665 C.2       1 RES1    0.0000
     19 H2         1.0931    9.3402    8.4901 H         1 RES1    0.0000
     20 C2         2.5580    7.8272    8.5712 C.3       1 RES1    0.0000
     21 H3         3.2353    8.5324    8.6391 H         1 RES1    0.0000
     22 C3         2.3742    7.2584    9.9957 C.3       1 RES1    0.0000
     23 H4         1.9926    7.9646   10.5572 H         1 RES1    0.0000
     24 C4         3.6340    6.7583   10.6640 C.3       1 RES1    0.0000
     25 H5         4.2495    7.5079   10.8074 H         1 RES1    0.0000
     26 C5         3.3567    6.0657   11.9928 C.3       1 RES1    0.0000
     27 H6         2.7113    5.3415   11.8516 H         1 RES1    0.0000
     28 C6         4.5923    5.5106   12.6422 C.3       1 RES1    0.0000
     29 H7         4.3653    5.1068   13.4951 H         1 RES1    0.0000
     30 H8         4.9856    4.8276   12.0773 H         1 RES1    0.0000
     31 C7         0.1872    6.4284   10.3838 C.2       1 RES1    0.0000
     32 C8        -0.7231    5.3013   10.0802 C.3       1 RES1    0.0000
     33 H9        -0.3456    4.4851   10.4160 H         1 RES1    0.0000
     34 H10       -0.8398    5.2315    9.1295 H         1 RES1    0.0000
     35 H11       -1.5743    5.4557   10.4972 H         1 RES1    0.0000
     36 C9         5.4683    6.0805    9.2996 C.2       1 RES1    0.0000
     37 C10        5.9829    4.9460    8.5112 C.3       1 RES1    0.0000
     38 H12        5.3036    4.6426    7.9051 H         1 RES1    0.0000
     39 H13        6.2260    4.2292    9.1028 H         1 RES1    0.0000
     40 H14        6.7544    5.2252    8.0130 H         1 RES1    0.0000
     41 C11        1.8102    6.6557   13.7109 C.2       1 RES1    0.0000
     42 C12        1.4128    7.7236   14.6416 C.3       1 RES1    0.0000
     43 H15        0.4639    7.8579   14.5882 H         1 RES1    0.0000
     44 H16        1.8654    8.5377   14.4059 H         1 RES1    0.0000
     45 H17        1.6516    7.4730   15.5367 H         1 RES1    0.0000
     46 C13        6.8194    6.3523   12.5811 C.2       1 RES1    0.0000
     47 C14        7.6486    7.5407   12.8246 C.3       1 RES1    0.0000
     48 H18        7.4364    7.9075   13.6864 H         1 RES1    0.0000
     49 H19        7.4760    8.1962   12.1452 H         1 RES1    0.0000
     50 H20        8.5763    7.2933   12.8024 H         1 RES1    0.0000
     51 C15       -1.6975    7.7796    6.5063 C.ar      1 RES1    0.0000
     52 C16       -1.4483    6.5013    5.9692 C.ar      1 RES1    0.0000
     53 H21       -0.5960    6.1292    6.0059 H         1 RES1    0.0000
     54 C17       -2.4932    5.8109    5.3887 C.ar      1 RES1    0.0000
     55 H22       -2.3454    4.9693    5.0229 H         1 RES1    0.0000
     56 C18       -3.7458    6.3597    5.3498 C.ar      1 RES1    0.0000
     57 C19       -4.0023    7.6073    5.8802 C.ar      1 RES1    0.0000
     58 H23       -4.8600    7.9657    5.8491 H         1 RES1    0.0000
     59 C20       -2.9744    8.3093    6.4529 C.ar      1 RES1    0.0000
     60 H24       -3.1370    9.1520    6.8109 H         1 RES1    0.0000
@<TRIPOS>BOND
     1    1   22 1
     2    2   31 2
     3    3   24 1
     4    4   36 2
     5    5   26 1
     6    6   41 2
     7    7   28 1
     8    8   46 2
     9    9   17 2
    10   10   17 2
    11   11   12 1
    12   12   13 1
    13   14   15 2
    14   15   16 2
    15   17   56 1
    16   18   11 2
    17   19   18 1
    18   20   14 1
    19   21   20 1
    20   22   20 1
    21   23   22 1
    22   24   22 1
    23   25   24 1
    24   26   24 1
    25   27   26 1
    26   28   26 1
    27   29   28 1
    28   30   28 1
    29   31    1 1
    30   32   31 1
    31   33   32 1
    32   34   32 1
    33   35   32 1
    34   36    3 1
    35   37   36 1
    36   38   37 1
    37   39   37 1
    38   40   37 1
    39   41    5 1
    40   42   41 1
    41   43   42 1
    42   44   42 1
    43   45   42 1
    44   46    7 1
    45   47   46 1
    46   48   47 1
    47   49   47 1
    48   50   47 1
    49   51   12 1
    50   52   51 ar
    51   53   52 1
    52   54   52 ar
    53   55   54 1
    54   56   54 ar
    55   57   56 ar
    56   58   57 1
    57   59   51 ar
    58   60   59 1
    59   18   20 1
    60   57   59 ar
@<TRIPOS>SUBSTRUCTURE
     1 RES1 1

@<TRIPOS>CRYSIN
  10.6470   10.5730   11.1210  90.0000  90.8000  90.0000   4 1

