# MOL2 file generated by ConQuest
# Please check atom types

@<TRIPOS>MOLECULE
GLOXIM11
    10     9     1
SMALL
NO_CHARGES
****
Generated from CSD

@<TRIPOS>ATOM
      1 C1         0.3732    0.5733    0.2444 C.2       1 RES1    0.0000
      2 N1         0.1863    0.9406    1.4613 N.2       1 RES1    0.0000
      3 O1         0.9685    2.0303    1.8078 O.3       1 RES1    0.0000
      4 H1         1.0659    1.1048   -0.4120 H         1 RES1    0.0000
      5 H2         0.5613    2.3780    2.6455 H         1 RES1    0.0000
      6 C1B       -0.3732   -0.5733   -0.2444 C.2       1 RES1    0.0000
      7 N1B       -0.1863   -0.9406   -1.4613 N.2       1 RES1    0.0000
      8 H1B       -1.0659   -1.1048    0.4120 H         1 RES1    0.0000
      9 O1B       -0.9685   -2.0303   -1.8078 O.3       1 RES1    0.0000
     10 H2B       -0.5613   -2.3780   -2.6455 H         1 RES1    0.0000
@<TRIPOS>BOND
     1    1    2 2
     2    2    3 1
     3    3    5 1
     4    4    1 1
     5    6    1 1
     6    7    6 2
     7    8    6 1
     8    9    7 1
     9   10    9 1
@<TRIPOS>SUBSTRUCTURE
     1 RES1 1

@<TRIPOS>CRYSIN
   3.7450    4.3980   10.8520  90.0000  92.4100  90.0000  14 1

