# MOL2 file generated by ConQuest
# Please check atom types

@<TRIPOS>MOLECULE
GOCLEP
    52    56     1
SMALL
NO_CHARGES
****
Generated from CSD

@<TRIPOS>ATOM
      1 C1         1.0876    9.0263    2.7397 C.ar      1 RES1    0.0000
      2 C2         1.7853   10.2157    2.5773 C.ar      1 RES1    0.0000
      3 C3         1.3022   11.2193    1.6765 C.ar      1 RES1    0.0000
      4 C4         0.1894   10.9642    0.9123 C.ar      1 RES1    0.0000
      5 C5        -0.5152    9.7464    1.0082 C.ar      1 RES1    0.0000
      6 C6        -1.6731    9.4877    0.2196 C.ar      1 RES1    0.0000
      7 C7        -2.3504    8.3160    0.3377 C.ar      1 RES1    0.0000
      8 C8        -1.8812    7.3597    1.2394 C.ar      1 RES1    0.0000
      9 C9        -0.7792    7.5464    2.0251 C.ar      1 RES1    0.0000
     10 C10       -0.0736    8.7692    1.9411 C.ar      1 RES1    0.0000
     11 C11        1.5104    7.9899    3.7349 C.ar      1 RES1    0.0000
     12 C12        0.7889    7.8286    4.9143 C.ar      1 RES1    0.0000
     13 C13        1.1471    6.8572    5.8386 C.ar      1 RES1    0.0000
     14 C14        2.2266    6.0410    5.5877 C.ar      1 RES1    0.0000
     15 C15        2.9435    6.1840    4.4196 C.ar      1 RES1    0.0000
     16 C16        2.5949    7.1502    3.4976 C.ar      1 RES1    0.0000
     17 C17        3.0666   10.4149    3.3310 C.ar      1 RES1    0.0000
     18 C18        4.2786   10.4303    2.6362 C.ar      1 RES1    0.0000
     19 C19        5.4748   10.5615    3.3149 C.ar      1 RES1    0.0000
     20 C20        5.4487   10.7064    4.6841 C.ar      1 RES1    0.0000
     21 C21        4.2659   10.7154    5.4013 C.ar      1 RES1    0.0000
     22 C22        3.0794   10.5535    4.7147 C.ar      1 RES1    0.0000
     23 C23        1.9074   12.5847    1.5945 C.ar      1 RES1    0.0000
     24 C24        2.2248   13.1355    0.3575 C.ar      1 RES1    0.0000
     25 C25        2.6777   14.4463    0.2631 C.ar      1 RES1    0.0000
     26 C26        2.8032   15.2188    1.3879 C.ar      1 RES1    0.0000
     27 C27        2.4851   14.6827    2.6181 C.ar      1 RES1    0.0000
     28 C28        2.0441   13.3755    2.7267 C.ar      1 RES1    0.0000
     29 N1        -2.5835    6.0731    1.3410 N.pl3     1 RES1    0.0000
     30 O1        -3.6713    5.9609    0.7801 O.2       1 RES1    0.0000
     31 O2        -2.0491    5.1658    1.9608 O.2       1 RES1    0.0000
     32 N2         6.7183   10.8865    5.4065 N.pl3     1 RES1    0.0000
     33 O3         7.7577   10.9087    4.7563 O.2       1 RES1    0.0000
     34 O4         6.6817   10.9955    6.6296 O.2       1 RES1    0.0000
     35 H1        -0.1515   11.6307    0.3351 H         1 RES1    0.0000
     36 H2        -1.9823   10.1930   -0.3754 H         1 RES1    0.0000
     37 H3        -3.0826    8.1491   -0.1772 H         1 RES1    0.0000
     38 H4        -0.5121    6.8704    2.5841 H         1 RES1    0.0000
     39 H5         0.0704    8.4420    5.0957 H         1 RES1    0.0000
     40 H6         0.6105    6.7775    6.6665 H         1 RES1    0.0000
     41 H7         2.4715    5.4012    6.3153 H         1 RES1    0.0000
     42 H8         3.7234    5.6248    4.2628 H         1 RES1    0.0000
     43 H9         3.1238    7.2846    2.6614 H         1 RES1    0.0000
     44 H10        4.2866   10.3017    1.6481 H         1 RES1    0.0000
     45 H11        6.3490   10.6198    2.8532 H         1 RES1    0.0000
     46 H12        4.3119   10.8450    6.3427 H         1 RES1    0.0000
     47 H13        2.2246   10.5788    5.1618 H         1 RES1    0.0000
     48 H14        2.0654   12.5929   -0.4285 H         1 RES1    0.0000
     49 H15        2.8589   14.8132   -0.5671 H         1 RES1    0.0000
     50 H16        3.0916   16.1422    1.3372 H         1 RES1    0.0000
     51 H17        2.5687   15.2163    3.4009 H         1 RES1    0.0000
     52 H18        1.8485   13.0196    3.5830 H         1 RES1    0.0000
@<TRIPOS>BOND
     1    1    2 ar
     2    2    3 ar
     3    3    4 ar
     4    4    5 ar
     5    5    6 ar
     6    6    7 ar
     7    7    8 ar
     8    8    9 ar
     9    9   10 ar
    10   10    1 ar
    11   11    1 1
    12   12   11 ar
    13   13   12 ar
    14   14   13 ar
    15   15   14 ar
    16   16   11 ar
    17   17    2 1
    18   18   17 ar
    19   19   18 ar
    20   20   19 ar
    21   21   20 ar
    22   22   17 ar
    23   23    3 1
    24   24   23 ar
    25   25   24 ar
    26   26   25 ar
    27   27   26 ar
    28   28   23 ar
    29   29    8 1
    30   30   29 2
    31   31   29 2
    32   32   20 1
    33   33   32 2
    34   34   32 2
    35   35    4 1
    36   36    6 1
    37   37    7 1
    38   38    9 1
    39   39   12 1
    40   40   13 1
    41   41   14 1
    42   42   15 1
    43   43   16 1
    44   44   18 1
    45   45   19 1
    46   46   21 1
    47   47   22 1
    48   48   24 1
    49   49   25 1
    50   50   26 1
    51   51   27 1
    52   52   28 1
    53    5   10 ar
    54   15   16 ar
    55   21   22 ar
    56   27   28 ar
@<TRIPOS>SUBSTRUCTURE
     1 RES1 1

@<TRIPOS>CRYSIN
   8.7120   15.7470   16.1130  90.0000  91.0200  90.0000  14 1

