# MOL2 file generated by ConQuest
# Please check atom types

@<TRIPOS>MOLECULE
GOCTUP
    28    29     1
SMALL
NO_CHARGES
****
Generated from CSD

@<TRIPOS>ATOM
      1 O1         5.5477    8.5599    9.2546 O.3       1 RES1    0.0000
      2 H1         4.8919    8.3337    8.8184 H         1 RES1    0.0000
      3 C1         5.8477    7.5889   10.1568 C.ar      1 RES1    0.0000
      4 C2         6.9198    7.7502   11.0207 C.ar      1 RES1    0.0000
      5 H2         7.4301    8.5276   10.9986 H         1 RES1    0.0000
      6 C3         7.2201    6.7438   11.9137 C.ar      1 RES1    0.0000
      7 H3         7.9468    6.8387   12.4867 H         1 RES1    0.0000
      8 C4         6.4520    5.5928   11.9666 C.ar      1 RES1    0.0000
      9 H4         6.6607    4.9233   12.5780 H         1 RES1    0.0000
     10 C5         5.3768    5.4368   11.1147 C.ar      1 RES1    0.0000
     11 H5         4.8606    4.6641   11.1572 H         1 RES1    0.0000
     12 C6         5.0622    6.4307   10.1935 C.ar      1 RES1    0.0000
     13 N1         3.9936    6.4360    9.2668 N.2       1 RES1    0.0000
     14 C7         3.2005    5.4576    9.1397 C.2       1 RES1    0.0000
     15 H6         3.3280    4.7056    9.6706 H         1 RES1    0.0000
     16 C8         2.0862    5.4671    8.1839 C.ar      1 RES1    0.0000
     17 C9         1.2335    4.3682    8.1309 C.ar      1 RES1    0.0000
     18 H7         1.3694    3.6500    8.7063 H         1 RES1    0.0000
     19 C10        0.1855    4.3362    7.2287 C.ar      1 RES1    0.0000
     20 H8        -0.3865    3.6032    7.1941 H         1 RES1    0.0000
     21 C11        0.0038    5.4066    6.3842 C.ar      1 RES1    0.0000
     22 N2        -1.1081    5.3686    5.4181 N.pl3     1 RES1    0.0000
     23 O2        -1.9450    4.4969    5.5586 O.2       1 RES1    0.0000
     24 O3        -1.1399    6.1917    4.5306 O.2       1 RES1    0.0000
     25 C12        0.8403    6.5037    6.3971 C.ar      1 RES1    0.0000
     26 H9         0.7068    7.2088    5.8052 H         1 RES1    0.0000
     27 C13        1.8787    6.5345    7.3051 C.ar      1 RES1    0.0000
     28 H10        2.4453    7.2716    7.3334 H         1 RES1    0.0000
@<TRIPOS>BOND
     1    1    2 1
     2    3    1 1
     3    4    3 ar
     4    5    4 1
     5    6    4 ar
     6    7    6 1
     7    8    6 ar
     8    9    8 1
     9   10    8 ar
    10   11   10 1
    11   12    3 ar
    12   13   12 1
    13   14   13 2
    14   15   14 1
    15   16   14 1
    16   17   16 ar
    17   18   17 1
    18   19   17 ar
    19   20   19 1
    20   21   19 ar
    21   22   21 1
    22   23   22 2
    23   24   22 2
    24   25   21 ar
    25   26   25 1
    26   27   16 ar
    27   28   27 1
    28   10   12 ar
    29   25   27 ar
@<TRIPOS>SUBSTRUCTURE
     1 RES1 1

@<TRIPOS>CRYSIN
  11.9767    5.9302   16.1269  90.0000  96.6350  90.0000  14 1

