# MOL2 file generated by ConQuest
# Please check atom types

@<TRIPOS>MOLECULE
GODNUI
    24    26     1
SMALL
NO_CHARGES
****
Generated from CSD

@<TRIPOS>ATOM
      1 O1         0.0194    3.8592    3.8913 O.2       1 RES1    0.0000
      2 O2         2.0352    4.4399    4.3508 O.2       1 RES1    0.0000
      3 C1         1.7132    2.4214    3.2970 C.ar      1 RES1    0.0000
      4 C2         2.4122    2.5686    2.1279 C.ar      1 RES1    0.0000
      5 C3         2.8297    1.4406    1.4295 C.ar      1 RES1    0.0000
      6 C4         2.5016    0.2014    1.8899 C.ar      1 RES1    0.0000
      7 C5         1.7832    0.0542    3.0905 C.ar      1 RES1    0.0000
      8 N1         1.4698   -1.2531    3.4319 N.2       1 RES1    0.0000
      9 N2         0.7848   -1.4934    4.4912 N.2       1 RES1    0.0000
     10 N3         1.2219    3.6633    3.9034 N.pl3     1 RES1    0.0000
     11 C6         0.4185   -0.4598    5.3440 C.ar      1 RES1    0.0000
     12 C7        -0.2807   -0.8432    6.5038 C.ar      1 RES1    0.0000
     13 C8        -0.6207    0.0917    7.4292 C.ar      1 RES1    0.0000
     14 C9        -0.2552    1.4253    7.2488 C.ar      1 RES1    0.0000
     15 C10        0.4146    1.8185    6.1132 C.ar      1 RES1    0.0000
     16 C11        0.7410    0.8933    5.1115 C.ar      1 RES1    0.0000
     17 C12        1.3964    1.1711    3.8597 C.ar      1 RES1    0.0000
     18 H1         2.5620    3.4174    1.7206 H         1 RES1    0.0000
     19 H2         3.2912    1.5281    0.6045 H         1 RES1    0.0000
     20 H3         2.7283   -0.5835    1.4509 H         1 RES1    0.0000
     21 H4        -0.5095   -1.7504    6.6405 H         1 RES1    0.0000
     22 H5        -1.1151   -0.1667    8.2030 H         1 RES1    0.0000
     23 H6        -0.4629    2.0699    7.9147 H         1 RES1    0.0000
     24 H7         0.6515    2.7506    6.0360 H         1 RES1    0.0000
@<TRIPOS>BOND
     1    1   10 2
     2    2   10 2
     3    3    4 ar
     4    4    5 ar
     5    5    6 ar
     6    6    7 ar
     7    7    8 1
     8    8    9 2
     9    9   11 1
    10   10    3 1
    11   11   12 ar
    12   12   13 ar
    13   13   14 ar
    14   14   15 ar
    15   15   16 ar
    16   16   11 ar
    17   17    3 ar
    18   18    4 1
    19   19    5 1
    20   20    6 1
    21   21   12 1
    22   22   13 1
    23   23   14 1
    24   24   15 1
    25    7   17 ar
    26   16   17 1
@<TRIPOS>SUBSTRUCTURE
     1 RES1 1

@<TRIPOS>CRYSIN
   7.8940   13.8920    9.5560  90.0000 103.2800  90.0000 231 1

