# MOL2 file generated by ConQuest
# Please check atom types

@<TRIPOS>MOLECULE
GOFNUM
    60    61     1
SMALL
NO_CHARGES
****
Generated from CSD

@<TRIPOS>ATOM
      1 N1        10.0325    6.0619    8.6194 N.3       1 RES1    0.0000
      2 C1        10.9211    5.0763    8.2583 C.2       1 RES1    0.0000
      3 C2        10.3113    4.4337    7.1749 C.2       1 RES1    0.0000
      4 C3         9.0736    5.0856    6.9428 C.2       1 RES1    0.0000
      5 C4         8.8869    6.1082    7.8330 C.2       1 RES1    0.0000
      6 O1        10.2067    6.9114    9.7041 O.3       1 RES1    0.0000
      7 C5         9.6550    6.3018   10.9084 C.3       1 RES1    0.0000
      8 H1        10.1963    5.5167   11.1755 H         1 RES1    0.0000
      9 H2         8.7255    6.0036   10.7477 H         1 RES1    0.0000
     10 C6         9.6874    7.3503   11.9883 C.ar      1 RES1    0.0000
     11 C7        10.7717    8.2150   12.1358 C.ar      1 RES1    0.0000
     12 H3        11.4969    8.1729   11.5232 H         1 RES1    0.0000
     13 C8        10.7972    9.1383   13.1737 C.ar      1 RES1    0.0000
     14 H4        11.5352    9.7302   13.2630 H         1 RES1    0.0000
     15 C9         9.7526    9.1985   14.0770 C.ar      1 RES1    0.0000
     16 H5         9.7821    9.8142   14.7992 H         1 RES1    0.0000
     17 C10        8.6619    8.3585   13.9257 C.ar      1 RES1    0.0000
     18 H6         7.9385    8.4077   14.5394 H         1 RES1    0.0000
     19 C11        8.6235    7.4449   12.8798 C.ar      1 RES1    0.0000
     20 H7         7.8658    6.8810   12.7730 H         1 RES1    0.0000
     21 C12       12.3079    4.8473    8.8716 C.3       1 RES1    0.0000
     22 C13       13.3349    4.7087    7.7290 C.3       1 RES1    0.0000
     23 H8        14.2207    4.5239    8.1060 H         1 RES1    0.0000
     24 H9        13.3666    5.5427    7.2149 H         1 RES1    0.0000
     25 H10       13.0712    3.9720    7.1398 H         1 RES1    0.0000
     26 C14       12.8192    6.0041    9.7485 C.3       1 RES1    0.0000
     27 H11       13.7654    5.8608    9.9593 H         1 RES1    0.0000
     28 H12       12.3011    6.0382   10.5798 H         1 RES1    0.0000
     29 H13       12.7173    6.8505    9.2648 H         1 RES1    0.0000
     30 C15       12.2962    3.5563    9.7165 C.3       1 RES1    0.0000
     31 H14       12.0896    2.7910    9.1403 H         1 RES1    0.0000
     32 H15       11.6155    3.6305   10.4177 H         1 RES1    0.0000
     33 H16       13.1766    3.4275   10.1283 H         1 RES1    0.0000
     34 C16       10.7835    3.2561    6.4264 C.2       1 RES1    0.0000
     35 O2        11.4248    2.3373    6.8697 O.2       1 RES1    0.0000
     36 O3        10.3812    3.3024    5.1352 O.3       1 RES1    0.0000
     37 C17       10.5958    2.0875    4.3610 C.3       1 RES1    0.0000
     38 H17       10.1438    1.3209    4.7944 H         1 RES1    0.0000
     39 H18       11.5635    1.8875    4.3005 H         1 RES1    0.0000
     40 C18       10.0297    2.3183    2.9958 C.3       1 RES1    0.0000
     41 H19        9.0726    2.5185    3.0685 H         1 RES1    0.0000
     42 H20       10.1540    1.5138    2.4501 H         1 RES1    0.0000
     43 H21       10.4902    3.0744    2.5745 H         1 RES1    0.0000
     44 O4         8.1585    4.8042    5.9103 O.3       1 RES1    0.0000
     45 C19        7.6427    3.5597    5.8352 C.2       1 RES1    0.0000
     46 H22        7.0439    3.3877    5.1175 H         1 RES1    0.0000
     47 O5         7.8625    2.6510    6.5803 O.2       1 RES1    0.0000
     48 C20        7.7463    7.1276    7.8682 C.3       1 RES1    0.0000
     49 C21        7.6685    7.7919    6.4775 C.3       1 RES1    0.0000
     50 H23        8.4946    8.2889    6.3060 H         1 RES1    0.0000
     51 H24        6.9056    8.4067    6.4512 H         1 RES1    0.0000
     52 H25        7.5545    7.1012    5.7913 H         1 RES1    0.0000
     53 C22        7.8997    8.2658    8.8887 C.3       1 RES1    0.0000
     54 H26        7.8794    7.8967    9.7963 H         1 RES1    0.0000
     55 H27        7.1641    8.9040    8.7788 H         1 RES1    0.0000
     56 H28        8.7534    8.7230    8.7422 H         1 RES1    0.0000
     57 C23        6.4272    6.3942    8.1554 C.3       1 RES1    0.0000
     58 H29        6.3002    5.6808    7.4964 H         1 RES1    0.0000
     59 H30        5.6821    7.0281    8.0991 H         1 RES1    0.0000
     60 H31        6.4589    6.0066    9.0554 H         1 RES1    0.0000
@<TRIPOS>BOND
     1    1    2 1
     2    2    3 2
     3    3    4 1
     4    4    5 2
     5    5    1 1
     6    6    1 1
     7    7    6 1
     8    8    7 1
     9    9    7 1
    10   10    7 1
    11   11   10 ar
    12   12   11 1
    13   13   11 ar
    14   14   13 1
    15   15   13 ar
    16   16   15 1
    17   17   15 ar
    18   18   17 1
    19   19   10 ar
    20   20   19 1
    21   21    2 1
    22   22   21 1
    23   23   22 1
    24   24   22 1
    25   25   22 1
    26   26   21 1
    27   27   26 1
    28   28   26 1
    29   29   26 1
    30   30   21 1
    31   31   30 1
    32   32   30 1
    33   33   30 1
    34   34    3 1
    35   35   34 2
    36   36   34 1
    37   37   36 1
    38   38   37 1
    39   39   37 1
    40   40   37 1
    41   41   40 1
    42   42   40 1
    43   43   40 1
    44   44    4 1
    45   45   44 1
    46   46   45 1
    47   47   45 2
    48   48    5 1
    49   49   48 1
    50   50   49 1
    51   51   49 1
    52   52   49 1
    53   53   48 1
    54   54   53 1
    55   55   53 1
    56   56   53 1
    57   57   48 1
    58   58   57 1
    59   59   57 1
    60   60   57 1
    61   17   19 ar
@<TRIPOS>SUBSTRUCTURE
     1 RES1 1

@<TRIPOS>CRYSIN
  10.1671   11.1975   11.4168  66.6953  65.9741  73.5494   2 1

