# MOL2 file generated by ConQuest
# Please check atom types

@<TRIPOS>MOLECULE
GOFSIE
    43    44     1
SMALL
NO_CHARGES
****
Generated from CSD

@<TRIPOS>ATOM
      1 O1         6.8456    1.0596   15.0490 O.3       1 RES1    0.0000
      2 O2         7.3696    2.9462   11.5722 O.3       1 RES1    0.0000
      3 H1         7.4948    2.4661   12.2259 H         1 RES1    0.0000
      4 O3         6.6535    4.6344    9.5980 O.3       1 RES1    0.0000
      5 H2         7.3251    4.1722    9.6908 H         1 RES1    0.0000
      6 N1         6.7314    1.8540   13.9007 N.2       1 RES1    0.0000
      7 C1         8.1001    0.3782   15.0215 C.3       1 RES1    0.0000
      8 H3         8.8285    1.0173   14.9811 H         1 RES1    0.0000
      9 H4         8.1528   -0.1980   14.2425 H         1 RES1    0.0000
     10 C2         8.1954   -0.4416   16.2838 C.3       1 RES1    0.0000
     11 H5         7.4148   -1.0141   16.3425 H         1 RES1    0.0000
     12 H6         8.9759   -1.0141   16.2252 H         1 RES1    0.0000
     13 C3         5.6451    2.4992   13.8725 C.2       1 RES1    0.0000
     14 H7         5.0395    2.3939   14.5708 H         1 RES1    0.0000
     15 C4         5.3136    3.4002   12.7835 C.ar      1 RES1    0.0000
     16 C5         6.1758    3.5849   11.6970 C.ar      1 RES1    0.0000
     17 C6         5.8204    4.4511   10.6783 C.ar      1 RES1    0.0000
     18 C7         4.6363    5.1284   10.7148 C.ar      1 RES1    0.0000
     19 H8         4.4104    5.7082   10.0243 H         1 RES1    0.0000
     20 C8         3.7710    4.9505   11.7843 C.ar      1 RES1    0.0000
     21 H9         2.9616    5.4091   11.8103 H         1 RES1    0.0000
     22 C9         4.1081    4.1028   12.7952 C.ar      1 RES1    0.0000
     23 H10        3.5230    3.9893   13.5078 H         1 RES1    0.0000
     24 O1B        9.5451    1.0596   17.5187 O.3       1 RES1    0.0000
     25 O2B        9.0211    2.9462   20.9955 O.3       1 RES1    0.0000
     26 H1B        8.8960    2.4661   20.3418 H         1 RES1    0.0000
     27 O3B        9.7372    4.6344   22.9697 O.3       1 RES1    0.0000
     28 H2B        9.0656    4.1722   22.8768 H         1 RES1    0.0000
     29 N1B        9.6593    1.8540   18.6670 N.2       1 RES1    0.0000
     30 C1B        8.2907    0.3782   17.5462 C.3       1 RES1    0.0000
     31 H3B        7.5622    1.0173   17.5865 H         1 RES1    0.0000
     32 H4B        8.2379   -0.1980   18.3252 H         1 RES1    0.0000
     33 C3B       10.7456    2.4992   18.6952 C.2       1 RES1    0.0000
     34 H7B       11.3512    2.3939   17.9969 H         1 RES1    0.0000
     35 C4B       11.0772    3.4002   19.7842 C.ar      1 RES1    0.0000
     36 C5B       10.2149    3.5849   20.8707 C.ar      1 RES1    0.0000
     37 C6B       10.5703    4.4511   21.8894 C.ar      1 RES1    0.0000
     38 C7B       11.7545    5.1284   21.8529 C.ar      1 RES1    0.0000
     39 H8B       11.9803    5.7082   22.5433 H         1 RES1    0.0000
     40 C8B       12.6197    4.9505   20.7834 C.ar      1 RES1    0.0000
     41 H9B       13.4292    5.4091   20.7573 H         1 RES1    0.0000
     42 C9B       12.2827    4.1028   19.7725 C.ar      1 RES1    0.0000
     43 H10B      12.8677    3.9893   19.0599 H         1 RES1    0.0000
@<TRIPOS>BOND
     1    1    6 1
     2    2    3 1
     3    4    5 1
     4    6   13 2
     5    7    1 1
     6    8    7 1
     7    9    7 1
     8   10    7 1
     9   11   10 1
    10   12   10 1
    11   13   14 1
    12   15   13 1
    13   16    2 1
    14   17    4 1
    15   18   17 ar
    16   19   18 1
    17   20   18 ar
    18   21   20 1
    19   22   15 ar
    20   23   22 1
    21   24   29 1
    22   25   26 1
    23   27   28 1
    24   29   33 2
    25   30   10 1
    26   31   30 1
    27   32   30 1
    28   33   34 1
    29   35   33 1
    30   36   25 1
    31   37   27 1
    32   38   37 ar
    33   39   38 1
    34   40   38 ar
    35   41   40 1
    36   42   35 ar
    37   43   42 1
    38   15   16 ar
    39   16   17 ar
    40   20   22 ar
    41   24   30 1
    42   35   36 ar
    43   36   37 ar
    44   40   42 ar
@<TRIPOS>SUBSTRUCTURE
     1 RES1 1

@<TRIPOS>CRYSIN
  27.8360    4.5949   13.8081  90.0000 109.3630  90.0000  15 1

