# MOL2 file generated by ConQuest
# Please check atom types

@<TRIPOS>MOLECULE
GOHDEO
    41    41     1
SMALL
NO_CHARGES
****
Generated from CSD

@<TRIPOS>ATOM
      1 C1         0.8654   11.6756    2.4764 C.3       1 RES1    0.0000
      2 H1         0.0961   11.6058    3.0794 H         1 RES1    0.0000
      3 C2         1.6636   12.9235    2.8706 C.3       1 RES1    0.0000
      4 H2         2.4744   12.9459    2.3397 H         1 RES1    0.0000
      5 H3         1.1407   13.7063    2.6321 H         1 RES1    0.0000
      6 C3         2.0470   13.0372    4.3245 C.ar      1 RES1    0.0000
      7 C4         3.3363   12.7728    4.7572 C.ar      1 RES1    0.0000
      8 H4         3.9662   12.4544    4.1514 H         1 RES1    0.0000
      9 C5         3.7015   12.9752    6.0714 C.ar      1 RES1    0.0000
     10 H5         4.5735   12.7875    6.3333 H         1 RES1    0.0000
     11 C6         2.8004   13.4527    7.0162 C.ar      1 RES1    0.0000
     12 C7         1.5086   13.6868    6.5849 C.ar      1 RES1    0.0000
     13 H6         0.8735   13.9852    7.1944 H         1 RES1    0.0000
     14 C8         1.1384   13.4880    5.2700 C.ar      1 RES1    0.0000
     15 H7         0.2607   13.6601    5.0132 H         1 RES1    0.0000
     16 C9         3.2214   13.6860    8.4388 C.3       1 RES1    0.0000
     17 H8         2.6217   14.3122    8.8512 H         1 RES1    0.0000
     18 H9         4.1139   14.0393    8.4548 H         1 RES1    0.0000
     19 H10        3.1959   12.8557    8.9202 H         1 RES1    0.0000
     20 C10        0.3343   11.8217    1.0509 C.3       1 RES1    0.0000
     21 H11        1.0780   11.9248    0.4356 H         1 RES1    0.0000
     22 H12       -0.1541   11.0220    0.8022 H         1 RES1    0.0000
     23 N1        -0.5661   13.0095    0.9520 N.pl3     1 RES1    0.0000
     24 O1        -0.1469   13.9823    0.3222 O.2       1 RES1    0.0000
     25 O2        -1.6178   12.9614    1.5186 O.2       1 RES1    0.0000
     26 C11        1.7090   10.3897    2.6292 C.3       1 RES1    0.0000
     27 H13        2.1172   10.4262    3.5194 H         1 RES1    0.0000
     28 C12        2.8524   10.3172    1.6299 C.2       1 RES1    0.0000
     29 O3         3.9736   10.6683    1.8459 O.2       1 RES1    0.0000
     30 O4         2.4175    9.8707    0.4473 O.3       1 RES1    0.0000
     31 C13        3.3653    9.9190   -0.6538 C.3       1 RES1    0.0000
     32 H14        3.6845   10.8174   -0.7629 H         1 RES1    0.0000
     33 H15        2.9327    9.6337   -1.4619 H         1 RES1    0.0000
     34 H16        4.1060    9.3388   -0.4647 H         1 RES1    0.0000
     35 C14        0.8827    9.1167    2.5804 C.2       1 RES1    0.0000
     36 O5        -0.2841    9.0509    2.3244 O.2       1 RES1    0.0000
     37 O6         1.6433    8.0717    2.8844 O.3       1 RES1    0.0000
     38 C15        1.0223    6.7613    2.8619 C.3       1 RES1    0.0000
     39 H17        0.3343    6.7227    3.5296 H         1 RES1    0.0000
     40 H18        1.6841    6.0908    3.0452 H         1 RES1    0.0000
     41 H19        0.6382    6.6044    1.9964 H         1 RES1    0.0000
@<TRIPOS>BOND
     1    1    2 1
     2    3    1 1
     3    4    3 1
     4    5    3 1
     5    6    3 1
     6    7    6 ar
     7    8    7 1
     8    9    7 ar
     9   10    9 1
    10   11    9 ar
    11   12   11 ar
    12   13   12 1
    13   14    6 ar
    14   15   14 1
    15   16   11 1
    16   17   16 1
    17   18   16 1
    18   19   16 1
    19   20    1 1
    20   21   20 1
    21   22   20 1
    22   23   20 1
    23   24   23 2
    24   25   23 2
    25   26    1 1
    26   27   26 1
    27   28   26 1
    28   29   28 2
    29   30   28 1
    30   31   30 1
    31   32   31 1
    32   33   31 1
    33   34   31 1
    34   35   26 1
    35   36   35 2
    36   37   35 1
    37   38   37 1
    38   39   38 1
    39   40   38 1
    40   41   38 1
    41   12   14 ar
@<TRIPOS>SUBSTRUCTURE
     1 RES1 1

@<TRIPOS>CRYSIN
  10.4700   20.0619    7.5860  90.0000 106.5180  90.0000  14 1

