# MOL2 file generated by ConQuest
# Please check atom types

@<TRIPOS>MOLECULE
GOHSIH
    50    41     2
SMALL
NO_CHARGES
****
Generated from CSD

@<TRIPOS>ATOM
      1 O1         0.4030    4.2127   14.2717 O.3       1 RES1    0.0000
      2 O2         0.5649    0.9028    6.0622 O.2       1 RES1    0.0000
      3 O3         0.1326   -2.3801    9.2318 O.2       1 RES1    0.0000
      4 O4         3.6878   -1.6710   12.4178 O.2       1 RES1    0.0000
      5 O5         4.8258   -0.1339   13.4361 O.2       1 RES1    0.0000
      6 O6         2.1919    3.5029   15.3964 O.2       1 RES1    0.0000
      7 N1         1.3747   -0.4350    9.1825 N.am      1 RES1    0.0000
      8 N2         0.0958   -0.8883    7.4302 N.am      1 RES1    0.0000
      9 N3         3.8336   -0.5212   12.8268 N.pl3     1 RES1    0.0000
     10 C1         3.4840   -1.1008    7.0698 C.3       1 RES1    0.0000
     11 H1         2.9824   -1.1882    6.2319 H         1 RES1    0.0000
     12 H2         3.1470   -1.7508    7.7215 H         1 RES1    0.0000
     13 H3         4.4345   -1.2699    6.9010 H         1 RES1    0.0000
     14 C2         3.3099    0.3030    7.6191 C.3       1 RES1    0.0000
     15 H4         3.9294    0.3910    8.3988 H         1 RES1    0.0000
     16 C3         3.7254    1.3585    6.5961 C.3       1 RES1    0.0000
     17 H5         4.6702    1.2366    6.3669 H         1 RES1    0.0000
     18 H6         3.5950    2.2519    6.9779 H         1 RES1    0.0000
     19 H7         3.1789    1.2649    5.7885 H         1 RES1    0.0000
     20 C4         2.1254   -0.7003   10.3975 C.3       1 RES1    0.0000
     21 H8         3.0908   -0.7280   10.1782 H         1 RES1    0.0000
     22 H9         1.8695   -1.5918   10.7449 H         1 RES1    0.0000
     23 C5         1.8986    0.3275   11.4774 C.ar      1 RES1    0.0000
     24 C6         0.8761    1.2561   11.3854 C.ar      1 RES1    0.0000
     25 H10        0.2782    1.2077   10.6495 H         1 RES1    0.0000
     26 C7         0.6932    2.2625   12.3384 C.ar      1 RES1    0.0000
     27 H11       -0.0178    2.8862   12.2427 H         1 RES1    0.0000
     28 C8         1.5522    2.3487   13.4238 C.ar      1 RES1    0.0000
     29 C9         1.4388    3.4036   14.4732 C.2       1 RES1    0.0000
     30 C10        0.2403    5.2367   15.2905 C.3       1 RES1    0.0000
     31 H12        0.0780    4.8111   16.1587 H         1 RES1    0.0000
     32 H13       -0.5218    5.8088   15.0601 H         1 RES1    0.0000
     33 H14        1.0536    5.7805   15.3406 H         1 RES1    0.0000
     34 C11        0.7189    0.2647    7.0881 C.2       1 RES1    0.0000
     35 C12        0.5037   -1.3491    8.7025 C.2       1 RES1    0.0000
     36 C13        2.7354    0.4413   12.6040 C.ar      1 RES1    0.0000
     37 C14        2.5841    1.4258   13.5493 C.ar      1 RES1    0.0000
     38 H15        3.1821    1.4761   14.2862 H         1 RES1    0.0000
     39 C15        1.7091    0.6004    8.2056 C.3       1 RES1    0.0000
     40 H16        1.5220    1.4994    8.5769 H         1 RES1    0.0000
     41 C16        3.5292   -0.4338    7.1629 Du        2 SUP2    0.0000
     42 H17        3.4000   -1.2108    7.7459 Du        2 SUP2    0.0000
     43 H18        4.4837   -0.3225    6.9732 Du        2 SUP2    0.0000
     44 H19        3.0430   -0.5708    6.3227 Du        2 SUP2    0.0000
     45 C17        3.0021    0.8085    7.8530 Du        2 SUP2    0.0000
     46 H20        3.5272    0.9292    8.6956 Du        2 SUP2    0.0000
     47 C18        3.1972    2.0639    7.0081 Du        2 SUP2    0.0000
     48 H21        2.7950    1.9281    6.1248 Du        2 SUP2    0.0000
     49 H22        4.1549    2.2443    6.9069 Du        2 SUP2    0.0000
     50 H23        2.7662    2.8252    7.4503 Du        2 SUP2    0.0000
@<TRIPOS>BOND
     1    1   29 1
     2    2   34 2
     3    3   35 2
     4    4    9 2
     5    5    9 2
     6    6   29 2
     7    7   20 1
     8    8   34 1
     9    9   36 1
    10   10   11 1
    11   12   10 1
    12   13   10 1
    13   14   10 1
    14   15   14 1
    15   16   14 1
    16   17   16 1
    17   18   16 1
    18   19   16 1
    19   20   21 1
    20   22   20 1
    21   23   20 1
    22   24   23 ar
    23   25   24 1
    24   26   24 ar
    25   27   26 1
    26   28   26 ar
    27   29   28 1
    28   30    1 1
    29   31   30 1
    30   32   30 1
    31   33   30 1
    32   34   39 1
    33   35    7 1
    34   36   23 ar
    35   37   28 ar
    36   38   37 1
    37   39    7 1
    38   40   39 1
    39    8   35 1
    40   14   39 1
    41   36   37 ar
@<TRIPOS>SUBSTRUCTURE
     1 RES1 1
     2 SUP2 41

@<TRIPOS>CRYSIN
  10.8586    6.2866   11.6801  90.0000  94.8940  90.0000   4 1

