# MOL2 file generated by ConQuest
# Please check atom types

@<TRIPOS>MOLECULE
GOJDOY01
    28    29     1
SMALL
NO_CHARGES
****
Generated from CSD

@<TRIPOS>ATOM
      1 N1        10.3654    1.9498    8.3124 N.pl3     1 RES1    0.0000
      2 H1        10.9893    2.3131    8.8159 H         1 RES1    0.0000
      3 C1         9.8406    2.5162    7.2009 C.2       1 RES1    0.0000
      4 C2         8.9079    1.6374    6.6335 C.2       1 RES1    0.0000
      5 C3         8.8449    0.4866    7.5165 C.ar      1 RES1    0.0000
      6 C4         8.0454   -0.6634    7.6240 C.ar      1 RES1    0.0000
      7 H2         7.3733   -0.8405    6.9770 H         1 RES1    0.0000
      8 C5         8.2445   -1.5365    8.6809 C.ar      1 RES1    0.0000
      9 H3         7.7051   -2.3153    8.7481 H         1 RES1    0.0000
     10 C6         9.2220   -1.2965    9.6511 C.ar      1 RES1    0.0000
     11 H4         9.3491   -1.9213   10.3562 H         1 RES1    0.0000
     12 C7        10.0053   -0.1589    9.5947 C.ar      1 RES1    0.0000
     13 H5        10.6720    0.0137   10.2491 H         1 RES1    0.0000
     14 C8         9.7816    0.7207    8.5444 C.ar      1 RES1    0.0000
     15 C9         8.2238    1.9703    5.4185 C.2       1 RES1    0.0000
     16 H6         8.1326    2.8996    5.2422 H         1 RES1    0.0000
     17 C10        7.6905    1.1456    4.4876 C.2       1 RES1    0.0000
     18 C11        7.7963   -0.3289    4.3600 C.3       1 RES1    0.0000
     19 H7         8.4221   -0.6708    5.0325 H         1 RES1    0.0000
     20 H8         8.1229   -0.5569    3.4651 H         1 RES1    0.0000
     21 H9         6.9141   -0.7334    4.4985 H         1 RES1    0.0000
     22 C12       10.3042    3.8471    6.7382 C.3       1 RES1    0.0000
     23 H10       10.6783    4.3437    7.4960 H         1 RES1    0.0000
     24 H11        9.5482    4.3448    6.3630 H         1 RES1    0.0000
     25 H12       10.9927    3.7321    6.0508 H         1 RES1    0.0000
     26 N2         7.0151    1.7849    3.3772 N.pl3     1 RES1    0.0000
     27 O1         6.4751    1.0561    2.5316 O.2       1 RES1    0.0000
     28 O2         6.9947    3.0217    3.2693 O.2       1 RES1    0.0000
@<TRIPOS>BOND
     1    1    2 1
     2    3    1 1
     3    4    3 2
     4    5    4 1
     5    6    5 ar
     6    7    6 1
     7    8    6 ar
     8    9    8 1
     9   10    8 ar
    10   11   10 1
    11   12   10 ar
    12   13   12 1
    13   14    1 1
    14   15    4 1
    15   16   15 1
    16   17   15 2
    17   18   17 1
    18   19   18 1
    19   20   18 1
    20   21   18 1
    21   22    3 1
    22   23   22 1
    23   24   22 1
    24   25   22 1
    25   26   17 1
    26   27   26 2
    27   28   26 2
    28    5   14 ar
    29   12   14 ar
@<TRIPOS>SUBSTRUCTURE
     1 RES1 1

@<TRIPOS>CRYSIN
  12.1176   11.3888   15.2667  90.0000  98.8372  90.0000  15 1

