# MOL2 file generated by ConQuest
# Please check atom types

@<TRIPOS>MOLECULE
GOJJIA
    92    95     2
SMALL
NO_CHARGES
****
Generated from CSD

@<TRIPOS>ATOM
      1 O1         6.4987    5.1593    6.0310 O.2       1 RES1    0.0000
      2 O2        11.1939    6.5029    1.2635 O.2       1 RES1    0.0000
      3 O3         9.8338    8.2825    0.7349 O.2       1 RES1    0.0000
      4 N1         5.0339    4.4165    4.4499 N.am      1 RES1    0.0000
      5 N2         4.4704    0.5763    4.8987 N.3       1 RES1    0.0000
      6 N3         6.7192   -0.5767    3.5619 N.3       1 RES1    0.0000
      7 N4         6.4375    2.2796    2.5056 N.3       1 RES1    0.0000
      8 N5        10.1815    7.2413    1.4007 N.pl3     1 RES1    0.0000
      9 C1         4.0226    4.1107    5.5105 C.3       1 RES1    0.0000
     10 C2         4.1238    2.7091    6.2210 C.3       1 RES1    0.0000
     11 C3         3.6178    1.5228    5.4237 C.2       1 RES1    0.0000
     12 C4         3.7772   -0.4164    4.2493 C.2       1 RES1    0.0000
     13 C5         4.4409   -1.7065    3.8136 C.3       1 RES1    0.0000
     14 C6         5.7374   -1.5322    2.9991 C.3       1 RES1    0.0000
     15 C7         7.7998   -0.4613    2.5494 C.3       1 RES1    0.0000
     16 C8         8.5550    0.8910    2.6108 C.3       1 RES1    0.0000
     17 C9         7.7129    2.0174    2.0495 C.2       1 RES1    0.0000
     18 C10        5.8655    3.2979    1.7681 C.2       1 RES1    0.0000
     19 C11        4.4407    3.7722    1.9979 C.3       1 RES1    0.0000
     20 C12        4.3955    4.8128    3.1529 C.3       1 RES1    0.0000
     21 C13        3.0110    5.2804    3.6316 C.3       1 RES1    0.0000
     22 C14        2.6715    4.4067    4.8325 C.3       1 RES1    0.0000
     23 C15        3.5035    2.5755    2.1910 C.3       1 RES1    0.0000
     24 C16        3.9839    4.5280    0.7329 C.3       1 RES1    0.0000
     25 C17        6.8043    3.6962    0.8578 C.2       1 RES1    0.0000
     26 C18        7.9583    2.8947    1.0292 C.2       1 RES1    0.0000
     27 C19        8.9768    1.1759    4.0646 C.3       1 RES1    0.0000
     28 C20        9.8265    0.7530    1.7465 C.3       1 RES1    0.0000
     29 C21        7.0943   -0.7426    1.2048 C.3       1 RES1    0.0000
     30 C22        5.6302   -1.0164    1.5721 C.3       1 RES1    0.0000
     31 C23        4.7561   -2.5020    5.1101 C.3       1 RES1    0.0000
     32 C24        3.4657   -2.5363    2.9609 C.3       1 RES1    0.0000
     33 C25        2.4538   -0.0901    4.3623 C.2       1 RES1    0.0000
     34 C26        2.3506    1.1044    5.1048 C.2       1 RES1    0.0000
     35 C27        5.5622    2.4349    6.6806 C.3       1 RES1    0.0000
     36 C28        3.2340    2.8217    7.4747 C.3       1 RES1    0.0000
     37 C29        6.1837    5.0406    4.8496 C.2       1 RES1    0.0000
     38 C30        7.1587    5.5836    3.8358 C.ar      1 RES1    0.0000
     39 C31        8.3650    4.9204    3.6646 C.ar      1 RES1    0.0000
     40 C32        9.3553    5.4410    2.8595 C.ar      1 RES1    0.0000
     41 C33        9.1381    6.6556    2.2458 C.ar      1 RES1    0.0000
     42 C34        7.9677    7.3551    2.4165 C.ar      1 RES1    0.0000
     43 C35        6.9784    6.8132    3.2058 C.ar      1 RES1    0.0000
     44 H1         4.1393    4.7939    6.2168 H         1 RES1    0.0000
     45 H2         6.0492    1.8635    3.1638 H         1 RES1    0.0000
     46 H3         6.1795   -2.4170    2.9574 H         1 RES1    0.0000
     47 H4         8.4526   -1.1872    2.7132 H         1 RES1    0.0000
     48 H5         4.8746    5.6174    2.8315 H         1 RES1    0.0000
     49 H6         3.0370    6.2256    3.8886 H         1 RES1    0.0000
     50 H7         2.3443    5.1661    2.9221 H         1 RES1    0.0000
     51 H8         2.2389    3.5762    4.5455 H         1 RES1    0.0000
     52 H9         2.0720    4.8790    5.4466 H         1 RES1    0.0000
     53 H10        3.7378    2.1105    3.0102 H         1 RES1    0.0000
     54 H11        3.5920    1.9706    1.4372 H         1 RES1    0.0000
     55 H12        2.5872    2.8890    2.2476 H         1 RES1    0.0000
     56 H13        4.1139    3.9643   -0.0453 H         1 RES1    0.0000
     57 H14        4.5067    5.3400    0.6343 H         1 RES1    0.0000
     58 H15        5.3372    0.6033    4.9684 H         1 RES1    0.0000
     59 H16        7.0291   -0.8831    4.3190 H         1 RES1    0.0000
     60 H17        8.7524    2.9547    0.5311 H         1 RES1    0.0000
     61 H18        9.4594    0.4124    4.4172 H         1 RES1    0.0000
     62 H19        8.1875    1.3368    4.6059 H         1 RES1    0.0000
     63 H20        9.5488    1.9584    4.0875 H         1 RES1    0.0000
     64 H21        9.5757    0.5450    0.8331 H         1 RES1    0.0000
     65 H22       10.3821    0.0401    2.0991 H         1 RES1    0.0000
     66 H23       10.3215    1.5874    1.7644 H         1 RES1    0.0000
     67 H24        7.1629    0.0316    0.6091 H         1 RES1    0.0000
     68 H25        7.4921   -1.5205    0.7601 H         1 RES1    0.0000
     69 H26        5.0940   -0.1971    1.5303 H         1 RES1    0.0000
     70 H27        5.2355   -1.6896    0.9791 H         1 RES1    0.0000
     71 H28        3.9455   -2.6019    5.6328 H         1 RES1    0.0000
     72 H29        5.4197   -2.0229    5.6303 H         1 RES1    0.0000
     73 H30        5.0995   -3.3780    4.8752 H         1 RES1    0.0000
     74 H31        3.1733   -2.0107    2.1998 H         1 RES1    0.0000
     75 H32        2.6958   -2.7831    3.4985 H         1 RES1    0.0000
     76 H33        3.9122   -3.3378    2.6478 H         1 RES1    0.0000
     77 H34        1.7346   -0.5790    4.0044 H         1 RES1    0.0000
     78 H35        1.5515    1.5388    5.3409 H         1 RES1    0.0000
     79 H36        5.8309    3.1104    7.3242 H         1 RES1    0.0000
     80 H37        6.1570    2.4620    5.9147 H         1 RES1    0.0000
     81 H38        5.6079    1.5594    7.0952 H         1 RES1    0.0000
     82 H39        3.5600    3.5398    8.0390 H         1 RES1    0.0000
     83 H40        2.3204    3.0094    7.2059 H         1 RES1    0.0000
     84 H41        3.2607    1.9864    7.9660 H         1 RES1    0.0000
     85 H42        8.5097    4.1030    4.1051 H         1 RES1    0.0000
     86 H43       10.1631    4.9775    2.7308 H         1 RES1    0.0000
     87 H44        7.8448    8.1889    2.0009 H         1 RES1    0.0000
     88 H45        6.1699    7.2790    3.3223 H         1 RES1    0.0000
     89 H46        3.0450    4.7562    0.8130 H         1 RES1    0.0000
     90 H47        6.7004    4.3839    0.2265 H         1 RES1    0.0000
     91 O4        11.2777    6.8545    1.2232 Du        2 SUP2    0.0000
     92 O5        10.1834    8.3969    1.1578 Du        2 SUP2    0.0000
@<TRIPOS>BOND
     1    1   37 2
     2    2    8 2
     3    3    8 2
     4    4    9 1
     5    5   11 1
     6    6   14 1
     7    7   17 1
     8    8   41 1
     9    9   10 1
    10   10   11 1
    11   11   34 2
    12   12    5 1
    13   13   12 1
    14   14   13 1
    15   15    6 1
    16   16   15 1
    17   17   16 1
    18   18    7 1
    19   19   18 1
    20   20    4 1
    21   21   20 1
    22   22    9 1
    23   23   19 1
    24   24   19 1
    25   25   18 2
    26   26   17 2
    27   27   16 1
    28   28   16 1
    29   29   15 1
    30   30   14 1
    31   31   13 1
    32   32   13 1
    33   33   12 2
    34   34   33 1
    35   35   10 1
    36   36   10 1
    37   37    4 1
    38   38   37 1
    39   39   38 ar
    40   40   39 ar
    41   41   40 ar
    42   42   41 ar
    43   43   38 ar
    44   44    9 1
    45   45    7 1
    46   46   14 1
    47   47   15 1
    48   48   20 1
    49   49   21 1
    50   50   21 1
    51   51   22 1
    52   52   22 1
    53   53   23 1
    54   54   23 1
    55   55   23 1
    56   56   24 1
    57   57   24 1
    58   58    5 1
    59   59    6 1
    60   60   26 1
    61   61   27 1
    62   62   27 1
    63   63   27 1
    64   64   28 1
    65   65   28 1
    66   66   28 1
    67   67   29 1
    68   68   29 1
    69   69   30 1
    70   70   30 1
    71   71   31 1
    72   72   31 1
    73   73   31 1
    74   74   32 1
    75   75   32 1
    76   76   32 1
    77   77   33 1
    78   78   34 1
    79   79   35 1
    80   80   35 1
    81   81   35 1
    82   82   36 1
    83   83   36 1
    84   84   36 1
    85   85   39 1
    86   86   40 1
    87   87   42 1
    88   88   43 1
    89   89   24 1
    90   90   25 1
    91   19   20 1
    92   21   22 1
    93   25   26 1
    94   29   30 1
    95   42   43 ar
@<TRIPOS>SUBSTRUCTURE
     1 RES1 1
     2 SUP2 91

@<TRIPOS>CRYSIN
  10.3799   12.1641   25.3590  90.0000  97.0170  90.0000 231 1

