# MOL2 file generated by ConQuest
# Please check atom types

@<TRIPOS>MOLECULE
GOJKAR
    71    73     1
SMALL
NO_CHARGES
****
Generated from CSD

@<TRIPOS>ATOM
      1 N1        19.0815    2.9228    3.9736 N.2       1 RES1    0.0000
      2 C1        18.5210    3.5113    4.9716 C.2       1 RES1    0.0000
      3 C2        17.4241    2.8516    5.7003 C.ar      1 RES1    0.0000
      4 C3        16.7743    1.6420    5.4684 C.ar      1 RES1    0.0000
      5 C4        15.7853    1.2580    6.3508 C.ar      1 RES1    0.0000
      6 C5        15.4520    2.0336    7.4505 C.ar      1 RES1    0.0000
      7 C6        16.1090    3.2470    7.6874 C.ar      1 RES1    0.0000
      8 C7        17.0853    3.6355    6.7989 C.ar      1 RES1    0.0000
      9 C8        18.7651    4.8065    5.6456 C.ar      1 RES1    0.0000
     10 C9        19.6076    5.8729    5.3583 C.ar      1 RES1    0.0000
     11 C10       19.5938    6.9651    6.1960 C.ar      1 RES1    0.0000
     12 C11       18.7880    7.0105    7.3214 C.ar      1 RES1    0.0000
     13 C12       17.9303    5.9585    7.6086 C.ar      1 RES1    0.0000
     14 C13       17.9177    4.8693    6.7687 C.ar      1 RES1    0.0000
     15 O1        20.1663    3.7234    3.4975 O.3       1 RES1    0.0000
     16 C14       20.7600    3.2288    2.3850 C.2       1 RES1    0.0000
     17 O2        20.3634    2.2911    1.7742 O.2       1 RES1    0.0000
     18 C15       21.9600    4.0710    2.0469 C.3       1 RES1    0.0000
     19 C16       22.7592    3.5393    0.8946 C.3       1 RES1    0.0000
     20 C17       24.0941    4.2301    0.7326 C.3       1 RES1    0.0000
     21 C18       24.9572    3.6446   -0.3638 C.3       1 RES1    0.0000
     22 C19       26.3476    4.2566   -0.4588 C.3       1 RES1    0.0000
     23 C20       27.2011    3.6688   -1.5618 C.3       1 RES1    0.0000
     24 C21       28.6047    4.2649   -1.6440 C.3       1 RES1    0.0000
     25 C22       29.4509    3.6878   -2.7599 C.3       1 RES1    0.0000
     26 C23       30.8504    4.2710   -2.8504 C.3       1 RES1    0.0000
     27 C24       31.6972    3.6764   -3.9496 C.3       1 RES1    0.0000
     28 C25       33.0924    4.2520   -4.0569 C.3       1 RES1    0.0000
     29 C26       33.9278    3.6378   -5.1644 C.3       1 RES1    0.0000
     30 C27       35.3411    4.1869   -5.2740 C.3       1 RES1    0.0000
     31 C28       36.1475    3.5727   -6.3955 C.3       1 RES1    0.0000
     32 C29       37.5591    4.0983   -6.5022 C.3       1 RES1    0.0000
     33 H1        17.0564    1.0376    4.7610 H         1 RES1    0.0000
     34 H2        15.3086    0.4241    6.2027 H         1 RES1    0.0000
     35 H3        14.6456    1.6663    8.0076 H         1 RES1    0.0000
     36 H4        16.0318    3.8097    8.5943 H         1 RES1    0.0000
     37 H5        20.1302    5.8774    4.5207 H         1 RES1    0.0000
     38 H6        20.1905    7.7028    6.0574 H         1 RES1    0.0000
     39 H7        18.8042    7.7861    7.9126 H         1 RES1    0.0000
     40 H8        17.4180    5.9835    8.5273 H         1 RES1    0.0000
     41 H9        22.5410    4.0824    2.9225 H         1 RES1    0.0000
     42 H10       21.6369    5.0140    1.8440 H         1 RES1    0.0000
     43 H11       22.9026    2.6358    0.9779 H         1 RES1    0.0000
     44 H12       22.2999    3.6355    0.0447 H         1 RES1    0.0000
     45 H13       24.5902    4.1354    1.6317 H         1 RES1    0.0000
     46 H14       23.9272    5.1806    0.5588 H         1 RES1    0.0000
     47 H15       25.0723    2.6130   -0.1397 H         1 RES1    0.0000
     48 H16       24.5299    3.7340   -1.1344 H         1 RES1    0.0000
     49 H17       26.7599    4.1278    0.4415 H         1 RES1    0.0000
     50 H18       26.2174    5.1806   -0.7823 H         1 RES1    0.0000
     51 H19       27.2420    2.7266   -1.4752 H         1 RES1    0.0000
     52 H20       26.8202    3.7794   -2.4084 H         1 RES1    0.0000
     53 H21       29.1104    4.1430   -0.7488 H         1 RES1    0.0000
     54 H22       28.5680    5.2185   -1.7770 H         1 RES1    0.0000
     55 H23       29.4720    2.7342   -2.7493 H         1 RES1    0.0000
     56 H24       29.0501    3.8249   -3.6769 H         1 RES1    0.0000
     57 H25       31.3404    4.1354   -1.9223 H         1 RES1    0.0000
     58 H26       30.7980    5.2109   -3.0287 H         1 RES1    0.0000
     59 H27       31.7623    2.6660   -3.6713 H         1 RES1    0.0000
     60 H28       31.2801    3.7567   -4.8224 H         1 RES1    0.0000
     61 H29       33.5101    4.1127   -3.1572 H         1 RES1    0.0000
     62 H30       33.0882    5.2033   -4.1072 H         1 RES1    0.0000
     63 H31       33.8717    2.7039   -5.0683 H         1 RES1    0.0000
     64 H32       33.3896    3.9233   -6.0071 H         1 RES1    0.0000
     65 H33       35.7401    4.0748   -4.3531 H         1 RES1    0.0000
     66 H34       35.3182    5.1882   -5.3198 H         1 RES1    0.0000
     67 H35       36.1017    2.6509   -6.2697 H         1 RES1    0.0000
     68 H36       35.6798    3.7794   -7.2868 H         1 RES1    0.0000
     69 H37       38.0906    4.0066   -5.6271 H         1 RES1    0.0000
     70 H38       37.5482    5.0897   -6.6832 H         1 RES1    0.0000
     71 H39       38.0906    3.5901   -7.2812 H         1 RES1    0.0000
@<TRIPOS>BOND
     1    1    2 2
     2    2    3 1
     3    3    4 ar
     4    4    5 ar
     5    5    6 ar
     6    6    7 ar
     7    7    8 ar
     8    8    3 ar
     9    9    2 1
    10   10    9 ar
    11   11   10 ar
    12   12   11 ar
    13   13   12 ar
    14   14    8 1
    15   15    1 1
    16   16   15 1
    17   17   16 2
    18   18   16 1
    19   19   18 1
    20   20   19 1
    21   21   20 1
    22   22   21 1
    23   23   22 1
    24   24   23 1
    25   25   24 1
    26   26   25 1
    27   27   26 1
    28   28   27 1
    29   29   28 1
    30   30   29 1
    31   31   30 1
    32   32   31 1
    33   33    4 1
    34   34    5 1
    35   35    6 1
    36   36    7 1
    37   37   10 1
    38   38   11 1
    39   39   12 1
    40   40   13 1
    41   41   18 1
    42   42   18 1
    43   43   19 1
    44   44   19 1
    45   45   20 1
    46   46   20 1
    47   47   21 1
    48   48   21 1
    49   49   22 1
    50   50   22 1
    51   51   23 1
    52   52   23 1
    53   53   24 1
    54   54   24 1
    55   55   25 1
    56   56   25 1
    57   57   26 1
    58   58   26 1
    59   59   27 1
    60   60   27 1
    61   61   28 1
    62   62   28 1
    63   63   29 1
    64   64   29 1
    65   65   30 1
    66   66   30 1
    67   67   31 1
    68   68   31 1
    69   69   32 1
    70   70   32 1
    71   71   32 1
    72    9   14 ar
    73   13   14 ar
@<TRIPOS>SUBSTRUCTURE
     1 RES1 1

@<TRIPOS>CRYSIN
  60.2700    7.5740    5.5880  90.0000  90.0000  90.0000  19 1

