# MOL2 file generated by ConQuest
# Please check atom types

@<TRIPOS>MOLECULE
GOJKEX
    26    27     1
SMALL
NO_CHARGES
****
Generated from CSD

@<TRIPOS>ATOM
      1 O1         0.0898    5.8680    1.6208 O.2       1 RES1    0.0000
      2 O2         5.1078    3.2707    4.0837 O.2       1 RES1    0.0000
      3 O3         5.2633    1.3293    3.1378 O.2       1 RES1    0.0000
      4 N1         4.7300    2.4261    3.2756 N.pl3     1 RES1    0.0000
      5 C1         1.0832    5.4089    2.1557 C.2       1 RES1    0.0000
      6 C2         1.8650    6.0635    3.2981 C.3       1 RES1    0.0000
      7 C3         3.0103    5.0668    3.6111 C.3       1 RES1    0.0000
      8 H1         3.8916    5.5021    3.4920 H         1 RES1    0.0000
      9 H2         2.9411    4.7387    4.5429 H         1 RES1    0.0000
     10 C4         2.8455    3.9286    2.6352 C.ar      1 RES1    0.0000
     11 C5         3.5762    2.7523    2.4305 C.ar      1 RES1    0.0000
     12 C6         3.2277    1.8373    1.4399 C.ar      1 RES1    0.0000
     13 H3         3.7502    1.0538    1.3131 H         1 RES1    0.0000
     14 C7         2.1138    2.0680    0.6333 C.ar      1 RES1    0.0000
     15 H4         1.8738    1.4394   -0.0370 H         1 RES1    0.0000
     16 C8         1.3545    3.2199    0.8115 C.ar      1 RES1    0.0000
     17 H5         0.5907    3.3859    0.2715 H         1 RES1    0.0000
     18 C9         1.7396    4.1279    1.8022 C.ar      1 RES1    0.0000
     19 C10        2.4075    7.4145    2.8135 C.3       1 RES1    0.0000
     20 H6         1.6635    7.9756    2.5110 H         1 RES1    0.0000
     21 H7         3.0299    7.2688    2.0709 H         1 RES1    0.0000
     22 H8         2.8760    7.8616    3.5496 H         1 RES1    0.0000
     23 C11        0.9401    6.2816    4.4983 C.3       1 RES1    0.0000
     24 H9         1.4495    6.6793    5.2349 H         1 RES1    0.0000
     25 H10        0.5687    5.4216    4.7855 H         1 RES1    0.0000
     26 H11        0.2102    6.8832    4.2426 H         1 RES1    0.0000
@<TRIPOS>BOND
     1    1    5 2
     2    2    4 2
     3    3    4 2
     4    4   11 1
     5    5    6 1
     6    6    7 1
     7    7    8 1
     8    9    7 1
     9   10    7 1
    10   11   10 ar
    11   12   11 ar
    12   13   12 1
    13   14   12 ar
    14   15   14 1
    15   16   14 ar
    16   17   16 1
    17   18    5 1
    18   19    6 1
    19   20   19 1
    20   21   19 1
    21   22   19 1
    22   23    6 1
    23   24   23 1
    24   25   23 1
    25   26   23 1
    26   10   18 ar
    27   16   18 ar
@<TRIPOS>SUBSTRUCTURE
     1 RES1 1

@<TRIPOS>CRYSIN
   5.6358    8.5676   10.5422  90.0000 102.7400  90.0000   4 1

