# MOL2 file generated by ConQuest
# Please check atom types

@<TRIPOS>MOLECULE
GOKSIJ
    62    65     1
SMALL
NO_CHARGES
****
Generated from CSD

@<TRIPOS>ATOM
      1 O1        -1.8505    5.0315    6.4168 O.3       1 RES1    0.0000
      2 O2        -0.0572    8.4655    2.4950 O.3       1 RES1    0.0000
      3 H1         0.3965    9.0743    2.8034 H         1 RES1    0.0000
      4 O3         1.0517    9.7156    4.5738 O.2       1 RES1    0.0000
      5 O4         2.0255    8.2703    5.8151 O.2       1 RES1    0.0000
      6 N1         1.1048    8.6053    5.0972 N.pl3     1 RES1    0.0000
      7 C1        -2.6610    3.8827    6.0183 C.3       1 RES1    0.0000
      8 C2        -3.7444    4.3726    5.0735 C.3       1 RES1    0.0000
      9 H2        -4.2876    5.0371    5.5236 H         1 RES1    0.0000
     10 H3        -4.3188    3.6297    4.8294 H         1 RES1    0.0000
     11 C3        -3.1414    4.9790    3.8180 C.3       1 RES1    0.0000
     12 H4        -2.8452    4.2673    3.2292 H         1 RES1    0.0000
     13 H5        -3.8202    5.4897    3.3510 H         1 RES1    0.0000
     14 C4        -1.9760    5.8764    4.1364 C.ar      1 RES1    0.0000
     15 C5        -1.4720    6.7431    3.1766 C.ar      1 RES1    0.0000
     16 C6        -0.4828    7.6674    3.4990 C.ar      1 RES1    0.0000
     17 C7         0.0307    7.6614    4.8056 C.ar      1 RES1    0.0000
     18 C8        -0.4075    6.7716    5.7889 C.ar      1 RES1    0.0000
     19 C9        -1.4174    5.8788    5.4253 C.ar      1 RES1    0.0000
     20 C10       -3.2427    3.3601    7.3188 C.3       1 RES1    0.0000
     21 H6        -3.7951    4.0372    7.7169 H         1 RES1    0.0000
     22 H7        -2.5296    3.1336    7.9199 H         1 RES1    0.0000
     23 H8        -3.7726    2.5784    7.1416 H         1 RES1    0.0000
     24 C11       -1.7455    2.8560    5.3837 C.3       1 RES1    0.0000
     25 H9        -1.3306    3.2347    4.6056 H         1 RES1    0.0000
     26 H10       -2.2572    2.0855    5.1294 H         1 RES1    0.0000
     27 H11       -1.0691    2.5971    6.0137 H         1 RES1    0.0000
     28 C12        0.1135    6.7562    7.2039 C.3       1 RES1    0.0000
     29 H12       -0.4763    6.2393    7.7565 H         1 RES1    0.0000
     30 H13        0.1586    7.6544    7.5377 H         1 RES1    0.0000
     31 H14        0.9896    6.3652    7.2179 H         1 RES1    0.0000
     32 O1B       -1.6256    5.0315   -1.4656 O.3       1 RES1    0.0000
     33 O2B       -3.4188    8.4655    2.4562 O.3       1 RES1    0.0000
     34 H1B       -3.8725    9.0743    2.1478 H         1 RES1    0.0000
     35 O3B       -4.5277    9.7156    0.3774 O.2       1 RES1    0.0000
     36 O4B       -5.5015    8.2703   -0.8639 O.2       1 RES1    0.0000
     37 N1B       -4.5808    8.6053   -0.1460 N.pl3     1 RES1    0.0000
     38 C1B       -0.8151    3.8827   -1.0671 C.3       1 RES1    0.0000
     39 C2B        0.2684    4.3726   -0.1223 C.3       1 RES1    0.0000
     40 H2B        0.8116    5.0371   -0.5724 H         1 RES1    0.0000
     41 H3B        0.8428    3.6297    0.1218 H         1 RES1    0.0000
     42 C3B       -0.3346    4.9790    1.1332 C.3       1 RES1    0.0000
     43 H4B       -0.6308    4.2673    1.7220 H         1 RES1    0.0000
     44 H5B        0.3442    5.4897    1.6002 H         1 RES1    0.0000
     45 C4B       -1.5000    5.8764    0.8148 C.ar      1 RES1    0.0000
     46 C5B       -2.0040    6.7431    1.7746 C.ar      1 RES1    0.0000
     47 C6B       -2.9932    7.6674    1.4522 C.ar      1 RES1    0.0000
     48 C7B       -3.5067    7.6614    0.1456 C.ar      1 RES1    0.0000
     49 C8B       -3.0685    6.7716   -0.8377 C.ar      1 RES1    0.0000
     50 C9B       -2.0586    5.8788   -0.4741 C.ar      1 RES1    0.0000
     51 C10B      -0.2333    3.3601   -2.3676 C.3       1 RES1    0.0000
     52 H6B        0.3191    4.0372   -2.7657 H         1 RES1    0.0000
     53 H7B       -0.9465    3.1336   -2.9687 H         1 RES1    0.0000
     54 H8B        0.2966    2.5784   -2.1904 H         1 RES1    0.0000
     55 C11B      -1.7305    2.8560   -0.4325 C.3       1 RES1    0.0000
     56 H9B       -2.1454    3.2347    0.3456 H         1 RES1    0.0000
     57 H10B      -1.2189    2.0855   -0.1782 H         1 RES1    0.0000
     58 H11B      -2.4069    2.5971   -1.0625 H         1 RES1    0.0000
     59 C12B      -3.5896    6.7562   -2.2527 C.3       1 RES1    0.0000
     60 H12B      -2.9997    6.2393   -2.8053 H         1 RES1    0.0000
     61 H13B      -3.6346    7.6544   -2.5865 H         1 RES1    0.0000
     62 H14B      -4.4656    6.3652   -2.2667 H         1 RES1    0.0000
@<TRIPOS>BOND
     1    1    7 1
     2    2    3 1
     3    4    6 2
     4    5    6 2
     5    6   17 1
     6    7    8 1
     7    8    9 1
     8   10    8 1
     9   11    8 1
    10   12   11 1
    11   13   11 1
    12   14   11 1
    13   15   14 ar
    14   16    2 1
    15   17   16 ar
    16   18   17 ar
    17   19    1 1
    18   20    7 1
    19   21   20 1
    20   22   20 1
    21   23   20 1
    22   24    7 1
    23   25   24 1
    24   26   24 1
    25   27   24 1
    26   28   18 1
    27   29   28 1
    28   30   28 1
    29   31   28 1
    30   32   38 1
    31   33   34 1
    32   35   37 2
    33   36   37 2
    34   37   48 1
    35   38   39 1
    36   39   40 1
    37   41   39 1
    38   42   39 1
    39   43   42 1
    40   44   42 1
    41   45   42 1
    42   46   15 1
    43   47   33 1
    44   48   47 ar
    45   49   48 ar
    46   50   32 1
    47   51   38 1
    48   52   51 1
    49   53   51 1
    50   54   51 1
    51   55   38 1
    52   56   55 1
    53   57   55 1
    54   58   55 1
    55   59   49 1
    56   60   59 1
    57   61   59 1
    58   62   59 1
    59   14   19 ar
    60   15   16 ar
    61   18   19 ar
    62   45   46 ar
    63   45   50 ar
    64   46   47 ar
    65   49   50 ar
@<TRIPOS>SUBSTRUCTURE
     1 RES1 1

@<TRIPOS>CRYSIN
  14.9001   15.5515   12.0991  90.0000 125.0710  90.0000  15 1

