# MOL2 file generated by ConQuest
# Please check atom types

@<TRIPOS>MOLECULE
GOLJIA
    50    52     1
SMALL
NO_CHARGES
****
Generated from CSD

@<TRIPOS>ATOM
      1 N1         0.9716    5.0880   19.5697 N.3       1 RES1    0.0000
      2 O1        -0.1045    4.2716   19.0278 O.3       1 RES1    0.0000
      3 C1        -1.2728    5.0768   19.0721 C.3       1 RES1    0.0000
      4 H1        -2.0701    4.5274   19.0237 H         1 RES1    0.0000
      5 H2        -1.2827    5.7088   18.3360 H         1 RES1    0.0000
      6 C2        -1.2006    5.8042   20.4042 C.3       1 RES1    0.0000
      7 H3        -1.6403    6.6789   20.3577 H         1 RES1    0.0000
      8 C3        -1.6826    5.0009   21.6193 C.3       1 RES1    0.0000
      9 H4        -2.0784    5.6059   22.2809 H         1 RES1    0.0000
     10 C4        -0.4190    4.3615   22.1938 C.3       1 RES1    0.0000
     11 H5        -0.1867    3.5702   21.6656 H         1 RES1    0.0000
     12 C5         0.6397    5.4234   21.9979 C.3       1 RES1    0.0000
     13 H6         1.5457    5.0565   22.0667 H         1 RES1    0.0000
     14 C6         0.3377    5.9534   20.5953 C.3       1 RES1    0.0000
     15 H7         0.6206    6.8865   20.4986 H         1 RES1    0.0000
     16 O2         0.4373    6.5427   22.8873 O.3       1 RES1    0.0000
     17 C7         1.1807    6.6048   23.9909 C.2       1 RES1    0.0000
     18 O3         1.8768    5.6838   24.3453 O.2       1 RES1    0.0000
     19 C8         0.9940    7.9058   24.7048 C.3       1 RES1    0.0000
     20 H8         0.3900    8.4608   24.2064 H         1 RES1    0.0000
     21 H9         1.8411    8.3496   24.7879 H         1 RES1    0.0000
     22 H10        0.6306    7.7427   25.5783 H         1 RES1    0.0000
     23 O4        -0.6380    3.9788   23.5481 O.3       1 RES1    0.0000
     24 C9         0.0639    2.9067   23.9858 C.2       1 RES1    0.0000
     25 O5         0.8123    2.2868   23.3049 O.2       1 RES1    0.0000
     26 C10       -0.2174    2.6325   25.4222 C.3       1 RES1    0.0000
     27 H11       -0.8563    3.2690   25.7520 H         1 RES1    0.0000
     28 H12        0.5957    2.7047   25.9282 H         1 RES1    0.0000
     29 H13       -0.5733    1.7457   25.5154 H         1 RES1    0.0000
     30 O6        -2.6086    3.9269   21.3218 O.3       1 RES1    0.0000
     31 C11       -3.8813    4.1317   21.5028 C.2       1 RES1    0.0000
     32 O7        -4.2813    5.1853   21.7268 O.2       1 RES1    0.0000
     33 C12       -4.7268    2.9410   21.2435 C.3       1 RES1    0.0000
     34 H14       -4.1651    2.1775   21.0899 H         1 RES1    0.0000
     35 H15       -5.2736    3.0986   20.4707 H         1 RES1    0.0000
     36 H16       -5.2885    2.7761   22.0062 H         1 RES1    0.0000
     37 C13        1.5325    5.8922   18.4659 C.3       1 RES1    0.0000
     38 H17        2.1788    6.5186   18.8264 H         1 RES1    0.0000
     39 H18        0.8206    6.4047   18.0523 H         1 RES1    0.0000
     40 C14        2.1995    5.0453   17.4205 C.ar      1 RES1    0.0000
     41 C15        3.4159    4.4347   17.6954 C.ar      1 RES1    0.0000
     42 H19        3.7868    4.4996   18.5460 H         1 RES1    0.0000
     43 C16        4.0771    3.7305   16.7048 C.ar      1 RES1    0.0000
     44 H20        4.8927    3.3274   16.8961 H         1 RES1    0.0000
     45 C17        3.5503    3.6174   15.4512 C.ar      1 RES1    0.0000
     46 H21        4.0066    3.1541   14.7866 H         1 RES1    0.0000
     47 C18        2.3240    4.2058   15.1846 C.ar      1 RES1    0.0000
     48 H22        1.9432    4.1206   14.3403 H         1 RES1    0.0000
     49 C19        1.6669    4.9165   16.1643 C.ar      1 RES1    0.0000
     50 H23        0.8488    5.3141   15.9705 H         1 RES1    0.0000
@<TRIPOS>BOND
     1    1    2 1
     2    2    3 1
     3    3    4 1
     4    5    3 1
     5    6    3 1
     6    7    6 1
     7    8    6 1
     8    9    8 1
     9   10    8 1
    10   11   10 1
    11   12   10 1
    12   13   12 1
    13   14    1 1
    14   15   14 1
    15   16   12 1
    16   17   16 1
    17   18   17 2
    18   19   17 1
    19   20   19 1
    20   21   19 1
    21   22   19 1
    22   23   10 1
    23   24   23 1
    24   25   24 2
    25   26   24 1
    26   27   26 1
    27   28   26 1
    28   29   26 1
    29   30    8 1
    30   31   30 1
    31   32   31 2
    32   33   31 1
    33   34   33 1
    34   35   33 1
    35   36   33 1
    36   37    1 1
    37   38   37 1
    38   39   37 1
    39   40   37 1
    40   41   40 ar
    41   42   41 1
    42   43   41 ar
    43   44   43 1
    44   45   43 ar
    45   46   45 1
    46   47   45 ar
    47   48   47 1
    48   49   40 ar
    49   50   49 1
    50    6   14 1
    51   12   14 1
    52   47   49 ar
@<TRIPOS>SUBSTRUCTURE
     1 RES1 1

@<TRIPOS>CRYSIN
   8.2970    9.2660   25.1730  90.0000  90.0000  90.0000  19 1

