# MOL2 file generated by ConQuest
# Please check atom types

@<TRIPOS>MOLECULE
GOLJEX
    43    43     1
SMALL
NO_CHARGES
****
Generated from CSD

@<TRIPOS>ATOM
      1 N1         4.8674    4.3051    5.3444 N.am      1 RES1    0.0000
      2 N2         2.1893    2.6448    5.0759 N.am      1 RES1    0.0000
      3 H1         1.7734    2.0184    4.6596 H         1 RES1    0.0000
      4 H2         2.3543    3.3903    4.6800 H         1 RES1    0.0000
      5 N3         4.3637    3.0265    9.1096 N.2       1 RES1    0.0000
      6 O1         5.8926    4.0458    3.3846 O.3       1 RES1    0.0000
      7 O2         3.7167    4.6763    3.4335 O.2       1 RES1    0.0000
      8 O3         2.3630    1.4097    6.9322 O.2       1 RES1    0.0000
      9 O4         5.5373    2.5088    9.7005 O.3       1 RES1    0.0000
     10 C1         4.7498    4.3578    3.9984 C.2       1 RES1    0.0000
     11 C2         3.7740    4.7406    6.1865 C.3       1 RES1    0.0000
     12 H3         3.0547    5.0686    5.6247 H         1 RES1    0.0000
     13 H4         4.0762    5.4768    6.7418 H         1 RES1    0.0000
     14 C3         3.2342    3.6230    7.0884 C.3       1 RES1    0.0000
     15 C4         4.4336    3.0488    7.8385 C.2       1 RES1    0.0000
     16 C5         5.5964    2.6403    6.9911 C.3       1 RES1    0.0000
     17 H5         5.3522    1.8679    6.4582 H         1 RES1    0.0000
     18 H6         6.3390    2.3895    7.5614 H         1 RES1    0.0000
     19 C6         6.0238    3.7815    6.0688 C.3       1 RES1    0.0000
     20 H7         6.4276    4.4908    6.5941 H         1 RES1    0.0000
     21 H8         6.6856    3.4597    5.4375 H         1 RES1    0.0000
     22 C7         2.5766    2.4622    6.3245 C.2       1 RES1    0.0000
     23 C8         2.1637    4.2162    8.0161 C.3       1 RES1    0.0000
     24 H9         1.8081    3.5241    8.5778 H         1 RES1    0.0000
     25 H10        1.4568    4.5958    7.4886 H         1 RES1    0.0000
     26 H11        2.5576    4.9011    8.5628 H         1 RES1    0.0000
     27 C9         5.3325    2.4428   11.1050 C.3       1 RES1    0.0000
     28 H12        5.3224    3.3309   11.4688 H         1 RES1    0.0000
     29 H13        6.0428    1.9390   11.5084 H         1 RES1    0.0000
     30 H14        4.4926    2.0139   11.2859 H         1 RES1    0.0000
     31 C10        5.9465    3.8626    1.9206 C.3       1 RES1    0.0000
     32 C11        4.9588    2.7802    1.5097 C.3       1 RES1    0.0000
     33 H15        5.1468    1.9738    1.9955 H         1 RES1    0.0000
     34 H16        5.0409    2.6124    0.5671 H         1 RES1    0.0000
     35 H17        4.0649    3.0710    1.7055 H         1 RES1    0.0000
     36 C12        5.6876    5.1649    1.2187 C.3       1 RES1    0.0000
     37 H18        4.7902    5.4530    1.3984 H         1 RES1    0.0000
     38 H19        5.8034    5.0474    0.2728 H         1 RES1    0.0000
     39 H20        6.3056    5.8279    1.5365 H         1 RES1    0.0000
     40 C13        7.3831    3.4299    1.7290 C.3       1 RES1    0.0000
     41 H21        7.9699    4.1272    2.0308 H         1 RES1    0.0000
     42 H22        7.5434    3.2561    0.7982 H         1 RES1    0.0000
     43 H23        7.5463    2.6310    2.2362 H         1 RES1    0.0000
@<TRIPOS>BOND
     1    1   10 1
     2    2    3 1
     3    4    2 1
     4    5    9 1
     5    6   10 1
     6    7   10 2
     7    8   22 2
     8    9   27 1
     9   11    1 1
    10   12   11 1
    11   13   11 1
    12   14   11 1
    13   15    5 2
    14   16   15 1
    15   17   16 1
    16   18   16 1
    17   19    1 1
    18   20   19 1
    19   21   19 1
    20   22    2 1
    21   23   14 1
    22   24   23 1
    23   25   23 1
    24   26   23 1
    25   27   28 1
    26   29   27 1
    27   30   27 1
    28   31    6 1
    29   32   31 1
    30   33   32 1
    31   34   32 1
    32   35   32 1
    33   36   31 1
    34   37   36 1
    35   38   36 1
    36   39   36 1
    37   40   31 1
    38   41   40 1
    39   42   40 1
    40   43   40 1
    41   14   15 1
    42   14   22 1
    43   16   19 1
@<TRIPOS>SUBSTRUCTURE
     1 RES1 1

@<TRIPOS>CRYSIN
   7.3750   10.0132   11.3383  79.5710  73.0340  84.9730   2 1

