# MOL2 file generated by ConQuest
# Please check atom types

@<TRIPOS>MOLECULE
GOMFAQ
    58    62     1
SMALL
NO_CHARGES
****
Generated from CSD

@<TRIPOS>ATOM
      1 C1         1.0986    6.0774    1.8155 C.3       1 RES1    0.0000
      2 O1         2.2674    6.8284   -0.9395 O.2       1 RES1    0.0000
      3 N1         1.1682    7.2492   -0.4076 N.pl3     1 RES1    0.0000
      4 O2         2.5478    8.6888    2.6805 O.3       1 RES1    0.0000
      5 C2         2.3466    5.2150    1.7195 C.3       1 RES1    0.0000
      6 H1         3.1015    5.6913    2.0978 H         1 RES1    0.0000
      7 H2         2.5439    5.0302    0.7869 H         1 RES1    0.0000
      8 C3        -0.0792    5.2973    1.2335 C.3       1 RES1    0.0000
      9 H3         0.0894    5.1067    0.2962 H         1 RES1    0.0000
     10 H4        -0.8840    5.8357    1.2909 H         1 RES1    0.0000
     11 O3         2.3383   10.5580    1.4689 O.3       1 RES1    0.0000
     12 C4         0.7958    6.3423    3.2987 C.3       1 RES1    0.0000
     13 H5         1.5290    6.8388    3.6960 H         1 RES1    0.0000
     14 H6        -0.0070    6.8807    3.3754 H         1 RES1    0.0000
     15 C5        -0.2881    3.9838    1.9910 C.3       1 RES1    0.0000
     16 H7        -1.0424    3.4974    1.5982 H         1 RES1    0.0000
     17 C6        -0.5774    4.2652    3.4550 C.3       1 RES1    0.0000
     18 H8        -0.7077    3.4310    3.9325 H         1 RES1    0.0000
     19 H9        -1.3866    4.7935    3.5368 H         1 RES1    0.0000
     20 C7         0.6029    5.0274    4.0534 C.3       1 RES1    0.0000
     21 H10        0.4228    5.2164    4.9979 H         1 RES1    0.0000
     22 C8         1.8714    4.1931    3.9367 C.3       1 RES1    0.0000
     23 H11        2.6206    4.6781    4.3171 H         1 RES1    0.0000
     24 H12        1.7660    3.3631    4.4276 H         1 RES1    0.0000
     25 C9         2.1409    3.8972    2.4722 C.3       1 RES1    0.0000
     26 H13        2.9495    3.3487    2.3940 H         1 RES1    0.0000
     27 C10        0.9644    3.1437    1.8840 C.3       1 RES1    0.0000
     28 H14        1.1407    2.9373    0.9527 H         1 RES1    0.0000
     29 H15        0.8393    2.3080    2.3608 H         1 RES1    0.0000
     30 C11        1.2321    7.4436    1.0717 C.3       1 RES1    0.0000
     31 H16        0.4656    7.9979    1.3307 H         1 RES1    0.0000
     32 C12        0.0664    7.4624   -1.0717 C.2       1 RES1    0.0000
     33 H17       -0.6566    7.7799   -0.5792 H         1 RES1    0.0000
     34 C13       -0.1565    7.2632   -2.4815 C.ar      1 RES1    0.0000
     35 C14       -1.4473    7.4884   -2.9652 C.ar      1 RES1    0.0000
     36 H18       -2.1198    7.7496   -2.3785 H         1 RES1    0.0000
     37 C15       -1.7341    7.3253   -4.3058 C.ar      1 RES1    0.0000
     38 H19       -2.5995    7.4653   -4.6155 H         1 RES1    0.0000
     39 C16       -0.7505    6.9557   -5.1790 C.ar      1 RES1    0.0000
     40 H20       -0.9395    6.8720   -6.0855 H         1 RES1    0.0000
     41 C17        0.5097    6.7118   -4.7179 C.ar      1 RES1    0.0000
     42 H21        1.1714    6.4448   -5.3140 H         1 RES1    0.0000
     43 C18        0.8175    6.8533   -3.3845 C.ar      1 RES1    0.0000
     44 H22        1.6798    6.6728   -3.0859 H         1 RES1    0.0000
     45 C19        2.5018    8.2635    1.3267 C.3       1 RES1    0.0000
     46 H23        3.2931    7.7236    1.1207 H         1 RES1    0.0000
     47 C20        2.7151   10.0793    2.7311 C.3       1 RES1    0.0000
     48 C21        2.5484    9.5755    0.5376 C.3       1 RES1    0.0000
     49 H24        3.4113    9.6881    0.1083 H         1 RES1    0.0000
     50 H25        1.8561    9.5928   -0.1415 H         1 RES1    0.0000
     51 C22        4.1484   10.4141    2.9576 C.3       1 RES1    0.0000
     52 H26        4.4192   10.0908    3.8197 H         1 RES1    0.0000
     53 H27        4.2640   11.3668    2.9223 H         1 RES1    0.0000
     54 H28        4.6849   10.0013    2.2790 H         1 RES1    0.0000
     55 C23        1.8976   10.6191    3.7910 C.3       1 RES1    0.0000
     56 H29        2.1927   10.2655    4.6332 H         1 RES1    0.0000
     57 H30        0.9810   10.3723    3.6451 H         1 RES1    0.0000
     58 H31        1.9749   11.5746    3.7998 H         1 RES1    0.0000
@<TRIPOS>BOND
     1    1    5 1
     2    2    3 1
     3    3   30 1
     4    4   45 1
     5    5    6 1
     6    7    5 1
     7    8    1 1
     8    9    8 1
     9   10    8 1
    10   11   47 1
    11   12    1 1
    12   13   12 1
    13   14   12 1
    14   15    8 1
    15   16   15 1
    16   17   15 1
    17   18   17 1
    18   19   17 1
    19   20   12 1
    20   21   20 1
    21   22   20 1
    22   23   22 1
    23   24   22 1
    24   25    5 1
    25   26   25 1
    26   27   15 1
    27   28   27 1
    28   29   27 1
    29   30    1 1
    30   31   30 1
    31   32    3 2
    32   33   32 1
    33   34   32 1
    34   35   34 ar
    35   36   35 1
    36   37   35 ar
    37   38   37 1
    38   39   37 ar
    39   40   39 1
    40   41   39 ar
    41   42   41 1
    42   43   34 ar
    43   44   43 1
    44   45   30 1
    45   46   45 1
    46   47    4 1
    47   48   11 1
    48   49   48 1
    49   50   48 1
    50   51   47 1
    51   52   51 1
    52   53   51 1
    53   54   51 1
    54   55   47 1
    55   56   55 1
    56   57   55 1
    57   58   55 1
    58   17   20 1
    59   22   25 1
    60   25   27 1
    61   41   43 ar
    62   45   48 1
@<TRIPOS>SUBSTRUCTURE
     1 RES1 1

@<TRIPOS>CRYSIN
   6.3870   14.4340   22.1050  90.0000  90.0000  90.0000  19 1

