# MOL2 file generated by ConQuest
# Please check atom types

@<TRIPOS>MOLECULE
GOMJOI
    70    73     1
SMALL
NO_CHARGES
****
Generated from CSD

@<TRIPOS>ATOM
      1 C1         4.9565    8.1403    8.9950 C.3       1 RES1    0.0000
      2 H1         5.3236    7.8525    9.9288 H         1 RES1    0.0000
      3 C2         6.0336    8.8963    8.2190 C.3       1 RES1    0.0000
      4 H2         5.6402    9.1665    7.3143 H         1 RES1    0.0000
      5 C3         6.4096   10.1052    9.0832 C.3       1 RES1    0.0000
      6 H3         6.7411    9.8182    9.9495 H         1 RES1    0.0000
      7 C4         5.1668   10.9661    9.3198 C.3       1 RES1    0.0000
      8 H4         5.3780   11.7419    9.9599 H         1 RES1    0.0000
      9 C5         4.0830   10.1083    9.9641 C.3       1 RES1    0.0000
     10 H5         4.4083    9.8708   10.8418 H         1 RES1    0.0000
     11 C6         2.7598   10.8158   10.0875 C.3       1 RES1    0.0000
     12 H6         2.4317   11.0061    9.2025 H         1 RES1    0.0000
     13 H7         2.0631   10.2702   10.4890 H         1 RES1    0.0000
     14 C7         3.7656    6.1117    9.0137 C.3       1 RES1    0.0000
     15 H8         4.3539    5.8342    9.8354 H         1 RES1    0.0000
     16 H9         2.9760    6.4859    9.3374 H         1 RES1    0.0000
     17 H10        3.4237    5.3296    8.3310 H         1 RES1    0.0000
     18 C8         7.2603    8.0543    7.9690 C.3       1 RES1    0.0000
     19 H11        8.0349    8.5883    7.5426 H         1 RES1    0.0000
     20 H12        7.6391    7.5686    8.7772 H         1 RES1    0.0000
     21 C9         8.2372   11.6221    9.3104 C.3       1 RES1    0.0000
     22 H13        8.6459   11.0796   10.0325 H         1 RES1    0.0000
     23 H14        7.6440   12.3831    9.7213 H         1 RES1    0.0000
     24 C10        9.3170   12.2770    8.5033 C.ar      1 RES1    0.0000
     25 C11       10.5388   11.6662    8.2875 C.ar      1 RES1    0.0000
     26 H15       10.7066   10.8904    8.7253 H         1 RES1    0.0000
     27 C12       11.5110   12.3011    7.5125 C.ar      1 RES1    0.0000
     28 H16       12.3219   11.8680    7.4388 H         1 RES1    0.0000
     29 C13       11.2612   13.5374    6.9782 C.ar      1 RES1    0.0000
     30 H17       11.9707   13.9494    6.2249 H         1 RES1    0.0000
     31 C14       10.0770   14.1271    7.1888 C.ar      1 RES1    0.0000
     32 H18       10.0807   14.9481    6.7333 H         1 RES1    0.0000
     33 C15        9.1026   13.5247    7.9306 C.ar      1 RES1    0.0000
     34 H19        8.2674   13.8969    8.0405 H         1 RES1    0.0000
     35 C16        5.0846   12.8015    7.7926 C.3       1 RES1    0.0000
     36 H20        6.0558   12.7090    7.4284 H         1 RES1    0.0000
     37 H21        5.0836   13.3187    8.5593 H         1 RES1    0.0000
     38 C17        4.2121   13.4081    6.7509 C.ar      1 RES1    0.0000
     39 C18        4.5849   14.6317    6.2177 C.ar      1 RES1    0.0000
     40 H22        5.4399   15.1478    6.6399 H         1 RES1    0.0000
     41 C19        3.7822   15.2834    5.2964 C.ar      1 RES1    0.0000
     42 H23        4.1560   16.2095    4.8555 H         1 RES1    0.0000
     43 C20        2.6321   14.7136    4.8741 C.ar      1 RES1    0.0000
     44 H24        1.9963   15.1793    4.1500 H         1 RES1    0.0000
     45 C21        2.2524   13.4932    5.3804 C.ar      1 RES1    0.0000
     46 H25        1.4323   13.0559    5.2601 H         1 RES1    0.0000
     47 C22        3.0393   12.8320    6.3225 C.ar      1 RES1    0.0000
     48 H26        2.6865   12.0047    6.7333 H         1 RES1    0.0000
     49 C23        1.7383   12.5545   11.3429 C.3       1 RES1    0.0000
     50 H27        2.0854   13.2661   11.9830 H         1 RES1    0.0000
     51 H28        1.3235   11.8786   11.9000 H         1 RES1    0.0000
     52 C24        0.8406   13.0864   10.2753 C.ar      1 RES1    0.0000
     53 C25        1.1590   14.2248    9.6030 C.ar      1 RES1    0.0000
     54 H29        1.9691   14.6853    9.9392 H         1 RES1    0.0000
     55 C26        0.2721   14.7084    8.6423 C.ar      1 RES1    0.0000
     56 H30        0.5442   15.2424    8.4037 H         1 RES1    0.0000
     57 C27       -0.8955   14.0577    8.3819 C.ar      1 RES1    0.0000
     58 H31       -1.4299   14.4540    7.6567 H         1 RES1    0.0000
     59 C28       -1.2047   12.9823    9.0552 C.ar      1 RES1    0.0000
     60 H32       -1.9691   12.4357    8.7564 H         1 RES1    0.0000
     61 C29       -0.3488   12.4872    9.9879 C.ar      1 RES1    0.0000
     62 H33       -0.5813   11.7840   10.4890 H         1 RES1    0.0000
     63 N1         7.0577    7.0006    6.9304 N.pl3     1 RES1    0.0000
     64 O1         3.8126    8.9541    9.1615 O.3       1 RES1    0.0000
     65 O2         4.5800    7.0236    8.2567 O.3       1 RES1    0.0000
     66 O3         7.4469   10.8202    8.4198 O.3       1 RES1    0.0000
     67 O4         4.6784   11.4764    8.0823 O.3       1 RES1    0.0000
     68 O5         2.9636   11.9860   10.8647 O.3       1 RES1    0.0000
     69 O6         6.4138    7.2396    5.9256 O.2       1 RES1    0.0000
     70 O7         7.5970    5.9272    7.1224 O.2       1 RES1    0.0000
@<TRIPOS>BOND
     1    1    2 1
     2    3    1 1
     3    4    3 1
     4    5    3 1
     5    6    5 1
     6    7    5 1
     7    8    7 1
     8    9    7 1
     9   10    9 1
    10   11    9 1
    11   12   11 1
    12   13   11 1
    13   14   15 1
    14   16   14 1
    15   17   14 1
    16   18    3 1
    17   19   18 1
    18   20   18 1
    19   21   22 1
    20   23   21 1
    21   24   21 1
    22   25   24 ar
    23   26   25 1
    24   27   25 ar
    25   28   27 1
    26   29   27 ar
    27   30   29 1
    28   31   29 ar
    29   32   31 1
    30   33   24 ar
    31   34   33 1
    32   35   36 1
    33   37   35 1
    34   38   35 1
    35   39   38 ar
    36   40   39 1
    37   41   39 ar
    38   42   41 1
    39   43   41 ar
    40   44   43 1
    41   45   43 ar
    42   46   45 1
    43   47   38 ar
    44   48   47 1
    45   49   50 1
    46   51   49 1
    47   52   49 1
    48   53   52 ar
    49   54   53 1
    50   55   53 ar
    51   56   55 1
    52   57   55 ar
    53   58   57 1
    54   59   57 ar
    55   60   59 1
    56   61   52 ar
    57   62   61 1
    58   63   18 1
    59   64    1 1
    60   65    1 1
    61   66    5 1
    62   67    7 1
    63   68   11 1
    64   69   63 2
    65   70   63 2
    66    9   64 1
    67   14   65 1
    68   21   66 1
    69   31   33 ar
    70   35   67 1
    71   45   47 ar
    72   49   68 1
    73   59   61 ar
@<TRIPOS>SUBSTRUCTURE
     1 RES1 1

@<TRIPOS>CRYSIN
  24.7379   10.5120   10.3749  90.0000  90.0000  90.0000  19 1

