# MOL2 file generated by ConQuest
# Please check atom types

@<TRIPOS>MOLECULE
GOPWUF
    50    51     1
SMALL
NO_CHARGES
****
Generated from CSD

@<TRIPOS>ATOM
      1 O1        14.5708    3.3362   12.0422 O.3       1 RES1    0.0000
      2 H1        15.1913    2.8015   12.0345 H         1 RES1    0.0000
      3 N1        12.7111    5.7247   11.3115 N.2       1 RES1    0.0000
      4 N2        12.5012    6.4322   14.6436 N.2       1 RES1    0.0000
      5 N3        14.6170    4.0798   13.2056 N.2       1 RES1    0.0000
      6 C1        12.5055    4.9796   12.3157 C.2       1 RES1    0.0000
      7 C2        13.6143    4.8650   13.3216 C.2       1 RES1    0.0000
      8 C3        13.5221    5.6635   14.5611 C.2       1 RES1    0.0000
      9 C4        11.6855    5.9171   10.3166 C.ar      1 RES1    0.0000
     10 C5        11.4140    4.9490    9.3646 C.ar      1 RES1    0.0000
     11 C6        12.2991    7.2370   15.8032 C.ar      1 RES1    0.0000
     12 C7        12.8629    8.5066   15.8667 C.ar      1 RES1    0.0000
     13 C8        11.0289    7.1483   10.3196 C.ar      1 RES1    0.0000
     14 C9        14.5711    5.4861   15.6118 C.3       1 RES1    0.0000
     15 H2        14.5924    6.2610   16.1780 H         1 RES1    0.0000
     16 H3        15.4282    5.3714   15.1937 H         1 RES1    0.0000
     17 H4        14.3669    4.7103   16.1405 H         1 RES1    0.0000
     18 C10       11.2577    4.2203   12.6215 C.3       1 RES1    0.0000
     19 H5        10.5938    4.4135   11.9548 H         1 RES1    0.0000
     20 H6        10.9280    4.4795   13.4852 H         1 RES1    0.0000
     21 H7        11.4470    3.2789   12.6204 H         1 RES1    0.0000
     22 C11       11.4454    6.7667   16.8004 C.ar      1 RES1    0.0000
     23 C12        9.7551    6.4157    8.4159 C.ar      1 RES1    0.0000
     24 H8         9.0911    6.5735    7.7831 H         1 RES1    0.0000
     25 C13       11.1781    7.5958   17.8731 C.ar      1 RES1    0.0000
     26 H9        10.6110    7.2982   18.5474 H         1 RES1    0.0000
     27 C14       11.3769    8.1949   11.3452 C.3       1 RES1    0.0000
     28 H10       10.7432    8.9134   11.2962 H         1 RES1    0.0000
     29 H11       12.2571    8.5333   11.1697 H         1 RES1    0.0000
     30 H12       11.3533    7.8039   12.2220 H         1 RES1    0.0000
     31 C15       12.1483    3.6315    9.3159 C.3       1 RES1    0.0000
     32 H13       12.9929    3.7186    9.7635 H         1 RES1    0.0000
     33 H14       12.2948    3.3810    8.4019 H         1 RES1    0.0000
     34 H15       11.6237    2.9562    9.7518 H         1 RES1    0.0000
     35 C16       10.0573    7.3728    9.3440 C.ar      1 RES1    0.0000
     36 H16        9.6087    8.1871    9.3252 H         1 RES1    0.0000
     37 C17       12.5561    9.2887   16.9760 C.ar      1 RES1    0.0000
     38 H17       12.9254   10.1390   17.0475 H         1 RES1    0.0000
     39 C18       10.4237    5.2332    8.4157 C.ar      1 RES1    0.0000
     40 H18       10.2188    4.5964    7.7691 H         1 RES1    0.0000
     41 C19       11.7259    8.8403   17.9636 C.ar      1 RES1    0.0000
     42 H19       11.5346    9.3821   18.6950 H         1 RES1    0.0000
     43 C20       10.8320    5.4013   16.7011 C.3       1 RES1    0.0000
     44 H20       11.5241    4.7362   16.7264 H         1 RES1    0.0000
     45 H21       10.3469    5.3274   15.8756 H         1 RES1    0.0000
     46 H22       10.2326    5.2654   17.4388 H         1 RES1    0.0000
     47 C21       13.7360    9.0178   14.7645 C.3       1 RES1    0.0000
     48 H23       14.4337    8.3826   14.5867 H         1 RES1    0.0000
     49 H24       14.1247    9.8556   15.0273 H         1 RES1    0.0000
     50 H25       13.2087    9.1450   13.9726 H         1 RES1    0.0000
@<TRIPOS>BOND
     1    1    2 1
     2    3    6 2
     3    4    8 2
     4    5    1 1
     5    6    7 1
     6    7    5 2
     7    8    7 1
     8    9    3 1
     9   10    9 ar
    10   11    4 1
    11   12   11 ar
    12   13    9 ar
    13   14    8 1
    14   15   14 1
    15   16   14 1
    16   17   14 1
    17   18    6 1
    18   19   18 1
    19   20   18 1
    20   21   18 1
    21   22   11 ar
    22   23   24 1
    23   25   22 ar
    24   26   25 1
    25   27   13 1
    26   28   27 1
    27   29   27 1
    28   30   27 1
    29   31   10 1
    30   32   31 1
    31   33   31 1
    32   34   31 1
    33   35   13 ar
    34   36   35 1
    35   37   12 ar
    36   38   37 1
    37   39   10 ar
    38   40   39 1
    39   41   25 ar
    40   42   41 1
    41   43   22 1
    42   44   43 1
    43   45   43 1
    44   46   43 1
    45   47   12 1
    46   48   47 1
    47   49   47 1
    48   50   47 1
    49   23   35 ar
    50   23   39 ar
    51   37   41 ar
@<TRIPOS>SUBSTRUCTURE
     1 RES1 1

