# MOL2 file generated by ConQuest
# Please check atom types

@<TRIPOS>MOLECULE
GORCOF
    32    34     1
SMALL
NO_CHARGES
****
Generated from CSD

@<TRIPOS>ATOM
      1 C1         4.9755    0.9599    4.1979 C.ar      1 RES1    0.0000
      2 C2         3.7861    0.3773    3.8534 C.ar      1 RES1    0.0000
      3 C3         2.8520    0.1068    4.8469 C.ar      1 RES1    0.0000
      4 C4         3.1467    0.4143    6.1639 C.ar      1 RES1    0.0000
      5 C5         4.3644    0.9909    6.5008 C.ar      1 RES1    0.0000
      6 C6         5.2957    1.2656    5.5157 C.ar      1 RES1    0.0000
      7 C7         1.3804    0.1015    9.1848 C.ar      1 RES1    0.0000
      8 C8         0.1221   -0.4920    8.9458 C.ar      1 RES1    0.0000
      9 C9        -0.5674   -0.5396   10.1276 C.ar      1 RES1    0.0000
     10 C10        0.2087    0.0234   11.1593 C.ar      1 RES1    0.0000
     11 C11       -0.1607    0.1566   12.4858 C.ar      1 RES1    0.0000
     12 C12        0.5560    0.7132   13.5411 C.ar      1 RES1    0.0000
     13 C13        1.8164    1.2565   13.5333 C.ar      1 RES1    0.0000
     14 C14        2.7344    1.4082   12.4831 C.ar      1 RES1    0.0000
     15 C15        2.5696    1.0452   11.1540 C.ar      1 RES1    0.0000
     16 C16        1.4921    0.4411   10.5455 C.ar      1 RES1    0.0000
     17 N1         5.9384    1.2708    3.1417 N.pl3     1 RES1    0.0000
     18 N2         2.1086    0.0913    7.0848 N.2       1 RES1    0.0000
     19 N3         2.3998    0.3943    8.2910 N.2       1 RES1    0.0000
     20 O1         5.6827    0.8943    2.0081 O.2       1 RES1    0.0000
     21 O2         6.9451    1.9051    3.4391 O.2       1 RES1    0.0000
     22 H1         3.6231   -0.0257    2.8793 H         1 RES1    0.0000
     23 H2         1.9118   -0.2007    4.6637 H         1 RES1    0.0000
     24 H3         4.5650    1.1622    7.4509 H         1 RES1    0.0000
     25 H4         6.1820    1.6893    5.7823 H         1 RES1    0.0000
     26 H5        -0.2119   -0.8535    8.0352 H         1 RES1    0.0000
     27 H6        -1.4844   -0.8871   10.2460 H         1 RES1    0.0000
     28 H7        -1.0657   -0.1302   12.7253 H         1 RES1    0.0000
     29 H8         0.0515    0.6452   14.4386 H         1 RES1    0.0000
     30 H9         2.0922    1.6667   14.3728 H         1 RES1    0.0000
     31 H10        3.6177    1.7757   12.7410 H         1 RES1    0.0000
     32 H11        3.3847    1.2576   10.6145 H         1 RES1    0.0000
@<TRIPOS>BOND
     1    1    2 ar
     2    2    3 ar
     3    3    4 ar
     4    4    5 ar
     5    5    6 ar
     6    6    1 ar
     7    7    8 ar
     8    8    9 ar
     9    9   10 ar
    10   10   11 ar
    11   11   12 ar
    12   12   13 ar
    13   13   14 ar
    14   14   15 ar
    15   15   16 ar
    16   16    7 ar
    17   17    1 1
    18   18    4 1
    19   19    7 1
    20   20   17 2
    21   21   17 2
    22   22    2 1
    23   23    3 1
    24   24    5 1
    25   25    6 1
    26   26    8 1
    27   27    9 1
    28   28   11 1
    29   29   12 1
    30   30   13 1
    31   31   14 1
    32   32   15 1
    33   10   16 ar
    34   18   19 2
@<TRIPOS>SUBSTRUCTURE
     1 RES1 1

@<TRIPOS>CRYSIN
   6.4003    3.7733   26.4540  90.0000  95.7900  90.0000   7 1

