# MOL2 file generated by ConQuest
# Please check atom types

@<TRIPOS>MOLECULE
GORLUW
    53    56     1
SMALL
NO_CHARGES
****
Generated from CSD

@<TRIPOS>ATOM
      1 C1         3.5649   14.5810    9.3714 C.ar      1 RES1    0.0000
      2 C2         3.5967   15.3924    8.2849 C.ar      1 RES1    0.0000
      3 H1         3.3553   16.2882    8.3597 H         1 RES1    0.0000
      4 C3         3.9990   14.8658    7.0409 C.ar      1 RES1    0.0000
      5 C4         4.1057   15.6582    5.8613 C.ar      1 RES1    0.0000
      6 C5         4.6738   15.0878    4.7484 C.ar      1 RES1    0.0000
      7 C6         4.9921   13.6890    4.7461 C.ar      1 RES1    0.0000
      8 C7         4.3806   13.5027    6.9616 C.ar      1 RES1    0.0000
      9 C8         4.2949   12.6978    8.1171 C.ar      1 RES1    0.0000
     10 H2         4.5210   11.7960    8.0676 H         1 RES1    0.0000
     11 C9         3.8843   13.2226    9.3059 C.ar      1 RES1    0.0000
     12 H3         3.8186   12.6845   10.0613 H         1 RES1    0.0000
     13 C10        3.6148   17.0668    5.8786 C.ar      1 RES1    0.0000
     14 C11        2.2525   17.2940    5.9947 C.ar      1 RES1    0.0000
     15 H4         1.6695   16.5749    6.0901 H         1 RES1    0.0000
     16 C12        1.7605   18.5779    5.9705 C.ar      1 RES1    0.0000
     17 H5         0.8440   18.7220    6.0407 H         1 RES1    0.0000
     18 C13        2.6023   19.6405    5.8441 C.ar      1 RES1    0.0000
     19 H6         2.2604   20.5043    5.8314 H         1 RES1    0.0000
     20 C14        3.9478   19.4357    5.7383 C.ar      1 RES1    0.0000
     21 H7         4.5242   20.1629    5.6601 H         1 RES1    0.0000
     22 C15        4.4543   18.1492    5.7452 C.ar      1 RES1    0.0000
     23 H8         5.3709   18.0132    5.6601 H         1 RES1    0.0000
     24 C16        4.9689   15.9255    3.5308 C.2       1 RES1    0.0000
     25 C17        3.8550   16.5540    2.7662 C.3       1 RES1    0.0000
     26 H9         4.1831   17.3253    2.2983 H         1 RES1    0.0000
     27 H10        3.1603   16.8198    3.3733 H         1 RES1    0.0000
     28 H11        3.5040   15.9208    2.1350 H         1 RES1    0.0000
     29 C18        5.4277   13.0194    3.5205 C.2       1 RES1    0.0000
     30 H12        5.4920   13.5262    2.7432 H         1 RES1    0.0000
     31 C19        5.7349   11.7366    3.4549 C.2       1 RES1    0.0000
     32 H13        5.6919   11.2670    4.2563 H         1 RES1    0.0000
     33 C20        6.1357   10.9643    2.2788 C.ar      1 RES1    0.0000
     34 C21        6.3158   11.5313    1.0210 C.ar      1 RES1    0.0000
     35 H14        6.1704   12.4422    0.9025 H         1 RES1    0.0000
     36 C22        6.7074   10.7602   -0.0517 C.ar      1 RES1    0.0000
     37 H15        6.8395   11.1628   -0.8795 H         1 RES1    0.0000
     38 C23        6.9050    9.4120    0.0828 C.ar      1 RES1    0.0000
     39 C24        6.7244    8.8146    1.3302 C.ar      1 RES1    0.0000
     40 C25        6.3428    9.5931    2.4041 C.ar      1 RES1    0.0000
     41 H16        6.2211    9.1903    3.2342 H         1 RES1    0.0000
     42 C26        6.7340    6.7920    2.5961 C.3       1 RES1    0.0000
     43 H17        7.3645    7.1057    3.2491 H         1 RES1    0.0000
     44 H18        6.8520    5.8472    2.4650 H         1 RES1    0.0000
     45 H19        5.8417    6.9624    2.9054 H         1 RES1    0.0000
     46 N1         3.2020   15.1527   10.6752 N.pl3     1 RES1    0.0000
     47 N2         4.8290   12.9318    5.8199 N.ar      1 RES1    0.0000
     48 O1         3.2365   14.4205   11.6533 O.2       1 RES1    0.0000
     49 O2         2.8998   16.3338   10.7258 O.2       1 RES1    0.0000
     50 O3         6.1233   16.0357    3.1721 O.2       1 RES1    0.0000
     51 O4         7.2835    8.6027   -0.9439 O.3       1 RES1    0.0000
     52 O5         6.9484    7.4705    1.3700 O.3       1 RES1    0.0000
     53 H20        7.4943    9.1564   -1.6441 H         1 RES1    0.0000
@<TRIPOS>BOND
     1    1    2 ar
     2    2    3 1
     3    4    2 ar
     4    5    4 ar
     5    6    5 ar
     6    7    6 ar
     7    8    4 ar
     8    9    8 ar
     9   10    9 1
    10   11    1 ar
    11   12   11 1
    12   13    5 1
    13   14   13 ar
    14   15   14 1
    15   16   14 ar
    16   17   16 1
    17   18   16 ar
    18   19   18 1
    19   20   18 ar
    20   21   20 1
    21   22   13 ar
    22   23   22 1
    23   24    6 1
    24   25   24 1
    25   26   25 1
    26   27   25 1
    27   28   25 1
    28   29    7 1
    29   30   29 1
    30   31   29 2
    31   32   31 1
    32   33   31 1
    33   34   33 ar
    34   35   34 1
    35   36   34 ar
    36   37   36 1
    37   38   36 ar
    38   39   38 ar
    39   40   33 ar
    40   41   40 1
    41   42   43 1
    42   44   42 1
    43   45   42 1
    44   46    1 1
    45   47    7 ar
    46   48   46 2
    47   49   46 2
    48   50   24 2
    49   51   38 1
    50   52   39 1
    51   53   51 1
    52    8   47 ar
    53    9   11 ar
    54   20   22 ar
    55   39   40 ar
    56   42   52 1
@<TRIPOS>SUBSTRUCTURE
     1 RES1 1

@<TRIPOS>CRYSIN
   7.1637   26.0570   11.5507  90.0000  95.5130  90.0000  14 1

