# MOL2 file generated by ConQuest
# Please check atom types

@<TRIPOS>MOLECULE
GORRUC
    89    93     1
SMALL
NO_CHARGES
****
Generated from CSD

@<TRIPOS>ATOM
      1 C1         3.0539    7.4187   10.7650 C.2       1 RES1    0.0000
      2 C2         4.0022    7.6141    9.8661 C.2       1 RES1    0.0000
      3 C3         7.5561    8.4615    9.5300 C.3       1 RES1    0.0000
      4 C4        -2.3817    3.8740   15.7796 C.ar      1 RES1    0.0000
      5 C5        -1.8421   10.2714   10.3402 C.ar      1 RES1    0.0000
      6 C6        -1.1846    4.3032   15.2254 C.ar      1 RES1    0.0000
      7 C7        -0.4632    6.3085   11.5221 C.3       1 RES1    0.0000
      8 C8        -2.0139    3.7695   13.0407 C.ar      1 RES1    0.0000
      9 C9         0.4620    9.1435    9.2854 C.ar      1 RES1    0.0000
     10 C10       -1.2263    9.2086   10.9791 C.ar      1 RES1    0.0000
     11 C11        0.3664    5.0308   11.7571 C.3       1 RES1    0.0000
     12 C12       -3.3994    3.3938   14.9751 C.ar      1 RES1    0.0000
     13 C13       -0.9842    4.2561   13.8450 C.ar      1 RES1    0.0000
     14 C14       -1.2999   10.7833    9.1698 C.ar      1 RES1    0.0000
     15 C15        0.3906    4.6035   13.2744 C.3       1 RES1    0.0000
     16 C16       -0.0717    8.6199   10.4578 C.ar      1 RES1    0.0000
     17 C17        1.7402    6.7280   10.5227 C.3       1 RES1    0.0000
     18 C18        0.5430    7.4363   11.1897 C.3       1 RES1    0.0000
     19 C19        5.3415    8.1145   10.2639 C.2       1 RES1    0.0000
     20 C20       -3.2077    3.3455   13.6039 C.ar      1 RES1    0.0000
     21 C21        1.7772    5.3107   11.1660 C.3       1 RES1    0.0000
     22 C22       -0.1447   10.2218    8.6463 C.ar      1 RES1    0.0000
     23 O1        -2.5730    6.2107   10.4865 O.2       1 RES1    0.0000
     24 O2         4.4752    4.4249   10.7852 O.3       1 RES1    0.0000
     25 O3         5.6480    8.4924   11.3635 O.2       1 RES1    0.0000
     26 O4         4.0192    4.4221    8.5938 O.2       1 RES1    0.0000
     27 O5        -0.8375    5.7633    9.2761 O.2       1 RES1    0.0000
     28 O6         6.1970    8.0686    9.2281 O.3       1 RES1    0.0000
     29 C23        3.6521    4.3652    9.7345 C.2       1 RES1    0.0000
     30 C24        2.2265    4.2103   10.1869 C.3       1 RES1    0.0000
     31 N1        -1.3714    6.0788   10.3336 N.pl3     1 RES1    0.0000
     32 O7         0.9141    2.2422   12.8814 O.2       1 RES1    0.0000
     33 O8         3.5713    1.9610   12.8505 O.3       1 RES1    0.0000
     34 N2         2.5130    3.6639   13.8178 N.am      1 RES1    0.0000
     35 C25        0.9310    6.8200   14.5855 C.ar      1 RES1    0.0000
     36 O9         4.5079    2.9292   14.6807 O.2       1 RES1    0.0000
     37 C26        1.2223    5.5499   14.1120 C.ar      1 RES1    0.0000
     38 C27        4.0353   -0.0758   14.0861 C.3       1 RES1    0.0000
     39 C28        3.4767    5.6819   15.0205 C.ar      1 RES1    0.0000
     40 C29        2.4702    4.9778   14.3639 C.ar      1 RES1    0.0000
     41 C30        4.3584    0.6987   12.8255 C.3       1 RES1    0.0000
     42 C31        3.1740    6.9728   15.4496 C.ar      1 RES1    0.0000
     43 C32        1.2587    3.3202   13.2752 C.2       1 RES1    0.0000
     44 C33        1.9226    7.5311   15.2643 C.ar      1 RES1    0.0000
     45 C34        3.7801    0.0052   11.6044 C.3       1 RES1    0.0000
     46 C35        3.6511    2.8139   13.8498 C.2       1 RES1    0.0000
     47 C36        5.8254    1.0044   12.6706 C.3       1 RES1    0.0000
     48 C37        5.8859    4.5864   10.5094 C.3       1 RES1    0.0000
     49 C38        6.5502    4.9751   11.7836 C.3       1 RES1    0.0000
     50 H1        -1.1256    6.5219   12.2397 H         1 RES1    0.0000
     51 H2         2.3693    5.2877   11.8395 H         1 RES1    0.0000
     52 H3        -1.9098    3.8415   12.0524 H         1 RES1    0.0000
     53 H4         1.7056    4.1957    9.3935 H         1 RES1    0.0000
     54 H5         3.1908    7.6433   11.6693 H         1 RES1    0.0000
     55 H6         1.2387    8.7742    8.9802 H         1 RES1    0.0000
     56 H7         4.4835    0.3994   14.9310 H         1 RES1    0.0000
     57 H8        -0.0875    4.2893   11.2998 H         1 RES1    0.0000
     58 H9        -0.4806    4.6155   15.8233 H         1 RES1    0.0000
     59 H10       -4.1683    3.1495   15.3920 H         1 RES1    0.0000
     60 H11       -1.6420    8.8648   11.8143 H         1 RES1    0.0000
     61 H12        0.2129   10.5127    7.8073 H         1 RES1    0.0000
     62 H13        2.2266    3.3013   10.6237 H         1 RES1    0.0000
     63 H14       -1.7264   11.5189    8.7882 H         1 RES1    0.0000
     64 H15        0.0204    7.2902   14.5457 H         1 RES1    0.0000
     65 H16        1.5823    6.7027    9.5706 H         1 RES1    0.0000
     66 H17        7.8907    8.7606    8.7898 H         1 RES1    0.0000
     67 H18        0.8290    7.6818   12.0524 H         1 RES1    0.0000
     68 H19        1.7309    8.3881   15.5802 H         1 RES1    0.0000
     69 H20        4.3483   -0.7736   11.5557 H         1 RES1    0.0000
     70 H21       -2.5860   10.6816   10.6959 H         1 RES1    0.0000
     71 H22        2.8002   -0.0006   11.7702 H         1 RES1    0.0000
     72 H23        4.4000   -0.9567   13.9953 H         1 RES1    0.0000
     73 H24       -3.8044    3.0038   13.0482 H         1 RES1    0.0000
     74 H25        2.9749   -0.1907   14.2074 H         1 RES1    0.0000
     75 H26        6.1891    5.7945   12.0728 H         1 RES1    0.0000
     76 H27        3.9607    0.5731   10.8332 H         1 RES1    0.0000
     77 H28        4.3135    5.2991   15.2114 H         1 RES1    0.0000
     78 H29        3.9560    7.3535    8.9541 H         1 RES1    0.0000
     79 H30        6.0267    5.1233    9.7634 H         1 RES1    0.0000
     80 H31       -2.5055    3.8627   16.8314 H         1 RES1    0.0000
     81 H32        3.8385    7.4029   15.8909 H         1 RES1    0.0000
     82 H33        6.2641    3.5087   10.3259 H         1 RES1    0.0000
     83 H34        6.1703    1.4184   13.4975 H         1 RES1    0.0000
     84 H35        5.9955    1.5821   11.8512 H         1 RES1    0.0000
     85 H36        7.4767    5.0487   11.6884 H         1 RES1    0.0000
     86 H37        6.3548    4.3202   12.4743 H         1 RES1    0.0000
     87 H38        8.0637    7.7205    9.8455 H         1 RES1    0.0000
     88 H39        7.5702    9.1492   10.1943 H         1 RES1    0.0000
     89 H40        6.2777    0.1696   12.5556 H         1 RES1    0.0000
@<TRIPOS>BOND
     1    1    2 2
     2    2   19 1
     3    3   28 1
     4    4    6 ar
     5    5   10 ar
     6    6   13 ar
     7    7   11 1
     8    8   13 ar
     9    9   16 ar
    10   10   16 ar
    11   11   15 1
    12   12    4 ar
    13   13   15 1
    14   14    5 ar
    15   15   37 1
    16   16   18 1
    17   17    1 1
    18   18    7 1
    19   19   25 2
    20   20    8 ar
    21   21   11 1
    22   22    9 ar
    23   23   31 2
    24   24   29 1
    25   26   29 2
    26   27   31 2
    27   28   19 1
    28   29   30 1
    29   30   21 1
    30   31    7 1
    31   32   43 2
    32   33   41 1
    33   34   40 1
    34   35   37 ar
    35   36   46 2
    36   37   40 ar
    37   38   41 1
    38   39   40 ar
    39   41   45 1
    40   42   39 ar
    41   43   15 1
    42   44   35 ar
    43   45   69 1
    44   46   33 1
    45   47   41 1
    46   48   24 1
    47   49   48 1
    48   50    7 1
    49   51   21 1
    50   52    8 1
    51   53   30 1
    52   54    1 1
    53   55    9 1
    54   56   38 1
    55   57   11 1
    56   58    6 1
    57   59   12 1
    58   60   10 1
    59   61   22 1
    60   62   30 1
    61   63   14 1
    62   64   35 1
    63   65   17 1
    64   66    3 1
    65   67   18 1
    66   68   44 1
    67   70    5 1
    68   71   45 1
    69   72   38 1
    70   73   20 1
    71   74   38 1
    72   75   49 1
    73   76   45 1
    74   77   39 1
    75   78    2 1
    76   79   48 1
    77   80    4 1
    78   81   42 1
    79   82   48 1
    80   83   47 1
    81   84   47 1
    82   85   49 1
    83   86   49 1
    84   87    3 1
    85   88    3 1
    86   89   47 1
    87   12   20 ar
    88   14   22 ar
    89   17   18 1
    90   17   21 1
    91   34   43 1
    92   34   46 1
    93   42   44 ar
@<TRIPOS>SUBSTRUCTURE
     1 RES1 1

@<TRIPOS>CRYSIN
  12.6048   14.7709   18.3757  90.0000  90.0000  90.0000  19 1

