# MOL2 file generated by ConQuest
# Please check atom types

@<TRIPOS>MOLECULE
GOWKOU
    32    32     1
SMALL
NO_CHARGES
****
Generated from CSD

@<TRIPOS>ATOM
      1 O1        -1.5069    5.0276    8.2716 O.3       1 RES1    0.0000
      2 H1        -1.5313    5.4359    7.4883 H         1 RES1    0.0000
      3 O2        -0.7874    3.0419    8.8673 O.2       1 RES1    0.0000
      4 O3        -1.3410    5.7092    5.8156 O.2       1 RES1    0.0000
      5 O4        -0.3915    4.3047    4.3606 O.3       1 RES1    0.0000
      6 O5         1.6914   -2.5172    9.6379 O.2       1 RES1    0.0000
      7 O6         2.9888   -3.6268    8.3573 O.2       1 RES1    0.0000
      8 N1         0.3591    1.4504    7.0457 N.pl3     1 RES1    0.0000
      9 H2         0.1603    1.5679    7.8782 H         1 RES1    0.0000
     10 N2         2.1811   -2.7352    8.5486 N.pl3     1 RES1    0.0000
     11 C1         0.9574    0.2240    6.7073 C.ar      1 RES1    0.0000
     12 C2         1.2227   -0.6582    7.7344 C.ar      1 RES1    0.0000
     13 H3         0.9850   -0.4531    8.6102 H         1 RES1    0.0000
     14 C3         1.8469   -1.8462    7.4357 C.ar      1 RES1    0.0000
     15 C4         2.1948   -2.2088    6.1544 C.ar      1 RES1    0.0000
     16 H4         2.6190   -3.0178    5.9790 H         1 RES1    0.0000
     17 C5         1.8926   -1.3301    5.1458 C.ar      1 RES1    0.0000
     18 H5         2.0996   -1.5584    4.2675 H         1 RES1    0.0000
     19 C6         1.2916   -0.1215    5.4010 C.ar      1 RES1    0.0000
     20 H6         1.1090    0.4652    4.7028 H         1 RES1    0.0000
     21 C7         0.0878    2.4595    6.2343 C.2       1 RES1    0.0000
     22 H7         0.3273    2.3613    5.3403 H         1 RES1    0.0000
     23 C8        -0.5156    3.6380    6.5969 C.2       1 RES1    0.0000
     24 C9        -0.9322    3.8629    7.9803 C.2       1 RES1    0.0000
     25 C10       -0.7872    4.6434    5.5840 C.2       1 RES1    0.0000
     26 C11       -0.6939    5.2257    3.2792 C.3       1 RES1    0.0000
     27 H8        -0.2933    6.0915    3.4539 H         1 RES1    0.0000
     28 H9        -1.6539    5.3420    3.1961 H         1 RES1    0.0000
     29 C12       -0.1379    4.6434    2.0322 C.3       1 RES1    0.0000
     30 H10        0.8061    4.5055    2.1377 H         1 RES1    0.0000
     31 H11       -0.2934    5.2456    1.3007 H         1 RES1    0.0000
     32 H12       -0.5662    3.8034    1.8526 H         1 RES1    0.0000
@<TRIPOS>BOND
     1    1    2 1
     2    3   24 2
     3    4   25 2
     4    5   25 1
     5    6   10 2
     6    7   10 2
     7    8    9 1
     8   10   14 1
     9   11    8 1
    10   12   11 ar
    11   13   12 1
    12   14   12 ar
    13   15   14 ar
    14   16   15 1
    15   17   15 ar
    16   18   17 1
    17   19   11 ar
    18   20   19 1
    19   21    8 1
    20   22   21 1
    21   23   21 2
    22   24    1 1
    23   25   23 1
    24   26    5 1
    25   27   26 1
    26   28   26 1
    27   29   26 1
    28   30   29 1
    29   31   29 1
    30   32   29 1
    31   17   19 ar
    32   23   24 1
@<TRIPOS>SUBSTRUCTURE
     1 RES1 1

@<TRIPOS>CRYSIN
  11.4230    8.6148   13.9893  90.0000 112.1650  90.0000  14 1

