# MOL2 file generated by ConQuest
# Please check atom types

@<TRIPOS>MOLECULE
GOXKAF
    36    37     1
SMALL
NO_CHARGES
****
Generated from CSD

@<TRIPOS>ATOM
      1 O1         8.3515    3.8172    6.1273 O.2       1 RES1    0.0000
      2 O2        12.2467    3.0898    6.9184 O.2       1 RES1    0.0000
      3 O3         8.2934    0.1348    6.5425 O.3       1 RES1    0.0000
      4 O4        11.1129    5.0977    0.0750 O.2       1 RES1    0.0000
      5 O5        11.8791    3.1164   -0.3430 O.2       1 RES1    0.0000
      6 N1        10.0063    2.3423    5.6342 N.am      1 RES1    0.0000
      7 N2        10.8949    1.4302    6.2152 N.am      1 RES1    0.0000
      8 N3        11.3722    3.9446    0.3859 N.pl3     1 RES1    0.0000
      9 C1         8.9976    2.8361    6.4446 C.2       1 RES1    0.0000
     10 C2        12.0080    1.8964    6.8283 C.2       1 RES1    0.0000
     11 C3        10.3055    2.7639    4.3071 C.ar      1 RES1    0.0000
     12 C4        11.2935    2.0949    3.6060 C.ar      1 RES1    0.0000
     13 C5        11.6134    2.4613    2.3154 C.ar      1 RES1    0.0000
     14 C6        10.9814    3.5188    1.7473 C.ar      1 RES1    0.0000
     15 C7        10.0269    4.2132    2.4226 C.ar      1 RES1    0.0000
     16 C8         9.6503    3.8267    3.6939 C.ar      1 RES1    0.0000
     17 C9         8.7319    2.1257    7.7180 C.ar      1 RES1    0.0000
     18 C10        8.7203    2.8414    8.9036 C.ar      1 RES1    0.0000
     19 C11        8.3695    2.2468   10.0935 C.ar      1 RES1    0.0000
     20 C12        7.9980    0.9142   10.0935 C.ar      1 RES1    0.0000
     21 C13        7.9697    0.1837    8.9315 C.ar      1 RES1    0.0000
     22 C14        8.3282    0.7815    7.7288 C.ar      1 RES1    0.0000
     23 C15       12.9251    0.8558    7.3729 C.3       1 RES1    0.0000
     24 H1        10.7956    0.4460    6.1744 H         1 RES1    0.0000
     25 H2        11.8662    1.4122    3.9877 H         1 RES1    0.0000
     26 H3        12.2918    2.0599    1.7794 H         1 RES1    0.0000
     27 H4         9.5316    4.8843    2.0367 H         1 RES1    0.0000
     28 H5         8.7706    4.3746    4.2235 H         1 RES1    0.0000
     29 H6         8.8867    3.6526    8.8972 H         1 RES1    0.0000
     30 H7         8.3450    2.8032   10.8696 H         1 RES1    0.0000
     31 H8         7.7259    0.4353   10.8910 H         1 RES1    0.0000
     32 H9         7.6872   -0.7433    8.8329 H         1 RES1    0.0000
     33 H10        7.8420   -0.6265    6.6247 H         1 RES1    0.0000
     34 H11       13.5687    1.2423    7.8896 H         1 RES1    0.0000
     35 H12       12.6271    0.3185    7.8681 H         1 RES1    0.0000
     36 H13       13.1818    0.3185    6.7318 H         1 RES1    0.0000
@<TRIPOS>BOND
     1    1    9 2
     2    2   10 2
     3    3   22 1
     4    4    8 2
     5    5    8 2
     6    6    7 1
     7    7   10 1
     8    8   14 1
     9    9    6 1
    10   10   23 1
    11   11    6 1
    12   12   11 ar
    13   13   12 ar
    14   14   13 ar
    15   15   14 ar
    16   16   11 ar
    17   17    9 1
    18   18   17 ar
    19   19   18 ar
    20   20   19 ar
    21   21   20 ar
    22   22   17 ar
    23   23   34 1
    24   24    7 1
    25   25   12 1
    26   26   13 1
    27   27   15 1
    28   28   16 1
    29   29   18 1
    30   30   19 1
    31   31   20 1
    32   32   21 1
    33   33    3 1
    34   35   23 1
    35   36   23 1
    36   15   16 ar
    37   21   22 ar
@<TRIPOS>SUBSTRUCTURE
     1 RES1 1

@<TRIPOS>CRYSIN
  12.8980   10.6180   21.4390  90.0000  90.0000  90.0000  61 1

