# MOL2 file generated by ConQuest
# Please check atom types

@<TRIPOS>MOLECULE
GOYFOP
    38    39     1
SMALL
NO_CHARGES
****
Generated from CSD

@<TRIPOS>ATOM
      1 O1         1.7799    6.1925    4.7316 O.2       1 RES1    0.0000
      2 C1         1.6854    5.0579    4.2893 C.2       1 RES1    0.0000
      3 C2         1.7604    4.7807    2.8385 C.2       1 RES1    0.0000
      4 N1         1.8592    5.8791    2.0799 N.2       1 RES1    0.0000
      5 O2         1.8669    5.7358    0.7997 O.2       1 RES1    0.0000
      6 C3         1.7285    3.4252    2.3573 C.2       1 RES1    0.0000
      7 N2         1.6738    3.2405    1.0615 N.3       1 RES1    0.0000
      8 C4         1.7646    2.2979    3.3318 C.3       1 RES1    0.0000
      9 C5         0.9910    2.6027    4.6212 C.3       1 RES1    0.0000
     10 C6         1.5267    3.8961    5.2262 C.3       1 RES1    0.0000
     11 C7         1.2283    1.4558    5.6041 C.3       1 RES1    0.0000
     12 C8        -0.4989    2.7131    4.3353 C.3       1 RES1    0.0000
     13 C9         1.7045    2.0126    0.3361 C.ar      1 RES1    0.0000
     14 C10        2.6221    1.0227    0.6150 C.ar      1 RES1    0.0000
     15 C11        2.6360   -0.1121   -0.1875 C.ar      1 RES1    0.0000
     16 C12        1.7720   -0.2355   -1.2476 C.ar      1 RES1    0.0000
     17 C13        0.8700    0.7800   -1.5328 C.ar      1 RES1    0.0000
     18 C14        0.8356    1.9163   -0.7402 C.ar      1 RES1    0.0000
     19 O3         0.0662    0.5753   -2.6135 O.3       1 RES1    0.0000
     20 C15       -0.8507    1.6060   -2.9602 C.3       1 RES1    0.0000
     21 H1         1.6112    4.0886    0.5966 H         1 RES1    0.0000
     22 H2         1.4001    1.5139    2.9227 H         1 RES1    0.0000
     23 H3         2.7325    2.1335    3.5306 H         1 RES1    0.0000
     24 H4         2.4147    3.7000    5.6063 H         1 RES1    0.0000
     25 H5         0.9737    4.1977    5.9283 H         1 RES1    0.0000
     26 H6         0.7612    1.6338    6.4576 H         1 RES1    0.0000
     27 H7         2.1890    1.3114    5.7436 H         1 RES1    0.0000
     28 H8         0.8912    0.6231    5.2560 H         1 RES1    0.0000
     29 H9        -0.6689    3.3594    3.6156 H         1 RES1    0.0000
     30 H10       -0.8664    1.8915    4.0104 H         1 RES1    0.0000
     31 H11       -0.9843    3.0376    5.1640 H         1 RES1    0.0000
     32 H12        3.2780    1.1426    1.3106 H         1 RES1    0.0000
     33 H13        3.2849   -0.8151   -0.0170 H         1 RES1    0.0000
     34 H14        1.7813   -0.9391   -1.7841 H         1 RES1    0.0000
     35 H15        0.1861    2.6300   -0.9348 H         1 RES1    0.0000
     36 H16       -1.5075    1.7968   -2.1676 H         1 RES1    0.0000
     37 H17       -1.2844    1.2199   -3.7288 H         1 RES1    0.0000
     38 H18       -0.3648    2.4382   -3.1230 H         1 RES1    0.0000
@<TRIPOS>BOND
     1    1    2 2
     2    2    3 1
     3    3    4 1
     4    4    5 2
     5    6    3 2
     6    7    6 1
     7    8    6 1
     8    9    8 1
     9   10    2 1
    10   11    9 1
    11   12    9 1
    12   13    7 1
    13   14   13 ar
    14   15   14 ar
    15   16   15 ar
    16   17   16 ar
    17   18   13 ar
    18   19   17 1
    19   20   19 1
    20   21    7 1
    21   22    8 1
    22   23    8 1
    23   24   10 1
    24   25   10 1
    25   26   11 1
    26   27   11 1
    27   28   11 1
    28   29   12 1
    29   30   12 1
    30   31   12 1
    31   32   14 1
    32   33   15 1
    33   34   16 1
    34   35   18 1
    35   36   20 1
    36   37   20 1
    37   38   20 1
    38    9   10 1
    39   17   18 ar
@<TRIPOS>SUBSTRUCTURE
     1 RES1 1

@<TRIPOS>CRYSIN
   8.9340   10.9300    8.0440 106.2400 114.4900  83.2800   2 1

