# MOL2 file generated by ConQuest
# Please check atom types

@<TRIPOS>MOLECULE
GOZNEO
    29    30     1
SMALL
NO_CHARGES
****
Generated from CSD

@<TRIPOS>ATOM
      1 N1         8.7391    1.2519    7.6364 N.3       1 RES1    0.0000
      2 C1         8.2071    2.4308    7.2296 C.2       1 RES1    0.0000
      3 N2         7.1441    2.5151    6.5262 N.2       1 RES1    0.0000
      4 C2         6.5265    1.3203    6.2062 C.2       1 RES1    0.0000
      5 C3         6.9597    0.0790    6.6118 C.2       1 RES1    0.0000
      6 C4         8.1979    0.0060    7.4007 C.2       1 RES1    0.0000
      7 O1         9.8630    1.3004    8.4513 O.3       1 RES1    0.0000
      8 C5        11.0570    1.3674    7.6268 C.3       1 RES1    0.0000
      9 H1        11.0667    2.1932    7.1177 H         1 RES1    0.0000
     10 H2        11.0766    0.6233    7.0047 H         1 RES1    0.0000
     11 C6        12.2372    1.3090    8.5330 C.ar      1 RES1    0.0000
     12 C7        12.9480    2.4395    8.8361 C.ar      1 RES1    0.0000
     13 H3        12.6881    3.2639    8.4928 H         1 RES1    0.0000
     14 C8        14.0680    2.3406    9.6673 C.ar      1 RES1    0.0000
     15 H4        14.5425    3.1066    9.8976 H         1 RES1    0.0000
     16 C9        14.4655    1.1391   10.1384 C.ar      1 RES1    0.0000
     17 H5        15.2314    1.0760   10.6612 H         1 RES1    0.0000
     18 C10       13.7456    0.0199    9.8479 C.ar      1 RES1    0.0000
     19 H6        14.0071   -0.8032   10.1923 H         1 RES1    0.0000
     20 C11        5.3519    1.4192    5.4045 C.1       1 RES1    0.0000
     21 C12       12.6459    0.1075    9.0558 C.ar      1 RES1    0.0000
     22 H7        12.1609   -0.6625    8.8625 H         1 RES1    0.0000
     23 N3         4.4111    1.4670    4.7624 N.1       1 RES1    0.0000
     24 N4         6.3483   -1.0800    6.3572 N.3       1 RES1    0.0000
     25 N5         8.6590   -1.1099    7.8021 N.2       1 RES1    0.0000
     26 H8         8.6742    3.1929    7.4990 H         1 RES1    0.0000
     27 H9         5.4532   -1.1218    6.0942 H         1 RES1    0.0000
     28 H10        6.7631   -1.8719    6.6329 H         1 RES1    0.0000
     29 H11        9.4315   -0.9957    8.3122 H         1 RES1    0.0000
@<TRIPOS>BOND
     1    1    2 1
     2    2    3 2
     3    3    4 1
     4    4    5 2
     5    5    6 1
     6    6    1 1
     7    7    1 1
     8    8    7 1
     9    9    8 1
    10   10    8 1
    11   11    8 1
    12   12   11 ar
    13   13   12 1
    14   14   12 ar
    15   15   14 1
    16   16   14 ar
    17   17   16 1
    18   18   16 ar
    19   19   18 1
    20   20    4 1
    21   21   11 ar
    22   22   21 1
    23   23   20 3
    24   24    5 1
    25   25    6 2
    26   26    2 1
    27   27   24 1
    28   28   24 1
    29   29   25 1
    30   18   21 ar
@<TRIPOS>SUBSTRUCTURE
     1 RES1 1

@<TRIPOS>CRYSIN
   8.3838    6.6380   10.5800  90.0000  93.3500  90.0000   4 1

