# MOL2 file generated by ConQuest
# Please check atom types

@<TRIPOS>MOLECULE
GPHXAM
    26    26     1
SMALL
NO_CHARGES
****
Generated from CSD

@<TRIPOS>ATOM
      1 O1         2.0138    3.6219   -1.6090 O.3       1 RES1    0.0000
      2 O2         4.6403    3.6816    1.7006 O.3       1 RES1    0.0000
      3 O3         6.3653    1.4293    1.9650 O.3       1 RES1    0.0000
      4 O4         5.1525   -1.0449    1.1353 O.3       1 RES1    0.0000
      5 O5         3.5148    1.4085   -0.9698 O.3       1 RES1    0.0000
      6 O6         2.2370   -0.8534   -1.8817 O.3       1 RES1    0.0000
      7 N1         3.3105    3.7496   -0.9271 N.3       1 RES1    0.0000
      8 C1         3.4339    2.5631   -0.1260 C.3       1 RES1    0.0000
      9 C2         4.7575    2.6935    0.6673 C.3       1 RES1    0.0000
     10 C3         5.0571    1.3808    1.3976 C.3       1 RES1    0.0000
     11 C4         5.0169    0.2068    0.4451 C.3       1 RES1    0.0000
     12 C5         3.6690    0.1832   -0.2436 C.3       1 RES1    0.0000
     13 C6         3.5182   -0.8923   -1.2904 C.3       1 RES1    0.0000
     14 H1         2.6406    2.4979    0.5726 H         1 RES1    0.0000
     15 H2         5.6345    2.9142    0.0000 H         1 RES1    0.0000
     16 H3         4.3996    1.2489    2.0822 H         1 RES1    0.0000
     17 H4         5.8243    0.2775   -0.2082 H         1 RES1    0.0000
     18 H5         3.0825    0.1388    0.5726 H         1 RES1    0.0000
     19 H6         4.2671   -0.8326   -2.0301 H         1 RES1    0.0000
     20 H7         3.6928   -1.8040   -0.8849 H         1 RES1    0.0000
     21 H8         3.9548    3.4693   -1.7178 H         1 RES1    0.0000
     22 H9         1.4941    4.3019   -1.4575 H         1 RES1    0.0000
     23 H10        4.3241    4.4406    1.3013 H         1 RES1    0.0000
     24 H11        6.3894    2.0816    2.5506 H         1 RES1    0.0000
     25 H12        5.8468   -0.9714    1.5096 H         1 RES1    0.0000
     26 H13        2.1367   -0.1388   -2.2383 H         1 RES1    0.0000
@<TRIPOS>BOND
     1    1    7 1
     2    2    9 1
     3    3   10 1
     4    4   11 1
     5    5    8 1
     6    6   13 1
     7    7    8 1
     8    8    9 1
     9    9   10 1
    10   10   11 1
    11   11   12 1
    12   12    5 1
    13   13   12 1
    14   14    8 1
    15   15    9 1
    16   16   10 1
    17   17   11 1
    18   18   12 1
    19   19   13 1
    20   20   13 1
    21   21    7 1
    22   22    1 1
    23   23    2 1
    24   24    3 1
    25   25    4 1
    26   26    6 1
@<TRIPOS>SUBSTRUCTURE
     1 RES1 1

@<TRIPOS>CRYSIN
   5.5240   13.8770    5.2400  90.0000  96.5900  90.0000   4 1

