# MOL2 file generated by ConQuest
# Please check atom types

@<TRIPOS>MOLECULE
GUBZOS
    49    53     1
SMALL
NO_CHARGES
****
Generated from CSD

@<TRIPOS>ATOM
      1 O1        -0.7500    6.2179    5.9745 O.3       1 RES1    0.0000
      2 O2         0.0205    5.2929    7.8582 O.2       1 RES1    0.0000
      3 O3         1.7053    1.8144    3.0907 O.2       1 RES1    0.0000
      4 O4         3.3453    1.4442    4.4008 O.2       1 RES1    0.0000
      5 O5         0.6810    8.4841    4.0614 O.2       1 RES1    0.0000
      6 O6         0.9699    8.9546    6.1333 O.2       1 RES1    0.0000
      7 N1         2.2044    4.2652    6.5700 N.2       1 RES1    0.0000
      8 N2         2.2206    1.8434    4.1834 N.pl3     1 RES1    0.0000
      9 N3         1.1815    8.2585    5.1512 N.pl3     1 RES1    0.0000
     10 C1         1.0847    4.7742    5.7401 C.3       1 RES1    0.0000
     11 C2         0.4534    3.5267    5.0321 C.3       1 RES1    0.0000
     12 C3         1.4445    2.3987    5.3545 C.3       1 RES1    0.0000
     13 C4         2.3929    3.0427    6.3233 C.2       1 RES1    0.0000
     14 C5        -0.8804    2.9405    5.6333 C.3       1 RES1    0.0000
     15 C6        -1.2502    1.7874    4.7193 C.2       1 RES1    0.0000
     16 C7        -0.4038    0.8021    4.9357 C.2       1 RES1    0.0000
     17 C8         0.5689    1.2649    6.0028 C.3       1 RES1    0.0000
     18 C9        -0.3526    2.1519    6.8393 C.3       1 RES1    0.0000
     19 C10        1.6151    5.7904    4.7013 C.3       1 RES1    0.0000
     20 C11        2.8691    5.3334    3.8724 C.3       1 RES1    0.0000
     21 C12        2.9006    6.2551    2.6711 C.2       1 RES1    0.0000
     22 C13        3.2394    7.4563    3.0907 C.2       1 RES1    0.0000
     23 C14        3.4915    7.3638    4.5822 C.3       1 RES1    0.0000
     24 C15        2.1319    7.1208    5.3100 C.3       1 RES1    0.0000
     25 C16        4.0302    5.9389    4.6843 C.3       1 RES1    0.0000
     26 C17        0.0770    5.4452    6.6701 C.2       1 RES1    0.0000
     27 C18       -1.7994    6.9030    6.7212 C.3       1 RES1    0.0000
     28 C19       -2.5791    7.6935    5.7817 C.3       1 RES1    0.0000
     29 H1         0.3450    3.7214    4.0548 H         1 RES1    0.0000
     30 H2         3.0972    2.4874    6.7202 H         1 RES1    0.0000
     31 H3        -1.5945    3.6250    5.7845 H         1 RES1    0.0000
     32 H4        -1.9544    1.8896    4.0454 H         1 RES1    0.0000
     33 H5        -0.3070   -0.0578    4.4896 H         1 RES1    0.0000
     34 H6         1.0830    0.5592    6.4178 H         1 RES1    0.0000
     35 H7        -1.0314    1.6583    7.2779 H         1 RES1    0.0000
     36 H8         0.1121    2.6802    7.5047 H         1 RES1    0.0000
     37 H9         0.8680    5.9774    4.1210 H         1 RES1    0.0000
     38 H10        2.8752    4.4349    3.6484 H         1 RES1    0.0000
     39 H11        2.6477    6.0738    1.7958 H         1 RES1    0.0000
     40 H12        3.2712    8.2913    2.6087 H         1 RES1    0.0000
     41 H13        4.0292    8.0792    5.0378 H         1 RES1    0.0000
     42 H14        2.2719    7.0572    6.2382 H         1 RES1    0.0000
     43 H15        4.0726    5.5532    5.5577 H         1 RES1    0.0000
     44 H16        4.9119    5.8039    4.1872 H         1 RES1    0.0000
     45 H17       -2.3668    6.2667    7.1494 H         1 RES1    0.0000
     46 H18       -1.4165    7.4698    7.3828 H         1 RES1    0.0000
     47 H19       -2.9512    7.1266    5.1097 H         1 RES1    0.0000
     48 H20       -3.2736    8.1544    6.2259 H         1 RES1    0.0000
     49 H21       -2.0059    8.3337    5.3497 H         1 RES1    0.0000
@<TRIPOS>BOND
     1    1   26 1
     2    2   26 2
     3    3    8 2
     4    4    8 2
     5    5    9 2
     6    6    9 2
     7    7   10 1
     8    8   12 1
     9    9   24 1
    10   10   11 1
    11   11   12 1
    12   12   13 1
    13   13    7 2
    14   14   11 1
    15   15   14 1
    16   16   15 2
    17   17   12 1
    18   18   14 1
    19   19   10 1
    20   20   19 1
    21   21   20 1
    22   22   21 2
    23   23   22 1
    24   24   19 1
    25   25   20 1
    26   26   10 1
    27   27    1 1
    28   28   27 1
    29   29   11 1
    30   30   13 1
    31   31   14 1
    32   32   15 1
    33   33   16 1
    34   34   17 1
    35   35   18 1
    36   36   18 1
    37   37   19 1
    38   38   20 1
    39   39   21 1
    40   40   22 1
    41   41   23 1
    42   42   24 1
    43   43   25 1
    44   44   25 1
    45   45   27 1
    46   46   27 1
    47   47   28 1
    48   48   28 1
    49   49   28 1
    50   16   17 1
    51   17   18 1
    52   23   24 1
    53   23   25 1
@<TRIPOS>SUBSTRUCTURE
     1 RES1 1

@<TRIPOS>CRYSIN
  10.0600   19.2820   10.3970  90.0000 114.6200  90.0000 231 1

