# MOL2 file generated by ConQuest
# Please check atom types

@<TRIPOS>MOLECULE
GUCMUN
    49    52     1
SMALL
NO_CHARGES
****
Generated from CSD

@<TRIPOS>ATOM
      1 N1         0.1143   11.1146    1.3872 N.am      1 RES1    0.0000
      2 C1        -0.5920    9.9312    1.5517 C.2       1 RES1    0.0000
      3 N2        -0.6861    9.1112    0.4436 N.am      1 RES1    0.0000
      4 C2        -0.0751    9.3529   -0.7958 C.2       1 RES1    0.0000
      5 C3         0.6777   10.5801   -0.8712 C.2       1 RES1    0.0000
      6 C4         1.3297   11.0074   -2.1708 C.3       1 RES1    0.0000
      7 O1         2.4013   11.9558   -1.9183 O.3       1 RES1    0.0000
      8 C5         2.1572   12.9551   -1.0158 C.2       1 RES1    0.0000
      9 C6         0.6986   11.4540    0.1788 C.2       1 RES1    0.0000
     10 C7         1.3348   12.7429    0.0251 C.2       1 RES1    0.0000
     11 H1         1.1725   13.4348    0.6549 H         1 RES1    0.0000
     12 C8         0.1883   11.9939    2.5649 C.3       1 RES1    0.0000
     13 H2         1.0369   12.4842    2.5543 H         1 RES1    0.0000
     14 H3         0.1331   11.4535    3.3811 H         1 RES1    0.0000
     15 H4        -0.5568   12.6304    2.5445 H         1 RES1    0.0000
     16 C9        -1.5357    7.9127    0.5863 C.3       1 RES1    0.0000
     17 H5        -2.4251    8.1779    0.9005 H         1 RES1    0.0000
     18 H6        -1.1297    7.3004    1.2346 H         1 RES1    0.0000
     19 H7        -1.6152    7.4632   -0.2816 H         1 RES1    0.0000
     20 O2        -1.1058    9.6316    2.6165 O.2       1 RES1    0.0000
     21 O3        -0.2417    8.5627   -1.7212 O.2       1 RES1    0.0000
     22 C10        2.9415   14.1705   -1.2884 C.ar      1 RES1    0.0000
     23 C11        3.7153   14.2588   -2.4488 C.ar      1 RES1    0.0000
     24 H8         3.7428   13.5245   -3.0504 H         1 RES1    0.0000
     25 C12        4.4459   15.4049   -2.7349 C.ar      1 RES1    0.0000
     26 H9         4.9729   15.4479   -3.5236 H         1 RES1    0.0000
     27 C13        4.4057   16.4867   -1.8674 C.ar      1 RES1    0.0000
     28 H10        4.8991   17.2747   -2.0631 H         1 RES1    0.0000
     29 C14        3.6424   16.4135   -0.7163 C.ar      1 RES1    0.0000
     30 H11        3.6123   17.1574   -0.1261 H         1 RES1    0.0000
     31 C15        2.9181   15.2651   -0.4125 C.ar      1 RES1    0.0000
     32 H12        2.4085   15.2230    0.3881 H         1 RES1    0.0000
     33 C16        2.0885    9.8816   -2.8996 C.3       1 RES1    0.0000
     34 H13        1.4666    9.1382   -3.1012 H         1 RES1    0.0000
     35 H14        2.4479   10.2241   -3.7561 H         1 RES1    0.0000
     36 N3         3.2105    9.3809   -2.0490 N.pl3     1 RES1    0.0000
     37 O4         2.9342    8.7120   -1.0579 O.2       1 RES1    0.0000
     38 O5         4.3655    9.6693   -2.3735 O.2       1 RES1    0.0000
     39 C17        0.3398   11.6491   -3.1622 C.ar      1 RES1    0.0000
     40 C18       -1.0336   11.4373   -3.0615 C.ar      1 RES1    0.0000
     41 H15       -1.3722   10.8740   -2.3758 H         1 RES1    0.0000
     42 C19       -1.9142   12.0390   -3.9527 C.ar      1 RES1    0.0000
     43 H16       -2.8471   11.8743   -3.8789 H         1 RES1    0.0000
     44 C20       -1.4386   12.8778   -4.9471 C.ar      1 RES1    0.0000
     45 H17       -2.0426   13.3134   -5.5359 H         1 RES1    0.0000
     46 C21       -0.0659   13.0758   -5.0752 C.ar      1 RES1    0.0000
     47 H18        0.2698   13.6349   -5.7668 H         1 RES1    0.0000
     48 C22        0.8162   12.4590   -4.1949 C.ar      1 RES1    0.0000
     49 H19        1.7516   12.5904   -4.2964 H         1 RES1    0.0000
@<TRIPOS>BOND
     1    1    2 1
     2    2    3 1
     3    3    4 1
     4    4    5 1
     5    5    6 1
     6    6    7 1
     7    7    8 1
     8    8   10 2
     9    9    1 1
    10   10    9 1
    11   11   10 1
    12   12    1 1
    13   13   12 1
    14   14   12 1
    15   15   12 1
    16   16    3 1
    17   17   16 1
    18   18   16 1
    19   19   16 1
    20   20    2 2
    21   21    4 2
    22   22    8 1
    23   23   22 ar
    24   24   23 1
    25   25   23 ar
    26   26   25 1
    27   27   25 ar
    28   28   27 1
    29   29   27 ar
    30   30   29 1
    31   31   22 ar
    32   32   31 1
    33   33    6 1
    34   34   33 1
    35   35   33 1
    36   36   33 1
    37   37   36 2
    38   38   36 2
    39   39    6 1
    40   40   39 ar
    41   41   40 1
    42   42   40 ar
    43   43   42 1
    44   44   42 ar
    45   45   44 1
    46   46   44 ar
    47   47   46 1
    48   48   39 ar
    49   49   48 1
    50    5    9 2
    51   29   31 ar
    52   46   48 ar
@<TRIPOS>SUBSTRUCTURE
     1 RES1 1

@<TRIPOS>CRYSIN
   8.2649   13.7977   16.4066  90.0000  93.6360  90.0000 231 1

