# MOL2 file generated by ConQuest
# Please check atom types

@<TRIPOS>MOLECULE
GUCRIH
    49    42     2
SMALL
NO_CHARGES
****
Generated from CSD

@<TRIPOS>ATOM
      1 C1         6.4749    7.6401    3.4112 C.ar      1 RES1    0.0000
      2 C2         5.0907    8.0176    3.4301 C.ar      1 RES1    0.0000
      3 C3         4.7897    9.3923    3.4910 C.ar      1 RES1    0.0000
      4 H1         3.8812    9.6671    3.5091 H         1 RES1    0.0000
      5 C4         5.7966   10.3615    3.5250 C.ar      1 RES1    0.0000
      6 C5         7.1696    9.9577    3.4913 C.ar      1 RES1    0.0000
      7 H2         7.8576   10.6110    3.5070 H         1 RES1    0.0000
      8 C6         7.4835    8.6392    3.4370 C.ar      1 RES1    0.0000
      9 H3         8.3968    8.3792    3.4158 H         1 RES1    0.0000
     10 C7         2.6800    7.4233    3.3611 C.3       1 RES1    0.0000
     11 H4         2.4834    8.0129    2.5906 H         1 RES1    0.0000
     12 H5         2.4295    7.9048    4.1901 H         1 RES1    0.0000
     13 C8         1.8685    6.1402    3.2468 C.3       1 RES1    0.0000
     14 H6         2.0875    5.5476    4.0098 H         1 RES1    0.0000
     15 H7         2.1230    5.6680    2.4144 H         1 RES1    0.0000
     16 C9         0.3623    6.4037    3.2333 C.3       1 RES1    0.0000
     17 H8         0.0993    6.8233    4.0917 H         1 RES1    0.0000
     18 H9         0.1504    7.0445    2.5077 H         1 RES1    0.0000
     19 C10       -0.4523    5.1354    3.0301 C.3       1 RES1    0.0000
     20 H10       -1.4063    5.3608    3.0011 H         1 RES1    0.0000
     21 H11       -0.2867    4.5177    3.7713 H         1 RES1    0.0000
     22 H12       -0.1916    4.7119    2.1853 H         1 RES1    0.0000
     23 C11        4.2017   12.2440    3.6532 C.3       1 RES1    0.0000
     24 H13        3.7464   11.9014    4.4628 H         1 RES1    0.0000
     25 H14        3.6783   11.9555    2.8632 H         1 RES1    0.0000
     26 C12        4.2458   13.7618    3.7040 C.3       1 RES1    0.0000
     27 H15        4.6802   14.0988    2.9047 H         1 RES1    0.0000
     28 H16        4.7682   14.0447    4.4711 H         1 RES1    0.0000
     29 C13        2.8552   14.3790    4.0730 C.3       1 RES1    0.0000
     30 H17        2.1982   14.1013    3.3878 H         1 RES1    0.0000
     31 H18        2.5657   13.9956    4.9386 H         1 RES1    0.0000
     32 C14        2.8268   15.8292    4.1777 C.3       1 RES1    0.0000
     33 H19        1.8959   16.1340    4.2378 H         1 RES1    0.0000
     34 H20        3.2497   16.2225    3.3857 H         1 RES1    0.0000
     35 H21        3.3150   16.1094    4.9801 H         1 RES1    0.0000
     36 N1         4.1005    7.1013    3.3853 N.3       1 RES1    0.0000
     37 H22        4.3467    6.2899    3.2758 H         1 RES1    0.0000
     38 N2         5.5328   11.6861    3.5776 N.3       1 RES1    0.0000
     39 H23        6.1830   12.2185    3.6075 H         1 RES1    0.0000
     40 N3         6.9052    6.3093    3.3743 N.pl3     1 RES1    0.0000
     41 O1         6.0614    5.3601    3.3732 O.2       1 RES1    0.0000
     42 O2         8.1290    6.0557    3.3580 O.2       1 RES1    0.0000
     43 C15        2.8325   14.3200    3.4323 Du        2 SUP2    0.0000
     44 H24        2.4834   13.9268    2.5937 Du        2 SUP2    0.0000
     45 H25        2.2308   14.0497    4.1694 Du        2 SUP2    0.0000
     46 C16        2.8268   15.8145    3.3142 Du        2 SUP2    0.0000
     47 H26        1.9002   16.1365    3.3048 Du        2 SUP2    0.0000
     48 H27        3.2724   16.0799    2.4838 Du        2 SUP2    0.0000
     49 H28        3.2994   16.2053    4.0792 Du        2 SUP2    0.0000
@<TRIPOS>BOND
     1    1    2 ar
     2    2    3 ar
     3    3    4 1
     4    5    3 ar
     5    6    5 ar
     6    7    6 1
     7    8    1 ar
     8    9    8 1
     9   10   11 1
    10   12   10 1
    11   13   10 1
    12   14   13 1
    13   15   13 1
    14   16   13 1
    15   17   16 1
    16   18   16 1
    17   19   16 1
    18   20   19 1
    19   21   19 1
    20   22   19 1
    21   23   24 1
    22   25   23 1
    23   26   23 1
    24   27   26 1
    25   28   26 1
    26   29   26 1
    27   30   29 1
    28   31   29 1
    29   32   29 1
    30   33   32 1
    31   34   32 1
    32   35   32 1
    33   36    2 1
    34   37   36 1
    35   38    5 1
    36   39   38 1
    37   40    1 1
    38   41   40 2
    39   42   40 2
    40    6    8 ar
    41   10   36 1
    42   23   38 1
@<TRIPOS>SUBSTRUCTURE
     1 RES1 1
     2 SUP2 43

@<TRIPOS>CRYSIN
  28.3820   28.3820   10.3665  90.0000  90.0000 120.0000 233 1

