# MOL2 file generated by ConQuest
# Please check atom types

@<TRIPOS>MOLECULE
GUFPAY
    41    42     1
SMALL
NO_CHARGES
****
Generated from CSD

@<TRIPOS>ATOM
      1 O1         4.5732    9.1462    3.3974 O.2       1 RES1    0.0000
      2 N1         4.1594    8.2487    2.5779 N.3       1 RES1    0.0000
      3 N2         2.7615    5.2553   -0.0541 N.2       1 RES1    0.0000
      4 N3         1.8212    1.0431   -2.1222 N.ar      1 RES1    0.0000
      5 C1         5.1383    7.1759    2.2394 C.3       1 RES1    0.0000
      6 C2         4.6187    6.3465    1.0667 C.3       1 RES1    0.0000
      7 C3         3.1613    5.9450    1.1801 C.3       1 RES1    0.0000
      8 C4         2.3196    7.1947    1.3208 C.3       1 RES1    0.0000
      9 C5         2.6786    8.0823    2.5067 C.3       1 RES1    0.0000
     10 C6         2.6667    4.0178   -0.0325 C.2       1 RES1    0.0000
     11 C7         2.2845    3.2232   -1.2124 C.ar      1 RES1    0.0000
     12 C8         2.0015    3.7983   -2.4343 C.ar      1 RES1    0.0000
     13 C9         1.6345    2.9784   -3.4798 C.ar      1 RES1    0.0000
     14 C10        1.5627    1.6295   -3.2759 C.ar      1 RES1    0.0000
     15 C11        2.1823    1.8516   -1.1225 C.ar      1 RES1    0.0000
     16 C12        5.3710    6.3105    3.4829 C.3       1 RES1    0.0000
     17 C13        6.4382    7.8530    1.8226 C.3       1 RES1    0.0000
     18 C14        2.1715    7.4923    3.8262 C.3       1 RES1    0.0000
     19 C15        2.0699    9.4663    2.2876 C.3       1 RES1    0.0000
     20 H1         3.0177    5.3246    1.9381 H         1 RES1    0.0000
     21 H2         2.8357    3.5270    0.7698 H         1 RES1    0.0000
     22 H3         2.0580    4.7355   -2.5373 H         1 RES1    0.0000
     23 H4         1.4407    3.3286   -4.3068 H         1 RES1    0.0000
     24 H5         1.3102    1.0438   -3.9635 H         1 RES1    0.0000
     25 H6         2.3697    1.4498   -0.2705 H         1 RES1    0.0000
     26 H7         4.5436    5.7874    3.7243 H         1 RES1    0.0000
     27 H8         6.0630    5.7178    3.3289 H         1 RES1    0.0000
     28 H9         5.6127    6.8614    4.2236 H         1 RES1    0.0000
     29 H10        6.3317    8.3622    1.0195 H         1 RES1    0.0000
     30 H11        7.1265    7.1676    1.5917 H         1 RES1    0.0000
     31 H12        6.8293    8.3970    2.5695 H         1 RES1    0.0000
     32 H13        4.7320    6.8567    0.2330 H         1 RES1    0.0000
     33 H14        5.1923    5.5508    0.9706 H         1 RES1    0.0000
     34 H15        1.3652    6.9762    1.4054 H         1 RES1    0.0000
     35 H16        2.4304    7.6895    0.4973 H         1 RES1    0.0000
     36 H17        2.4766    6.5529    3.9365 H         1 RES1    0.0000
     37 H18        1.1892    7.4575    3.8283 H         1 RES1    0.0000
     38 H19        2.5251    7.9968    4.5773 H         1 RES1    0.0000
     39 H20        1.0861    9.3468    2.1222 H         1 RES1    0.0000
     40 H21        2.2014   10.0323    3.0169 H         1 RES1    0.0000
     41 H22        2.4307    9.8931    1.4876 H         1 RES1    0.0000
@<TRIPOS>BOND
     1    1    2 1
     2    2    5 1
     3    3    7 1
     4    4   14 ar
     5    5    6 1
     6    6    7 1
     7    7    8 1
     8    8    9 1
     9    9    2 1
    10   10    3 2
    11   11   10 1
    12   12   11 ar
    13   13   12 ar
    14   14   13 ar
    15   15    4 ar
    16   16    5 1
    17   17    5 1
    18   18    9 1
    19   19    9 1
    20   20    7 1
    21   21   10 1
    22   22   12 1
    23   23   13 1
    24   24   14 1
    25   25   15 1
    26   26   16 1
    27   27   16 1
    28   28   16 1
    29   29   17 1
    30   30   17 1
    31   31   17 1
    32   32    6 1
    33   33    6 1
    34   34    8 1
    35   35    8 1
    36   36   18 1
    37   37   18 1
    38   38   18 1
    39   39   19 1
    40   40   19 1
    41   41   19 1
    42   11   15 ar
@<TRIPOS>SUBSTRUCTURE
     1 RES1 1

@<TRIPOS>CRYSIN
  12.4250   11.5980   11.0380  90.0000 109.5300  90.0000  14 1

