# MOL2 file generated by ConQuest
# Please check atom types

@<TRIPOS>MOLECULE
GUFPOM
    48    50     1
SMALL
NO_CHARGES
****
Generated from CSD

@<TRIPOS>ATOM
      1 O1        -1.9630   -1.8401    1.5287 O.2       1 RES1    0.0000
      2 N1        -1.1438   -0.9417    1.1088 N.3       1 RES1    0.0000
      3 N2         1.4278    2.2736   -0.0997 N.2       1 RES1    0.0000
      4 C1        -0.2842   -0.3014    2.1451 C.3       1 RES1    0.0000
      5 C2         0.8270    0.5122    1.4804 C.3       1 RES1    0.0000
      6 C3         0.3300    1.3809    0.3338 C.3       1 RES1    0.0000
      7 C4        -0.2555    0.4603   -0.7206 C.3       1 RES1    0.0000
      8 C5        -1.4687   -0.3430   -0.2236 C.3       1 RES1    0.0000
      9 C6         1.9547    2.1278   -1.2372 C.2       1 RES1    0.0000
     10 C7         2.9939    3.0154   -1.7674 C.ar      1 RES1    0.0000
     11 C8         3.4488    2.8103   -3.0348 C.ar      1 RES1    0.0000
     12 C9         4.3867    3.6830   -3.6451 C.ar      1 RES1    0.0000
     13 C10        4.8570    4.7888   -2.9124 C.ar      1 RES1    0.0000
     14 C11        4.3947    4.9666   -1.5786 C.ar      1 RES1    0.0000
     15 C12        3.4978    4.1120   -1.0333 C.ar      1 RES1    0.0000
     16 C13        4.8442    3.4854   -4.9669 C.ar      1 RES1    0.0000
     17 C14        5.7054    4.3735   -5.5439 C.ar      1 RES1    0.0000
     18 C15        6.1623    5.4730   -4.8233 C.ar      1 RES1    0.0000
     19 C16        5.7558    5.6878   -3.5454 C.ar      1 RES1    0.0000
     20 C17        0.3416   -1.4333    2.9638 C.3       1 RES1    0.0000
     21 C18       -1.1558    0.5765    3.0499 C.3       1 RES1    0.0000
     22 C19       -2.7256    0.5315   -0.0801 C.3       1 RES1    0.0000
     23 C20       -1.7473   -1.4846   -1.1919 C.3       1 RES1    0.0000
     24 H1        -0.3776    2.0281    0.7100 H         1 RES1    0.0000
     25 H2         1.7292    1.4185   -1.8127 H         1 RES1    0.0000
     26 H3         3.1230    2.1079   -3.5499 H         1 RES1    0.0000
     27 H4         4.6514    5.7254   -1.1481 H         1 RES1    0.0000
     28 H5         3.2254    4.2670   -0.1511 H         1 RES1    0.0000
     29 H6         4.5309    2.7402   -5.3626 H         1 RES1    0.0000
     30 H7         6.0191    4.1929   -6.3898 H         1 RES1    0.0000
     31 H8         6.7863    6.0501   -5.1663 H         1 RES1    0.0000
     32 H9         6.0151    6.4204   -3.0967 H         1 RES1    0.0000
     33 H10        0.7531   -2.0606    2.3913 H         1 RES1    0.0000
     34 H11       -0.3555   -1.8783    3.4608 H         1 RES1    0.0000
     35 H12        0.9721   -1.0813    3.5756 H         1 RES1    0.0000
     36 H13       -0.6467    0.8779    3.8022 H         1 RES1    0.0000
     37 H14       -1.4782    1.3279    2.5726 H         1 RES1    0.0000
     38 H15       -1.9019    0.0701    3.3747 H         1 RES1    0.0000
     39 H16        1.2151    1.1052    2.1451 H         1 RES1    0.0000
     40 H17        1.5284   -0.0627    1.1178 H         1 RES1    0.0000
     41 H18        0.4820   -0.1538   -1.0423 H         1 RES1    0.0000
     42 H19       -0.5362    0.8887   -1.4502 H         1 RES1    0.0000
     43 H20       -2.9222    0.9366   -0.9517 H         1 RES1    0.0000
     44 H21       -2.5607    1.2351    0.5257 H         1 RES1    0.0000
     45 H22       -3.4584    0.0194    0.1783 H         1 RES1    0.0000
     46 H23       -0.9941   -2.0623   -1.2357 H         1 RES1    0.0000
     47 H24       -2.5064   -1.9728   -0.9048 H         1 RES1    0.0000
     48 H25       -1.9160   -1.1343   -2.0680 H         1 RES1    0.0000
@<TRIPOS>BOND
     1    1    2 1
     2    2    4 1
     3    3    6 1
     4    4    5 1
     5    5    6 1
     6    6    7 1
     7    7    8 1
     8    8    2 1
     9    9    3 2
    10   10    9 1
    11   11   10 ar
    12   12   11 ar
    13   13   12 ar
    14   14   13 ar
    15   15   10 ar
    16   16   12 ar
    17   17   16 ar
    18   18   17 ar
    19   19   13 ar
    20   20    4 1
    21   21    4 1
    22   22    8 1
    23   23    8 1
    24   24    6 1
    25   25    9 1
    26   26   11 1
    27   27   14 1
    28   28   15 1
    29   29   16 1
    30   30   17 1
    31   31   18 1
    32   32   19 1
    33   33   20 1
    34   34   20 1
    35   35   20 1
    36   36   21 1
    37   37   21 1
    38   38   21 1
    39   39    5 1
    40   40    5 1
    41   41    7 1
    42   42    7 1
    43   43   22 1
    44   44   22 1
    45   45   22 1
    46   46   23 1
    47   47   23 1
    48   48   23 1
    49   14   15 ar
    50   18   19 ar
@<TRIPOS>SUBSTRUCTURE
     1 RES1 1

@<TRIPOS>CRYSIN
  20.0837    5.6969   15.1060  90.0000  90.0000  90.0000  33 1

