# MOL2 file generated by ConQuest
# Please check atom types

@<TRIPOS>MOLECULE
GUFPIG
    45    46     1
SMALL
NO_CHARGES
****
Generated from CSD

@<TRIPOS>ATOM
      1 O1         5.7333    9.0075    1.5642 O.2       1 RES1    0.0000
      2 N1         4.9583    8.1752    2.1692 N.3       1 RES1    0.0000
      3 N2         2.4028    5.3966    4.0802 N.2       1 RES1    0.0000
      4 C1         5.6348    7.0946    2.9524 C.3       1 RES1    0.0000
      5 C2         4.6277    6.3566    3.8293 C.3       1 RES1    0.0000
      6 C3         3.3315    5.9782    3.1104 C.3       1 RES1    0.0000
      7 C4         2.6998    7.2529    2.5596 C.3       1 RES1    0.0000
      8 C5         3.5835    8.0321    1.5903 C.3       1 RES1    0.0000
      9 C6         2.3211    4.1337    4.1339 C.2       1 RES1    0.0000
     10 C7         1.4197    3.4423    5.0660 C.ar      1 RES1    0.0000
     11 C8         0.5740    4.1365    5.9381 C.ar      1 RES1    0.0000
     12 C9        -0.2808    3.4587    6.7854 C.ar      1 RES1    0.0000
     13 C10       -0.3268    2.0588    6.8026 C.ar      1 RES1    0.0000
     14 C11        0.5152    1.3703    5.9344 C.ar      1 RES1    0.0000
     15 C12        1.3763    2.0486    5.0729 C.ar      1 RES1    0.0000
     16 C13       -1.2452    1.3219    7.7378 C.3       1 RES1    0.0000
     17 C14        6.3447    6.1496    1.9698 C.3       1 RES1    0.0000
     18 C15        6.6750    7.7557    3.8584 C.3       1 RES1    0.0000
     19 C16        3.6880    7.3452    0.2151 C.3       1 RES1    0.0000
     20 C17        3.0064    9.4391    1.4028 C.3       1 RES1    0.0000
     21 H1         3.5084    5.3222    2.3654 H         1 RES1    0.0000
     22 H2         2.8646    3.5175    3.5317 H         1 RES1    0.0000
     23 H3         0.6033    5.1038    5.9081 H         1 RES1    0.0000
     24 H4        -0.9176    3.9773    7.3714 H         1 RES1    0.0000
     25 H5         0.4746    0.3908    5.9411 H         1 RES1    0.0000
     26 H6         1.9983    1.5288    4.4558 H         1 RES1    0.0000
     27 H7         5.7027    5.6096    1.4083 H         1 RES1    0.0000
     28 H8         6.8695    5.5176    2.4865 H         1 RES1    0.0000
     29 H9         6.9512    6.6671    1.3753 H         1 RES1    0.0000
     30 H10        6.2648    8.4143    4.4558 H         1 RES1    0.0000
     31 H11        7.0918    7.0579    4.4008 H         1 RES1    0.0000
     32 H12        7.3833    8.2764    3.3226 H         1 RES1    0.0000
     33 H13        4.3810    6.9085    4.6099 H         1 RES1    0.0000
     34 H14        5.0277    5.5521    4.1698 H         1 RES1    0.0000
     35 H15        1.8720    7.0441    2.0981 H         1 RES1    0.0000
     36 H16        2.5059    7.8511    3.3226 H         1 RES1    0.0000
     37 H17        3.8838    6.4142    0.3125 H         1 RES1    0.0000
     38 H18        2.8308    7.4143   -0.2420 H         1 RES1    0.0000
     39 H19        4.3975    7.8166   -0.3301 H         1 RES1    0.0000
     40 H20        2.1223    9.3339    1.0012 H         1 RES1    0.0000
     41 H21        3.5348    9.9777    0.7591 H         1 RES1    0.0000
     42 H22        2.9759    9.8742    2.2884 H         1 RES1    0.0000
     43 H23       -1.6072    1.8967    8.3726 H         1 RES1    0.0000
     44 H24       -1.9556    0.9196    7.3164 H         1 RES1    0.0000
     45 H25       -0.8133    0.6667    8.2956 H         1 RES1    0.0000
@<TRIPOS>BOND
     1    1    2 1
     2    2    4 1
     3    3    6 1
     4    4    5 1
     5    5    6 1
     6    6    7 1
     7    7    8 1
     8    8    2 1
     9    9    3 2
    10   10    9 1
    11   11   10 ar
    12   12   11 ar
    13   13   12 ar
    14   14   13 ar
    15   15   10 ar
    16   16   13 1
    17   17    4 1
    18   18    4 1
    19   19    8 1
    20   20    8 1
    21   21    6 1
    22   22    9 1
    23   23   11 1
    24   24   12 1
    25   25   14 1
    26   26   15 1
    27   27   17 1
    28   28   17 1
    29   29   17 1
    30   30   18 1
    31   31   18 1
    32   32   18 1
    33   33    5 1
    34   34    5 1
    35   35    7 1
    36   36    7 1
    37   37   19 1
    38   38   19 1
    39   39   19 1
    40   40   20 1
    41   41   20 1
    42   42   20 1
    43   43   16 1
    44   44   16 1
    45   45   16 1
    46   14   15 ar
@<TRIPOS>SUBSTRUCTURE
     1 RES1 1

@<TRIPOS>CRYSIN
  12.4422   11.4950   11.0940  90.0000  97.3810  90.0000  14 1

