# MOL2 file generated by ConQuest
# Please check atom types

@<TRIPOS>MOLECULE
GUFPIG01
    45    46     1
SMALL
NO_CHARGES
****
Generated from CSD

@<TRIPOS>ATOM
      1 O1         5.7539    9.0639    1.5967 O.2       1 RES1    0.0000
      2 N1         4.9875    8.2278    2.1999 N.3       1 RES1    0.0000
      3 N2         2.4581    5.4566    4.1488 N.2       1 RES1    0.0000
      4 C1         5.6785    7.1768    3.0062 C.3       1 RES1    0.0000
      5 C2         4.6658    6.4346    3.8827 C.3       1 RES1    0.0000
      6 C3         3.3903    6.0375    3.1734 C.3       1 RES1    0.0000
      7 C4         2.7491    7.2885    2.6037 C.3       1 RES1    0.0000
      8 C5         3.6259    8.0679    1.6207 C.3       1 RES1    0.0000
      9 C6         2.3654    4.2099    4.2052 C.2       1 RES1    0.0000
     10 C7         1.4564    3.5228    5.1399 C.ar      1 RES1    0.0000
     11 C8         0.6237    4.2229    5.9998 C.ar      1 RES1    0.0000
     12 C9        -0.2387    3.5511    6.8445 C.ar      1 RES1    0.0000
     13 C10       -0.2923    2.1661    6.8715 C.ar      1 RES1    0.0000
     14 C11        0.5392    1.4785    6.0185 C.ar      1 RES1    0.0000
     15 C12        1.3996    2.1370    5.1587 C.ar      1 RES1    0.0000
     16 C13       -1.2273    1.4345    7.8105 C.3       1 RES1    0.0000
     17 C14        6.3979    6.2206    2.0360 C.3       1 RES1    0.0000
     18 C15        6.6888    7.8662    3.9041 C.3       1 RES1    0.0000
     19 C16        3.7342    7.3641    0.2724 C.3       1 RES1    0.0000
     20 C17        3.0402    9.4700    1.4327 C.3       1 RES1    0.0000
     21 H1         3.5592    5.3891    2.4535 H         1 RES1    0.0000
     22 H2         2.8379    3.6461    3.5482 H         1 RES1    0.0000
     23 H3         0.6410    5.1607    5.9771 H         1 RES1    0.0000
     24 H4        -0.8035    4.0474    7.4322 H         1 RES1    0.0000
     25 H5         0.5188    0.5219    6.0554 H         1 RES1    0.0000
     26 H6         1.9625    1.6363    4.5668 H         1 RES1    0.0000
     27 H7         5.7038    5.6361    1.4327 H         1 RES1    0.0000
     28 H8         6.8935    5.6477    2.5072 H         1 RES1    0.0000
     29 H9         6.9553    6.7031    1.4327 H         1 RES1    0.0000
     30 H10        6.2311    8.5238    4.5108 H         1 RES1    0.0000
     31 H11        7.1499    7.2133    4.4548 H         1 RES1    0.0000
     32 H12        7.3479    8.3498    3.3691 H         1 RES1    0.0000
     33 H13        4.4035    7.0127    4.6630 H         1 RES1    0.0000
     34 H14        5.1270    5.6501    4.2410 H         1 RES1    0.0000
     35 H15        1.9266    7.0626    2.1345 H         1 RES1    0.0000
     36 H16        2.5297    7.8802    3.3960 H         1 RES1    0.0000
     37 H17        4.0208    6.4247    0.3582 H         1 RES1    0.0000
     38 H18        2.8854    7.4453   -0.2015 H         1 RES1    0.0000
     39 H19        4.4007    7.8257   -0.3134 H         1 RES1    0.0000
     40 H20        2.1363    9.3588    0.9962 H         1 RES1    0.0000
     41 H21        3.5645    9.9618    0.7611 H         1 RES1    0.0000
     42 H22        2.9905    9.9734    2.3170 H         1 RES1    0.0000
     43 H23       -1.2320    1.8787    8.6634 H         1 RES1    0.0000
     44 H24       -2.0248    1.3800    7.5105 H         1 RES1    0.0000
     45 H25       -0.7931    0.6958    8.2493 H         1 RES1    0.0000
@<TRIPOS>BOND
     1    1    2 1
     2    2    4 1
     3    3    6 1
     4    4    5 1
     5    5    6 1
     6    6    7 1
     7    7    8 1
     8    8    2 1
     9    9    3 2
    10   10    9 1
    11   11   10 ar
    12   12   11 ar
    13   13   12 ar
    14   14   13 ar
    15   15   10 ar
    16   16   13 1
    17   17    4 1
    18   18    4 1
    19   19    8 1
    20   20    8 1
    21   21    6 1
    22   22    9 1
    23   23   11 1
    24   24   12 1
    25   25   14 1
    26   26   15 1
    27   27   17 1
    28   28   17 1
    29   29   17 1
    30   30   18 1
    31   31   18 1
    32   32   18 1
    33   33    5 1
    34   34    5 1
    35   35    7 1
    36   36    7 1
    37   37   19 1
    38   38   19 1
    39   39   19 1
    40   40   20 1
    41   41   20 1
    42   42   20 1
    43   43   16 1
    44   44   16 1
    45   45   16 1
    46   14   15 ar
@<TRIPOS>SUBSTRUCTURE
     1 RES1 1

@<TRIPOS>CRYSIN
  12.4900   11.5970   11.2800  90.0000  97.1200  90.0000  14 1

