# MOL2 file generated by ConQuest
# Please check atom types

@<TRIPOS>MOLECULE
GUGWIP
    80    82     1
SMALL
NO_CHARGES
****
Generated from CSD

@<TRIPOS>ATOM
      1 C1         2.5536    4.2151   10.3300 C.ar      1 RES1    0.0000
      2 C2         3.4575    4.4532    9.3055 C.ar      1 RES1    0.0000
      3 C3         3.6213    3.5222    8.2720 C.ar      1 RES1    0.0000
      4 C4         2.8898    2.3391    8.2862 C.ar      1 RES1    0.0000
      5 C5         1.9996    2.0851    9.3184 C.ar      1 RES1    0.0000
      6 N1         3.7265    7.3488   18.8348 N.pl3     1 RES1    0.0000
      7 N2        -2.1232    1.9224   14.3398 N.am      1 RES1    0.0000
      8 O1        -2.8216    2.6231   11.9456 O.3       1 RES1    0.0000
      9 O2         1.7461   -0.2242    8.4777 O.3       1 RES1    0.0000
     10 O3         4.5194    3.8437    7.2980 O.3       1 RES1    0.0000
     11 O4         4.2345    5.6155    9.3016 O.3       1 RES1    0.0000
     12 O5         2.2584    5.1157   11.3247 O.3       1 RES1    0.0000
     13 O6         2.8173    2.9316   14.3709 O.3       1 RES1    0.0000
     14 O7         5.0117    3.2790   14.0385 O.2       1 RES1    0.0000
     15 O8         2.6587    7.5455   19.4026 O.2       1 RES1    0.0000
     16 O9         4.7250    7.9883   19.0689 O.2       1 RES1    0.0000
     17 O10       -1.1076    0.5045   15.8002 O.2       1 RES1    0.0000
     18 O11       -3.2712    1.1863   16.0343 O.3       1 RES1    0.0000
     19 C6         4.0106    3.4765   14.6749 C.2       1 RES1    0.0000
     20 C7         3.9181    4.3875   15.8429 C.ar      1 RES1    0.0000
     21 C8         2.6847    4.8488   16.3073 C.ar      1 RES1    0.0000
     22 C9         2.6169    5.7853   17.3162 C.ar      1 RES1    0.0000
     23 C10        3.7979    6.2806   17.8284 C.ar      1 RES1    0.0000
     24 C11        5.0461    5.8411   17.4093 C.ar      1 RES1    0.0000
     25 C12        5.0893    4.8755   16.4056 C.ar      1 RES1    0.0000
     26 C13        3.1595    0.7635   13.2843 C.3       1 RES1    0.0000
     27 C14        3.2937    5.7960   12.0296 C.3       1 RES1    0.0000
     28 C15        3.7021    6.6817    8.5126 C.3       1 RES1    0.0000
     29 C16        4.6995    2.9136    6.2231 C.3       1 RES1    0.0000
     30 C17        1.1919    0.7855    9.3029 C.3       1 RES1    0.0000
     31 C18       -2.0769    1.1354   15.4329 C.2       1 RES1    0.0000
     32 C19       -3.6249    0.2364   17.1170 C.3       1 RES1    0.0000
     33 C20       -2.7528    0.4519   18.3200 C.3       1 RES1    0.0000
     34 C21        2.6879    2.1969   13.1071 C.3       1 RES1    0.0000
     35 C22        1.2383    2.3329   12.7230 C.ar      1 RES1    0.0000
     36 C23        0.2707    2.0284   13.6918 C.ar      1 RES1    0.0000
     37 C24       -1.0810    2.1414   13.4098 C.ar      1 RES1    0.0000
     38 C25       -1.4689    2.5617   12.1435 C.ar      1 RES1    0.0000
     39 C26       -0.5196    2.8683   11.1837 C.ar      1 RES1    0.0000
     40 C27        0.8451    2.7396   11.4657 C.ar      1 RES1    0.0000
     41 C28        1.8176    3.0050   10.3649 C.ar      1 RES1    0.0000
     42 C29       -3.3284    3.5436   10.9819 C.3       1 RES1    0.0000
     43 C30       -5.0661    0.6297   17.3964 C.3       1 RES1    0.0000
     44 C31       -3.5447   -1.1835   16.5750 C.3       1 RES1    0.0000
     45 H1         1.9070    4.5330   15.9218 H         1 RES1    0.0000
     46 H2         1.7955    6.0906   17.6357 H         1 RES1    0.0000
     47 H3         5.8356    6.1752   17.7870 H         1 RES1    0.0000
     48 H4         5.9192    4.5540   16.1055 H         1 RES1    0.0000
     49 H5         3.1355    0.3200   12.4254 H         1 RES1    0.0000
     50 H6         4.0628    0.7410   13.6206 H         1 RES1    0.0000
     51 H7         2.5742    0.3056   13.8975 H         1 RES1    0.0000
     52 H8         2.9306    6.1473   12.8536 H         1 RES1    0.0000
     53 H9         4.0124    5.1812   12.2288 H         1 RES1    0.0000
     54 H10        3.6385    6.5129   11.5006 H         1 RES1    0.0000
     55 H11        4.3438    7.4011    8.4880 H         1 RES1    0.0000
     56 H12        2.8984    6.9956    8.9291 H         1 RES1    0.0000
     57 H13        3.5206    6.3780    7.6149 H         1 RES1    0.0000
     58 H14        5.3165    3.2970    5.5931 H         1 RES1    0.0000
     59 H15        5.0498    2.0805    6.5607 H         1 RES1    0.0000
     60 H16        3.8523    2.7683    5.7807 H         1 RES1    0.0000
     61 H17        1.1389    0.4524   10.2084 H         1 RES1    0.0000
     62 H18        0.3003    0.9745    8.9757 H         1 RES1    0.0000
     63 H19       -3.0790   -0.0491   19.0676 H         1 RES1    0.0000
     64 H20       -2.7533    1.3798   18.5696 H         1 RES1    0.0000
     65 H21       -1.8401    0.1688   18.1324 H         1 RES1    0.0000
     66 H22        3.2561    2.6466   12.4345 H         1 RES1    0.0000
     67 H23        0.5224    1.7581   14.5429 H         1 RES1    0.0000
     68 H24       -0.7888    3.1494   10.3351 H         1 RES1    0.0000
     69 H25        2.9946    1.7287    7.5864 H         1 RES1    0.0000
     70 H26       -4.2924    3.5383   11.0517 H         1 RES1    0.0000
     71 H27       -2.9906    4.4317   11.1798 H         1 RES1    0.0000
     72 H28       -3.0673    3.2763   10.0790 H         1 RES1    0.0000
     73 H29       -5.4562    0.0534   18.0574 H         1 RES1    0.0000
     74 H30       -5.1057    1.5404   17.7107 H         1 RES1    0.0000
     75 H31       -5.5757    0.5682   16.5776 H         1 RES1    0.0000
     76 H32       -3.9646   -1.7806   17.1985 H         1 RES1    0.0000
     77 H33       -2.6266   -1.4438   16.4457 H         1 RES1    0.0000
     78 H34       -3.9985   -1.2372   15.7317 H         1 RES1    0.0000
     79 H35       -2.8734    2.3274   14.1769 H         1 RES1    0.0000
     80 H36        2.3982   -0.4905    8.9084 H         1 RES1    0.0000
@<TRIPOS>BOND
     1    1    2 ar
     2    2    3 ar
     3    3    4 ar
     4    4    5 ar
     5    5   30 1
     6    6   15 2
     7    7   31 1
     8    8   38 1
     9    9   30 1
    10   10    3 1
    11   11    2 1
    12   12    1 1
    13   13   19 1
    14   14   19 2
    15   16    6 2
    16   17   31 2
    17   18   31 1
    18   19   20 1
    19   20   21 ar
    20   21   22 ar
    21   22   23 ar
    22   23    6 1
    23   24   23 ar
    24   25   20 ar
    25   26   34 1
    26   27   12 1
    27   28   11 1
    28   29   10 1
    29   30   61 1
    30   32   18 1
    31   33   32 1
    32   34   13 1
    33   35   34 1
    34   36   35 ar
    35   37    7 1
    36   38   37 ar
    37   39   38 ar
    38   40   35 ar
    39   41    1 ar
    40   42    8 1
    41   43   32 1
    42   44   32 1
    43   45   21 1
    44   46   22 1
    45   47   24 1
    46   48   25 1
    47   49   26 1
    48   50   26 1
    49   51   26 1
    50   52   27 1
    51   53   27 1
    52   54   27 1
    53   55   28 1
    54   56   28 1
    55   57   28 1
    56   58   29 1
    57   59   29 1
    58   60   29 1
    59   62   30 1
    60   63   33 1
    61   64   33 1
    62   65   33 1
    63   66   34 1
    64   67   36 1
    65   68   39 1
    66   69    4 1
    67   70   42 1
    68   71   42 1
    69   72   42 1
    70   73   43 1
    71   74   43 1
    72   75   43 1
    73   76   44 1
    74   77   44 1
    75   78   44 1
    76   79    7 1
    77   80    9 1
    78    5   41 ar
    79   24   25 ar
    80   36   37 ar
    81   39   40 ar
    82   40   41 1
@<TRIPOS>SUBSTRUCTURE
     1 RES1 1

@<TRIPOS>CRYSIN
   9.8130   12.0815   13.4125  91.1680 105.2740  90.5450   2 1

