# MOL2 file generated by ConQuest
# Please check atom types

@<TRIPOS>MOLECULE
GUHLEA
    89    82     2
SMALL
NO_CHARGES
****
Generated from CSD

@<TRIPOS>ATOM
      1 O1        -2.0279   -1.7985  -10.3167 O.3       1 RES1    0.0000
      2 O2        -5.4192    0.7111   -9.1072 O.3       1 RES1    0.0000
      3 N1        -2.2618   -2.0279   -8.0857 N.pl3     1 RES1    0.0000
      4 C1        -2.0313   -1.0090   -9.1087 C.3       1 RES1    0.0000
      5 N2        -6.3065    0.9285  -10.1873 N.2       1 RES1    0.0000
      6 C2        -2.9654   -1.7101   -6.8629 C.3       1 RES1    0.0000
      7 N3        -2.0293   -3.2176   -9.9607 N.2       1 RES1    0.0000
      8 N4        -4.8951   -1.5462   -8.4474 N.3       1 RES1    0.0000
      9 C3        -1.3824   -4.7380   -6.8919 C.ar      1 RES1    0.0000
     10 C4        -7.4224   -0.8411  -12.9864 C.ar      1 RES1    0.0000
     11 C5        -2.3344   -4.4927   -7.9059 C.ar      1 RES1    0.0000
     12 C6        -6.0261    0.1142  -11.1321 C.2       1 RES1    0.0000
     13 C7        -0.6474   -0.3923   -8.8873 C.ar      1 RES1    0.0000
     14 C8        -4.5529   -0.4856   -9.3685 C.3       1 RES1    0.0000
     15 C9        -3.1440    0.0318   -9.1707 C.3       1 RES1    0.0000
     16 C10       -6.4059    1.3536  -13.2610 C.ar      1 RES1    0.0000
     17 C11       -2.2259   -3.2464   -8.6920 C.2       1 RES1    0.0000
     18 C12       -4.8961   -0.8094  -10.8222 C.3       1 RES1    0.0000
     19 C13       -3.3792   -5.3965   -8.1239 C.ar      1 RES1    0.0000
     20 C14       -6.6674    0.2155  -12.4674 C.ar      1 RES1    0.0000
     21 C15       -2.5896   -6.7341   -6.2431 C.ar      1 RES1    0.0000
     22 C16       -7.5345    0.2711  -15.1291 C.ar      1 RES1    0.0000
     23 C17       -1.5421   -5.8453   -6.0819 C.ar      1 RES1    0.0000
     24 C18       -0.2170   -3.8234   -6.6765 C.3       1 RES1    0.0000
     25 C19       -0.4534    0.7776   -8.1969 C.ar      1 RES1    0.0000
     26 C20       -7.8603   -0.7736  -14.2977 C.ar      1 RES1    0.0000
     27 C21       -7.8080   -2.0150  -12.1386 C.3       1 RES1    0.0000
     28 C22       -3.4785   -6.5087   -7.2774 C.ar      1 RES1    0.0000
     29 C23       -5.7208    2.5622  -12.7243 C.3       1 RES1    0.0000
     30 C24       -4.4278   -1.3307   -7.0771 C.3       1 RES1    0.0000
     31 C25       -6.8304    1.3427  -14.5875 C.ar      1 RES1    0.0000
     32 C26       -4.3952   -5.1929   -9.1984 C.3       1 RES1    0.0000
     33 C27        0.4753   -1.0874   -9.3130 C.ar      1 RES1    0.0000
     34 C28        1.9232    0.5214   -8.3217 C.ar      1 RES1    0.0000
     35 C29       -2.7668   -7.9060   -5.3160 C.3       1 RES1    0.0000
     36 C30       -6.3010   -1.9266   -8.4741 C.3       1 RES1    0.0000
     37 C31        1.7453   -0.6276   -9.0309 C.ar      1 RES1    0.0000
     38 C32        0.8266    1.2294   -7.9097 C.ar      1 RES1    0.0000
     39 C33       -7.9452    0.2741  -16.5791 C.3       1 RES1    0.0000
     40 H1        -2.4986   -0.9814   -6.4488 H         1 RES1    0.0000
     41 H2        -2.9157   -2.4849   -6.2977 H         1 RES1    0.0000
     42 H3        -4.1278   -0.6462  -11.3747 H         1 RES1    0.0000
     43 H4        -5.1506   -1.7317  -10.8922 H         1 RES1    0.0000
     44 H5        -0.8935   -5.9936   -5.3908 H         1 RES1    0.0000
     45 H6        -0.2544   -3.1080   -7.3168 H         1 RES1    0.0000
     46 H7         0.6012   -4.3136   -6.7927 H         1 RES1    0.0000
     47 H8        -0.2487   -3.4595   -5.7888 H         1 RES1    0.0000
     48 H9        -1.2159    1.2829   -7.9086 H         1 RES1    0.0000
     49 H10       -8.4041   -1.4953  -14.6227 H         1 RES1    0.0000
     50 H11       -7.4373   -1.9233  -11.2572 H         1 RES1    0.0000
     51 H12       -7.4764   -2.8191  -12.5446 H         1 RES1    0.0000
     52 H13       -8.7660   -2.0574  -12.0810 H         1 RES1    0.0000
     53 H14       -4.1994   -7.1232   -7.4357 H         1 RES1    0.0000
     54 H15       -5.4929    2.4140  -11.8040 H         1 RES1    0.0000
     55 H16       -6.3057    3.3207  -12.7929 H         1 RES1    0.0000
     56 H17       -4.9206    2.7278  -13.2287 H         1 RES1    0.0000
     57 H18       -4.5155   -0.4023   -6.8514 H         1 RES1    0.0000
     58 H19       -4.9522   -1.8582   -6.4710 H         1 RES1    0.0000
     59 H20       -6.6202    2.1038  -15.1346 H         1 RES1    0.0000
     60 H21       -4.1972   -4.3957   -9.6947 H         1 RES1    0.0000
     61 H22       -5.2625   -5.1127   -8.7966 H         1 RES1    0.0000
     62 H23       -4.3850   -5.9489   -9.7892 H         1 RES1    0.0000
     63 H24        0.3562   -1.8956   -9.8169 H         1 RES1    0.0000
     64 H25        2.8019    0.8417   -8.1028 H         1 RES1    0.0000
     65 H26       -2.0624   -7.9067   -4.6635 H         1 RES1    0.0000
     66 H27       -2.7341   -8.7200   -5.8224 H         1 RES1    0.0000
     67 H28       -3.6149   -7.8392   -4.8713 H         1 RES1    0.0000
     68 H29       -6.5818   -2.0614   -9.3818 H         1 RES1    0.0000
     69 H30       -6.8256   -1.2252   -8.0780 H         1 RES1    0.0000
     70 H31       -6.4260   -2.7377   -7.9760 H         1 RES1    0.0000
     71 H32        2.5028   -1.1288   -9.3409 H         1 RES1    0.0000
     72 H33        0.9300    2.0501   -7.4215 H         1 RES1    0.0000
     73 H34       -8.4220   -0.5333  -16.7884 H         1 RES1    0.0000
     74 H35       -7.1629    0.3357  -17.1311 H         1 RES1    0.0000
     75 H36       -8.5111    1.0318  -16.7431 H         1 RES1    0.0000
     76 H37       -6.2743    3.0347  -12.0396 Du        2 SUP2    0.0000
     77 H38       -8.4793   -2.5609  -12.6088 Du        2 SUP2    0.0000
     78 H39       -4.8976    2.0744  -12.4326 Du        2 SUP2    0.0000
     79 H40       -0.4472   -2.8518   -6.4375 Du        2 SUP2    0.0000
     80 H41       -1.9693   -8.5353   -5.3613 Du        2 SUP2    0.0000
     81 H42       -8.0891   -1.4400  -11.3248 Du        2 SUP2    0.0000
     82 H43        0.4171   -4.0882   -5.9109 Du        2 SUP2    0.0000
     83 H44       -2.7163   -7.4707   -4.4732 Du        2 SUP2    0.0000
     84 H45       -5.5012    3.3425  -13.2602 Du        2 SUP2    0.0000
     85 H46       -3.6373   -8.3605   -5.5062 Du        2 SUP2    0.0000
     86 H47       -6.9529   -2.5301  -12.1037 Du        2 SUP2    0.0000
     87 H48        0.3029   -3.7684   -7.5284 Du        2 SUP2    0.0000
     88 H49       -3.1255    0.5524   -8.3052 H         1 RES1    0.0000
     89 H50       -2.9383    0.6527   -9.9403 H         1 RES1    0.0000
@<TRIPOS>BOND
     1    1    4 1
     2    2    5 1
     3    3    4 1
     4    4   13 1
     5    5   12 2
     6    6    3 1
     7    7    1 1
     8    8   14 1
     9    9   11 ar
    10   10   20 ar
    11   11   17 1
    12   12   18 1
    13   13   25 ar
    14   14    2 1
    15   15    4 1
    16   16   20 ar
    17   17    3 1
    18   18   14 1
    19   19   11 ar
    20   20   12 1
    21   21   23 ar
    22   22   26 ar
    23   23    9 ar
    24   24    9 1
    25   25   38 ar
    26   26   10 ar
    27   27   10 1
    28   28   19 ar
    29   29   16 1
    30   30    6 1
    31   31   16 ar
    32   32   19 1
    33   33   13 ar
    34   34   37 ar
    35   35   21 1
    36   36    8 1
    37   37   33 ar
    38   38   34 ar
    39   39   22 1
    40   40    6 1
    41   41    6 1
    42   42   18 1
    43   43   18 1
    44   44   23 1
    45   45   24 1
    46   46   24 1
    47   47   24 1
    48   48   25 1
    49   49   26 1
    50   50   27 1
    51   51   27 1
    52   52   27 1
    53   53   28 1
    54   54   29 1
    55   55   29 1
    56   56   29 1
    57   57   30 1
    58   58   30 1
    59   59   31 1
    60   60   32 1
    61   61   32 1
    62   62   32 1
    63   63   33 1
    64   64   34 1
    65   65   35 1
    66   66   35 1
    67   67   35 1
    68   68   36 1
    69   69   36 1
    70   70   36 1
    71   71   37 1
    72   72   38 1
    73   73   39 1
    74   74   39 1
    75   75   39 1
    76   88   15 1
    77   89   15 1
    78    7   17 2
    79    8   30 1
    80   14   15 1
    81   21   28 ar
    82   22   31 ar
@<TRIPOS>SUBSTRUCTURE
     1 RES1 1
     2 SUP2 76

@<TRIPOS>CRYSIN
  22.9235    9.9309   12.8363  90.0000 101.0780  90.0000  14 1

