# MOL2 file generated by ConQuest
# Please check atom types

@<TRIPOS>MOLECULE
GUJJIF
    27    29     1
SMALL
NO_CHARGES
****
Generated from CSD

@<TRIPOS>ATOM
      1 O1        10.9442    0.4433    2.1463 O.2       1 RES1    0.0000
      2 O2         9.2503    1.5477    3.1035 O.3       1 RES1    0.0000
      3 O3         6.0859    3.0768    3.1356 O.2       1 RES1    0.0000
      4 N1         8.1181    2.2958    2.6570 N.am      1 RES1    0.0000
      5 C1         9.9501    1.1091    1.9884 C.2       1 RES1    0.0000
      6 C2         9.2224    1.5590    0.8289 C.ar      1 RES1    0.0000
      7 C3         9.4739    1.3922   -0.5230 C.ar      1 RES1    0.0000
      8 H1        10.2292    0.9416   -0.8240 H         1 RES1    0.0000
      9 C4         8.5568    1.8963   -1.4161 C.ar      1 RES1    0.0000
     10 H2         8.7131    1.8044   -2.3264 H         1 RES1    0.0000
     11 C5         7.3988    2.5595   -0.9769 C.ar      1 RES1    0.0000
     12 H3         6.7907    2.8620   -1.6110 H         1 RES1    0.0000
     13 C6         7.1545    2.7573    0.3725 C.ar      1 RES1    0.0000
     14 H4         6.4041    3.2176    0.6710 H         1 RES1    0.0000
     15 C7         8.0859    2.2376    1.2607 C.ar      1 RES1    0.0000
     16 C8         7.1272    2.6370    3.5649 C.2       1 RES1    0.0000
     17 C9         7.4529    2.4664    5.0081 C.ar      1 RES1    0.0000
     18 C10        8.6737    2.8503    5.5632 C.ar      1 RES1    0.0000
     19 H5         9.3600    3.1695    5.0253 H         1 RES1    0.0000
     20 C11        8.8578    2.7340    6.9200 C.ar      1 RES1    0.0000
     21 H6         9.6582    3.0124    7.2999 H         1 RES1    0.0000
     22 C12        7.8692    2.2066    7.7267 C.ar      1 RES1    0.0000
     23 H7         8.0230    2.1081    8.6371 H         1 RES1    0.0000
     24 C13        6.6429    1.8498    7.1791 C.ar      1 RES1    0.0000
     25 H8         5.9689    1.5206    7.7267 H         1 RES1    0.0000
     26 C14        6.4312    1.9778    5.8247 C.ar      1 RES1    0.0000
     27 H9         5.6095    1.7424    5.4595 H         1 RES1    0.0000
@<TRIPOS>BOND
     1    1    5 2
     2    2    4 1
     3    3   16 2
     4    4   15 1
     5    5    2 1
     6    6    5 1
     7    7    6 ar
     8    8    7 1
     9    9    7 ar
    10   10    9 1
    11   11    9 ar
    12   12   11 1
    13   13   11 ar
    14   14   13 1
    15   15    6 ar
    16   16    4 1
    17   17   16 1
    18   18   17 ar
    19   19   18 1
    20   20   18 ar
    21   21   20 1
    22   22   20 ar
    23   23   22 1
    24   24   22 ar
    25   25   24 1
    26   26   17 ar
    27   27   26 1
    28   13   15 ar
    29   24   26 ar
@<TRIPOS>SUBSTRUCTURE
     1 RES1 1

@<TRIPOS>CRYSIN
  11.3590    3.8780   24.8960  90.0000  97.7210  90.0000  14 1

