# MOL2 file generated by ConQuest
# Please check atom types

@<TRIPOS>MOLECULE
GULDOH
    38    40     1
SMALL
NO_CHARGES
****
Generated from CSD

@<TRIPOS>ATOM
      1 O1         5.4045    3.4684   10.8997 O.2       1 RES1    0.0000
      2 O2         3.1245    6.1069    7.9140 O.3       1 RES1    0.0000
      3 C1         7.6711    3.8672    6.6658 C.ar      1 RES1    0.0000
      4 N1         4.5388    2.9953    6.3253 N.pl3     1 RES1    0.0000
      5 C2         6.5584    4.4027    5.9929 C.ar      1 RES1    0.0000
      6 C3         6.4199    3.7080    8.7703 C.2       1 RES1    0.0000
      7 C4         6.5584    6.6382    8.9147 C.ar      1 RES1    0.0000
      8 H1         7.3378    6.1153    9.0638 H         1 RES1    0.0000
      9 C5         5.3910    6.0165    8.4949 C.ar      1 RES1    0.0000
     10 C6         8.9134    3.8279    6.0181 C.ar      1 RES1    0.0000
     11 H2         9.6670    3.4585    6.4628 H         1 RES1    0.0000
     12 C7         4.2912    8.1880    8.4627 C.ar      1 RES1    0.0000
     13 H3         3.5216    8.7199    8.2979 H         1 RES1    0.0000
     14 C8         7.5165    3.4058    8.0443 C.2       1 RES1    0.0000
     15 H4         8.2033    2.8807    8.4385 H         1 RES1    0.0000
     16 C9         6.3435    3.2470   10.1577 C.2       1 RES1    0.0000
     17 H5         7.0721    2.7436   10.4997 H         1 RES1    0.0000
     18 C10        5.2839    4.5210    8.1989 C.3       1 RES1    0.0000
     19 H6         4.4289    4.1844    8.5933 H         1 RES1    0.0000
     20 C11        4.2429    6.7999    8.2912 C.ar      1 RES1    0.0000
     21 C12        6.6083    8.0187    9.1222 C.ar      1 RES1    0.0000
     22 H7         7.4086    8.4310    9.4283 H         1 RES1    0.0000
     23 C13        5.4804    8.7785    8.8772 C.ar      1 RES1    0.0000
     24 H8         5.5174    9.7210    8.9945 H         1 RES1    0.0000
     25 O3         4.1206    2.2833    7.2033 O.2       1 RES1    0.0000
     26 C14        1.9041    6.8458    7.7826 C.3       1 RES1    0.0000
     27 H9         1.7117    7.3111    8.6238 H         1 RES1    0.0000
     28 H10        1.1698    6.2305    7.5749 H         1 RES1    0.0000
     29 H11        1.9951    7.5013    7.0595 H         1 RES1    0.0000
     30 C15        5.2115    4.3512    6.6726 C.3       1 RES1    0.0000
     31 H12        4.6439    5.0868    6.3019 H         1 RES1    0.0000
     32 C16        6.7090    4.9238    4.7140 C.ar      1 RES1    0.0000
     33 H13        5.9643    5.3089    4.2671 H         1 RES1    0.0000
     34 O4         4.3862    2.7555    5.1492 O.2       1 RES1    0.0000
     35 C17        7.9513    4.8829    4.0866 C.ar      1 RES1    0.0000
     36 H14        8.0487    5.2376    3.2100 H         1 RES1    0.0000
     37 C18        9.0478    4.3261    4.7321 C.ar      1 RES1    0.0000
     38 H15        9.8892    4.2877    4.2915 H         1 RES1    0.0000
@<TRIPOS>BOND
     1    1   16 2
     2    2   20 1
     3    3    5 ar
     4    4   25 2
     5    5   30 1
     6    6   14 2
     7    7    8 1
     8    9    7 ar
     9   10    3 ar
    10   11   10 1
    11   12   13 1
    12   14    3 1
    13   15   14 1
    14   16    6 1
    15   17   16 1
    16   18    6 1
    17   19   18 1
    18   20    9 ar
    19   21    7 ar
    20   22   21 1
    21   23   12 ar
    22   24   23 1
    23   26    2 1
    24   27   26 1
    25   28   26 1
    26   29   26 1
    27   30    4 1
    28   31   30 1
    29   32    5 ar
    30   33   32 1
    31   34    4 2
    32   35   32 ar
    33   36   35 1
    34   37   10 ar
    35   38   37 1
    36    9   18 1
    37   12   20 ar
    38   18   30 1
    39   21   23 ar
    40   35   37 ar
@<TRIPOS>SUBSTRUCTURE
     1 RES1 1

@<TRIPOS>CRYSIN
   8.0511    9.1423   20.3680  90.0000  90.0000  90.0000  19 1

