# MOL2 file generated by ConQuest
# Please check atom types

@<TRIPOS>MOLECULE
GULVEQ
    61    65     1
SMALL
NO_CHARGES
****
Generated from CSD

@<TRIPOS>ATOM
      1 O1         4.5402    2.7767    1.1597 O.3       1 RES1    0.0000
      2 N1         3.3459    2.1139    0.6620 N.3       1 RES1    0.0000
      3 N2         5.6828    2.5402    3.1728 N.2       1 RES1    0.0000
      4 N3         2.7214    1.4172    3.9282 N.2       1 RES1    0.0000
      5 C1         4.1070    0.8796    3.8028 C.3       1 RES1    0.0000
      6 C2         4.3117   -0.3198    4.7201 C.3       1 RES1    0.0000
      7 H1         5.1612   -0.7724    4.4826 H         1 RES1    0.0000
      8 H2         3.5743   -0.9652    4.5847 H         1 RES1    0.0000
      9 C3         4.3554    0.0979    6.1899 C.3       1 RES1    0.0000
     10 H3         4.5288   -0.6978    6.7519 H         1 RES1    0.0000
     11 H4         3.4762    0.4718    6.4515 H         1 RES1    0.0000
     12 C4         5.4452    1.1417    6.4386 C.3       1 RES1    0.0000
     13 H5         6.3286    0.7537    6.2191 H         1 RES1    0.0000
     14 H6         5.4486    1.3916    7.3968 H         1 RES1    0.0000
     15 C5         5.2123    2.3964    5.5852 C.3       1 RES1    0.0000
     16 H7         4.3973    2.8653    5.8946 H         1 RES1    0.0000
     17 H8         5.9803    3.0138    5.6823 H         1 RES1    0.0000
     18 C6         5.0566    2.0108    4.1549 C.2       1 RES1    0.0000
     19 C7         4.3765    0.6803    2.3066 C.3       1 RES1    0.0000
     20 H9         4.7133   -0.2318    2.0750 H         1 RES1    0.0000
     21 C8         5.3461    1.8156    1.9358 C.3       1 RES1    0.0000
     22 C9         6.6503    1.4259    1.1972 C.3       1 RES1    0.0000
     23 C10        7.5393    0.6530    2.1796 C.3       1 RES1    0.0000
     24 H10        7.8082    1.2459    2.9123 H         1 RES1    0.0000
     25 H11        8.3363    0.3262    1.7125 H         1 RES1    0.0000
     26 H12        7.0406   -0.1078    2.5437 H         1 RES1    0.0000
     27 C11        7.3830    2.6975    0.7511 C.3       1 RES1    0.0000
     28 H13        6.8410    3.1693    0.0841 H         1 RES1    0.0000
     29 H14        8.2471    2.4558    0.3585 H         1 RES1    0.0000
     30 H15        7.5286    3.2800    1.5262 H         1 RES1    0.0000
     31 C12        6.3820    0.5505   -0.0250 C.3       1 RES1    0.0000
     32 H16        5.8572   -0.2330    0.2424 H         1 RES1    0.0000
     33 H17        7.2330    0.2569   -0.4106 H         1 RES1    0.0000
     34 H18        5.8832    1.0654   -0.6930 H         1 RES1    0.0000
     35 C13        3.0656    1.0462    1.6180 C.3       1 RES1    0.0000
     36 H19        2.6634    0.2516    1.1637 H         1 RES1    0.0000
     37 C14        2.1917    1.5220    2.7765 C.2       1 RES1    0.0000
     38 C15        0.8100    2.1226    2.5684 C.3       1 RES1    0.0000
     39 C16       -0.0709    1.8360    3.7827 C.3       1 RES1    0.0000
     40 H20       -0.9493    2.2548    3.6574 H         1 RES1    0.0000
     41 H21        0.3518    2.2006    4.5867 H         1 RES1    0.0000
     42 H22       -0.1845    0.8673    3.8837 H         1 RES1    0.0000
     43 C17        0.1454    1.5436    1.3213 C.3       1 RES1    0.0000
     44 H23        0.6816    1.7661    0.5328 H         1 RES1    0.0000
     45 H24       -0.7547    1.9228    1.2238 H         1 RES1    0.0000
     46 H25        0.0824    0.5691    1.4081 H         1 RES1    0.0000
     47 C18        0.9784    3.6441    2.3955 C.3       1 RES1    0.0000
     48 H26        1.5114    3.8246    1.5943 H         1 RES1    0.0000
     49 H27        1.4320    4.0139    3.1807 H         1 RES1    0.0000
     50 H28        0.0962    4.0617    2.3014 H         1 RES1    0.0000
     51 C19        3.4437    1.8447   -0.7361 C.ar      1 RES1    0.0000
     52 C20        2.9086    0.7083   -1.3147 C.ar      1 RES1    0.0000
     53 H29        2.4871    0.0513   -0.7731 H         1 RES1    0.0000
     54 C21        2.9893    0.5301   -2.6913 C.ar      1 RES1    0.0000
     55 H30        2.6355   -0.2592   -3.0845 H         1 RES1    0.0000
     56 C22        3.5734    1.4772   -3.4889 C.ar      1 RES1    0.0000
     57 H31        3.6339    1.3421   -4.4265 H         1 RES1    0.0000
     58 C23        4.0748    2.6329   -2.9173 C.ar      1 RES1    0.0000
     59 H32        4.4654    3.2998   -3.4691 H         1 RES1    0.0000
     60 C24        4.0107    2.8245   -1.5513 C.ar      1 RES1    0.0000
     61 H33        4.3521    3.6231   -1.1677 H         1 RES1    0.0000
@<TRIPOS>BOND
     1    1    2 1
     2    2   35 1
     3    3   18 2
     4    4    5 1
     5    5    6 1
     6    6    7 1
     7    8    6 1
     8    9    6 1
     9   10    9 1
    10   11    9 1
    11   12    9 1
    12   13   12 1
    13   14   12 1
    14   15   12 1
    15   16   15 1
    16   17   15 1
    17   18    5 1
    18   19    5 1
    19   20   19 1
    20   21    1 1
    21   22   21 1
    22   23   22 1
    23   24   23 1
    24   25   23 1
    25   26   23 1
    26   27   22 1
    27   28   27 1
    28   29   27 1
    29   30   27 1
    30   31   22 1
    31   32   31 1
    32   33   31 1
    33   34   31 1
    34   35   19 1
    35   36   35 1
    36   37    4 2
    37   38   37 1
    38   39   38 1
    39   40   39 1
    40   41   39 1
    41   42   39 1
    42   43   38 1
    43   44   43 1
    44   45   43 1
    45   46   43 1
    46   47   38 1
    47   48   47 1
    48   49   47 1
    49   50   47 1
    50   51    2 1
    51   52   51 ar
    52   53   52 1
    53   54   52 ar
    54   55   54 1
    55   56   54 ar
    56   57   56 1
    57   58   56 ar
    58   59   58 1
    59   60   51 ar
    60   61   60 1
    61    3   21 1
    62   15   18 1
    63   19   21 1
    64   35   37 1
    65   58   60 ar
@<TRIPOS>SUBSTRUCTURE
     1 RES1 1

@<TRIPOS>CRYSIN
  36.1200    5.8249   20.6930  90.0000 104.5500  90.0000  15 1

