# MOL2 file generated by ConQuest
# Please check atom types

@<TRIPOS>MOLECULE
GUMCAS
    32    32     1
SMALL
NO_CHARGES
****
Generated from CSD

@<TRIPOS>ATOM
      1 O1        12.2196    3.3617    1.9266 O.2       1 RES1    0.0000
      2 O2         8.6206    0.4783    2.1207 O.2       1 RES1    0.0000
      3 N1        11.5352    0.5990    2.1100 N.pl3     1 RES1    0.0000
      4 N2        11.0176    2.9168    1.9132 N.3       1 RES1    0.0000
      5 N3         9.3147    1.5636    2.0503 N.pl3     1 RES1    0.0000
      6 C1        12.6299    0.5415    1.1814 C.3       1 RES1    0.0000
      7 C2        11.2382   -0.5760    2.8738 C.3       1 RES1    0.0000
      8 C3        10.6544    1.6314    2.0281 C.2       1 RES1    0.0000
      9 C4         9.8557    3.7883    1.5945 C.3       1 RES1    0.0000
     10 C5         8.6877    2.9122    2.0877 C.3       1 RES1    0.0000
     11 C6         9.9032    3.9814    0.0792 C.3       1 RES1    0.0000
     12 C7        10.0100    5.1208    2.2996 C.3       1 RES1    0.0000
     13 C8         7.4702    2.9122    1.1796 C.3       1 RES1    0.0000
     14 C9         8.2722    3.1847    3.5184 C.3       1 RES1    0.0000
     15 H1        12.8145    1.2877    0.8013 H         1 RES1    0.0000
     16 H2        12.3754   -0.0115    0.4006 H         1 RES1    0.0000
     17 H3        13.1887   -0.0575    1.3888 H         1 RES1    0.0000
     18 H4        10.6285   -0.4254    3.5878 H         1 RES1    0.0000
     19 H5        10.8493   -1.1957    2.3949 H         1 RES1    0.0000
     20 H6        11.9789   -0.9657    3.0537 H         1 RES1    0.0000
     21 H7        10.7812    4.3804   -0.1068 H         1 RES1    0.0000
     22 H8         9.2492    4.5758   -0.0979 H         1 RES1    0.0000
     23 H9         9.7215    3.1387   -0.3917 H         1 RES1    0.0000
     24 H10       10.1050    4.9322    3.2495 H         1 RES1    0.0000
     25 H11        9.2193    5.6680    2.2435 H         1 RES1    0.0000
     26 H12       10.7053    5.5186    1.9319 H         1 RES1    0.0000
     27 H13        6.8305    2.4604    1.6470 H         1 RES1    0.0000
     28 H14        7.7214    2.6213    0.3205 H         1 RES1    0.0000
     29 H15        7.0752    3.7710    1.1040 H         1 RES1    0.0000
     30 H16        9.0180    3.2077    4.1398 H         1 RES1    0.0000
     31 H17        7.8935    4.0584    3.5789 H         1 RES1    0.0000
     32 H18        7.6003    2.5178    3.7125 H         1 RES1    0.0000
@<TRIPOS>BOND
     1    1    4 1
     2    2    5 1
     3    3    6 1
     4    4    8 1
     5    5    8 2
     6    6   15 1
     7    7    3 1
     8    8    3 1
     9    9    4 1
    10   10    5 1
    11   11    9 1
    12   12    9 1
    13   13   10 1
    14   14   10 1
    15   16    6 1
    16   17    6 1
    17   18    7 1
    18   19    7 1
    19   20    7 1
    20   21   11 1
    21   22   11 1
    22   23   11 1
    23   24   12 1
    24   25   12 1
    25   26   12 1
    26   27   13 1
    27   28   13 1
    28   29   13 1
    29   30   14 1
    30   31   14 1
    31   32   14 1
    32    9   10 1
@<TRIPOS>SUBSTRUCTURE
     1 RES1 1

@<TRIPOS>CRYSIN
  11.0830   11.4970    9.2630  90.0000 106.0300  90.0000 231 1

