# MOL2 file generated by ConQuest
# Please check atom types

@<TRIPOS>MOLECULE
GUNGON
    55    59     1
SMALL
NO_CHARGES
****
Generated from CSD

@<TRIPOS>ATOM
      1 C1         4.9551    6.1263    4.0417 C.1       1 RES1    0.0000
      2 O1         4.4744    4.5260    6.3671 O.2       1 RES1    0.0000
      3 O2         5.8655    6.4146    8.5129 O.2       1 RES1    0.0000
      4 N1         5.6708    2.7847    5.4749 N.am      1 RES1    0.0000
      5 C2         6.3692    6.0972    4.4378 C.3       1 RES1    0.0000
      6 C3         5.8606    7.5144    6.3853 C.2       1 RES1    0.0000
      7 C4         6.7217    4.8947    5.4285 C.3       1 RES1    0.0000
      8 C5         6.9282    2.6123    4.8742 C.ar      1 RES1    0.0000
      9 C6         2.7736   11.1853    5.0935 C.ar      1 RES1    0.0000
     10 C7         7.2593    5.5107    6.7586 C.3       1 RES1    0.0000
     11 H1         7.4591    4.7972    7.4000 H         1 RES1    0.0000
     12 C8         6.7038    7.4570    5.1389 C.3       1 RES1    0.0000
     13 H2         6.4885    8.2063    4.5466 H         1 RES1    0.0000
     14 C9         7.6045    3.8261    4.8171 C.ar      1 RES1    0.0000
     15 N2         3.8756    6.2315    3.6907 N.1       1 RES1    0.0000
     16 N3         1.0734   14.1437    2.5910 N.pl3     1 RES1    0.0000
     17 O3         1.7598   14.6341    1.7305 O.2       1 RES1    0.0000
     18 N4         7.6954    6.0992    2.1829 N.1       1 RES1    0.0000
     19 C10        8.8523    3.8713    4.2387 C.ar      1 RES1    0.0000
     20 H3         9.3323    4.6681    4.2061 H         1 RES1    0.0000
     21 C11        7.1326    6.0401    3.1718 C.1       1 RES1    0.0000
     22 C12        5.4623    4.0831    5.8118 C.2       1 RES1    0.0000
     23 C13        4.3681    9.3746    5.7138 C.2       1 RES1    0.0000
     24 H4         4.8198    9.4943    4.9092 H         1 RES1    0.0000
     25 C14        3.3225   10.1616    5.9704 C.2       1 RES1    0.0000
     26 H5         2.9024   10.0431    6.7925 H         1 RES1    0.0000
     27 C15        8.5139    6.3613    6.5149 C.3       1 RES1    0.0000
     28 H6         9.2273    5.8012    6.1686 H         1 RES1    0.0000
     29 H7         8.8138    6.7503    7.3510 H         1 RES1    0.0000
     30 C16        4.8347    8.3561    6.6012 C.2       1 RES1    0.0000
     31 H8         4.3836    8.2676    7.4093 H         1 RES1    0.0000
     32 C17        1.6574   13.1145    3.4679 C.ar      1 RES1    0.0000
     33 C18        6.2499    6.4565    7.3452 C.2       1 RES1    0.0000
     34 C19        2.8186   12.5189    3.0878 C.ar      1 RES1    0.0000
     35 H9         3.2405   12.7678    2.2972 H         1 RES1    0.0000
     36 C20        8.1936    7.4783    5.5063 C.3       1 RES1    0.0000
     37 H10        8.4204    8.3386    5.8922 H         1 RES1    0.0000
     38 H11        8.7271    7.3572    4.7063 H         1 RES1    0.0000
     39 C21        3.3555   11.5478    3.8866 C.ar      1 RES1    0.0000
     40 H12        4.1338   11.1182    3.6125 H         1 RES1    0.0000
     41 C22        1.5840   11.8145    5.4270 C.ar      1 RES1    0.0000
     42 H13        1.1497   11.5798    6.2152 H         1 RES1    0.0000
     43 C23        4.7603    1.7058    5.8059 C.3       1 RES1    0.0000
     44 H14        5.1081    0.8781    5.4666 H         1 RES1    0.0000
     45 H15        3.9027    1.8789    5.4095 H         1 RES1    0.0000
     46 H16        4.6667    1.6464    6.7586 H         1 RES1    0.0000
     47 C24        9.3766    2.7095    3.7058 C.ar      1 RES1    0.0000
     48 H17       10.2115    2.7343    3.2977 H         1 RES1    0.0000
     49 O4        -0.0748   14.4681    2.7846 O.2       1 RES1    0.0000
     50 C25        8.7018    1.5299    3.7641 C.ar      1 RES1    0.0000
     51 H18        9.0862    0.7651    3.4003 H         1 RES1    0.0000
     52 C26        7.4602    1.4488    4.3530 C.ar      1 RES1    0.0000
     53 H19        6.9981    0.6424    4.3985 H         1 RES1    0.0000
     54 C27        1.0313   12.7778    4.6165 C.ar      1 RES1    0.0000
     55 H20        0.2345   13.1939    4.8568 H         1 RES1    0.0000
@<TRIPOS>BOND
     1    1    5 1
     2    2   22 2
     3    3   33 2
     4    4    8 1
     5    5    7 1
     6    6   12 1
     7    7   10 1
     8    8   14 ar
     9    9   25 1
    10   10   11 1
    11   12    5 1
    12   13   12 1
    13   14    7 1
    14   15    1 3
    15   16   17 2
    16   18   21 3
    17   19   14 ar
    18   20   19 1
    19   21    5 1
    20   22    4 1
    21   23   24 1
    22   25   23 2
    23   26   25 1
    24   27   10 1
    25   28   27 1
    26   29   27 1
    27   30    6 2
    28   31   30 1
    29   32   16 1
    30   33    6 1
    31   34   32 ar
    32   35   34 1
    33   36   12 1
    34   37   36 1
    35   38   36 1
    36   39    9 ar
    37   40   39 1
    38   41    9 ar
    39   42   41 1
    40   43    4 1
    41   44   43 1
    42   45   43 1
    43   46   43 1
    44   47   19 ar
    45   48   47 1
    46   49   16 2
    47   50   47 ar
    48   51   50 1
    49   52    8 ar
    50   53   52 1
    51   54   32 ar
    52   55   54 1
    53    7   22 1
    54   10   33 1
    55   23   30 1
    56   27   36 1
    57   34   39 ar
    58   41   54 ar
    59   50   52 ar
@<TRIPOS>SUBSTRUCTURE
     1 RES1 1

@<TRIPOS>CRYSIN
   7.3218   32.2827   11.6678  90.0000  91.9750  90.0000  14 1

