# MOL2 file generated by ConQuest
# Please check atom types

@<TRIPOS>MOLECULE
GUPNIO
    73    57     2
SMALL
NO_CHARGES
****
Generated from CSD

@<TRIPOS>ATOM
      1 O1         8.3372   14.1716    8.0858 O.2       1 RES1    0.0000
      2 H1         4.7183    8.0090    5.0503 H         1 RES1    0.0000
      3 O2         7.5077   14.9275    0.9570 O.2       1 RES1    0.0000
      4 O3         4.4418    8.8495    4.9353 O.3       1 RES1    0.0000
      5 N1         5.7844   13.1190    4.6255 N.3       1 RES1    0.0000
      6 N2         6.3112   16.1042    2.4254 N.am      1 RES1    0.0000
      7 H2         5.8832   16.8947    2.6497 H         1 RES1    0.0000
      8 N3         6.3231   13.2835    8.3301 N.am      1 RES1    0.0000
      9 H3         5.9907   12.5439    8.7131 H         1 RES1    0.0000
     10 N4         5.4067    9.7660    4.5010 N.2       1 RES1    0.0000
     11 C1         6.4552   14.2669    4.0229 C.3       1 RES1    0.0000
     12 H4         7.2843   13.9703    3.6133 H         1 RES1    0.0000
     13 H5         6.6801   14.9033    4.7186 H         1 RES1    0.0000
     14 C2         5.6069   14.9574    2.9756 C.3       1 RES1    0.0000
     15 H6         5.3970   14.3318    2.2638 H         1 RES1    0.0000
     16 H7         4.7729   15.2496    3.3757 H         1 RES1    0.0000
     17 C3         7.2292   16.0111    1.4674 C.2       1 RES1    0.0000
     18 C4         7.9294   17.2876    1.0473 C.3       1 RES1    0.0000
     19 C5         6.9286   18.1935    0.3687 C.3       1 RES1    0.0000
     20 H8         6.2026   18.3775    0.9694 H         1 RES1    0.0000
     21 H9         6.5903   17.7649   -0.4201 H         1 RES1    0.0000
     22 H10        7.3564   19.0182    0.1245 H         1 RES1    0.0000
     23 C6         9.0557   16.9791    0.1359 C.3       1 RES1    0.0000
     24 H11        9.6835   16.4077    0.5845 H         1 RES1    0.0000
     25 H12        9.4926   17.7952   -0.1197 H         1 RES1    0.0000
     26 H13        8.7216   16.5375   -0.6472 H         1 RES1    0.0000
     27 C7         8.4128   18.0679    2.2686 C.3       1 RES1    0.0000
     28 H14        7.6664   18.2606    2.8416 H         1 RES1    0.0000
     29 H15        8.8165   18.8905    1.9834 H         1 RES1    0.0000
     30 H16        9.0576   17.5441    2.7485 H         1 RES1    0.0000
     31 C8         7.8211   17.2432   -0.5370 Du        2 SUP2    0.0000
     32 H17        8.0562   16.3644   -0.8487 Du        2 SUP2    0.0000
     33 H18        8.4205   17.8883   -0.9171 Du        2 SUP2    0.0000
     34 H19        6.9213   17.4445   -0.8021 Du        2 SUP2    0.0000
     35 C9         9.3822   17.0700    1.3914 Du        2 SUP2    0.0000
     36 H20        9.6984   16.2735    0.9599 Du        2 SUP2    0.0000
     37 H21        9.4765   16.9791    2.3427 Du        2 SUP2    0.0000
     38 H22        9.8982   17.8233    1.0901 Du        2 SUP2    0.0000
     39 C10        7.5053   18.4727    1.5748 Du        2 SUP2    0.0000
     40 H23        6.5796   18.6047    1.3600 Du        2 SUP2    0.0000
     41 H24        8.0251   19.1913    1.2060 Du        2 SUP2    0.0000
     42 H25        7.6144   18.4554    2.5280 Du        2 SUP2    0.0000
     43 C11        6.3330   12.7891    5.9475 C.3       1 RES1    0.0000
     44 H26        7.3016   12.8168    5.9028 H         1 RES1    0.0000
     45 H27        6.0741   11.8837    6.1794 H         1 RES1    0.0000
     46 C12        5.8696   13.7214    7.0290 C.3       1 RES1    0.0000
     47 H28        6.2083   14.6132    6.8532 H         1 RES1    0.0000
     48 H29        4.9000   13.7625    7.0233 H         1 RES1    0.0000
     49 C13        7.5597   13.5108    8.7539 C.2       1 RES1    0.0000
     50 C14        7.9835   12.8859   10.0807 C.3       1 RES1    0.0000
     51 C15        9.0752   13.7430   10.6794 C.3       1 RES1    0.0000
     52 H30        9.7904   13.8383   10.0474 H         1 RES1    0.0000
     53 H31        9.4068   13.3274   11.4787 H         1 RES1    0.0000
     54 H32        8.7198   14.6089   10.8942 H         1 RES1    0.0000
     55 C16        8.5030   11.4897    9.7366 C.3       1 RES1    0.0000
     56 H33        9.2265   11.5633    9.1103 H         1 RES1    0.0000
     57 H34        7.7949   10.9724    9.3489 H         1 RES1    0.0000
     58 H35        8.8149   11.0589   10.5359 H         1 RES1    0.0000
     59 C17        6.8571   12.7278   11.0576 C.3       1 RES1    0.0000
     60 H36        6.1676   12.1867   10.6670 H         1 RES1    0.0000
     61 H37        6.4993   13.5915   11.2762 H         1 RES1    0.0000
     62 H38        7.1827   12.3058   11.8560 H         1 RES1    0.0000
     63 C18        5.8367   11.9486    3.7464 C.3       1 RES1    0.0000
     64 H39        6.7389   11.5936    3.7350 H         1 RES1    0.0000
     65 H40        5.6058   12.2148    2.8426 H         1 RES1    0.0000
     66 C19        4.8952   10.8879    4.2054 C.2       1 RES1    0.0000
     67 C20        3.4449   11.2040    4.3166 C.3       1 RES1    0.0000
     68 H41        2.9718   10.4269    4.6198 H         1 RES1    0.0000
     69 H42        3.1081   11.4681    3.4584 H         1 RES1    0.0000
     70 H43        3.3209   11.9183    4.9448 H         1 RES1    0.0000
     71 H44        3.2958   12.1174    4.0619 Du        2 SUP2    0.0000
     72 H45        3.1582   11.0741    5.2242 Du        2 SUP2    0.0000
     73 H46        2.9457   10.6239    3.7369 Du        2 SUP2    0.0000
@<TRIPOS>BOND
     1    1   49 2
     2    2    4 1
     3    3   17 2
     4    4   10 1
     5    5   11 1
     6    6    7 1
     7    8    9 1
     8   10   66 2
     9   11   12 1
    10   13   11 1
    11   14    6 1
    12   15   14 1
    13   16   14 1
    14   17    6 1
    15   18   17 1
    16   19   18 1
    17   20   19 1
    18   21   19 1
    19   22   19 1
    20   23   18 1
    21   24   23 1
    22   25   23 1
    23   26   23 1
    24   27   18 1
    25   28   27 1
    26   29   27 1
    27   30   27 1
    28   43    5 1
    29   44   43 1
    30   45   43 1
    31   46    8 1
    32   47   46 1
    33   48   46 1
    34   49    8 1
    35   50   49 1
    36   51   50 1
    37   52   51 1
    38   53   51 1
    39   54   51 1
    40   55   50 1
    41   56   55 1
    42   57   55 1
    43   58   55 1
    44   59   50 1
    45   60   59 1
    46   61   59 1
    47   62   59 1
    48   63    5 1
    49   64   63 1
    50   65   63 1
    51   66   63 1
    52   67   66 1
    53   68   67 1
    54   69   67 1
    55   70   67 1
    56   11   14 1
    57   43   46 1
@<TRIPOS>SUBSTRUCTURE
     1 RES1 1
     2 SUP2 31

@<TRIPOS>CRYSIN
  10.3480   21.6460   10.0660  90.0000 109.2400  90.0000   9 1

