# MOL2 file generated by ConQuest
# Please check atom types

@<TRIPOS>MOLECULE
GUPSUH
    36    37     1
SMALL
NO_CHARGES
****
Generated from CSD

@<TRIPOS>ATOM
      1 O1         0.4611   -1.0514   12.9964 O.2       1 RES1    0.0000
      2 O2         2.3903   -0.0146   12.5343 O.3       1 RES1    0.0000
      3 O3         4.2862    1.2439   19.8139 O.3       1 RES1    0.0000
      4 O4        -0.4770    1.7391   12.8304 O.3       1 RES1    0.0000
      5 N1        -0.9222    1.4890   14.1739 N.3       1 RES1    0.0000
      6 N2         0.1660    1.8687   16.1766 N.ar      1 RES1    0.0000
      7 C1         1.3253    0.5504   14.5306 C.ar      1 RES1    0.0000
      8 C2         3.3524    1.3518   18.8302 C.ar      1 RES1    0.0000
      9 C3         1.3021   -0.2409   13.2693 C.2       1 RES1    0.0000
     10 C4         1.2282    1.6872   17.0274 C.ar      1 RES1    0.0000
     11 C5         2.3903    0.9779   16.6601 C.ar      1 RES1    0.0000
     12 C6         2.1953    2.0862   19.1897 C.ar      1 RES1    0.0000
     13 H1         2.1388    2.4626   20.0387 H         1 RES1    0.0000
     14 C7         1.1745    2.2485   18.3229 C.ar      1 RES1    0.0000
     15 H2         0.4256    2.7362   18.5819 H         1 RES1    0.0000
     16 C8         0.2095    1.3217   14.9864 C.ar      1 RES1    0.0000
     17 C9         2.3961    0.4258   15.3536 C.ar      1 RES1    0.0000
     18 H3         3.1494   -0.0318   15.0552 H         1 RES1    0.0000
     19 C10        3.4481    0.8198   17.5686 C.ar      1 RES1    0.0000
     20 H4         4.2130    0.3555   17.3167 H         1 RES1    0.0000
     21 C11       -1.8458    2.5454   14.5753 C.3       1 RES1    0.0000
     22 H5        -2.1801    2.3614   15.4564 H         1 RES1    0.0000
     23 H6        -2.5788    2.5822   13.9564 H         1 RES1    0.0000
     24 H7        -1.3862    3.3886   14.5787 H         1 RES1    0.0000
     25 C12        5.4172    0.4241   19.5458 C.3       1 RES1    0.0000
     26 H8         5.1250   -0.4676   19.3411 H         1 RES1    0.0000
     27 H9         5.9885    0.4049   20.3168 H         1 RES1    0.0000
     28 H10        5.9015    0.7813   18.7985 H         1 RES1    0.0000
     29 C13       -1.3724    1.1184   11.9069 C.3       1 RES1    0.0000
     30 H11       -1.4442    0.1832   12.1098 H         1 RES1    0.0000
     31 H12       -1.0375    1.2271   11.0133 H         1 RES1    0.0000
     32 H13       -2.2381    1.5283   11.9753 H         1 RES1    0.0000
     33 C14        2.5404   -0.8541   11.3760 C.3       1 RES1    0.0000
     34 H14        2.7050   -1.7575   11.6539 H         1 RES1    0.0000
     35 H15        3.2792   -0.5412   10.8491 H         1 RES1    0.0000
     36 H16        1.7364   -0.8223   10.8514 H         1 RES1    0.0000
@<TRIPOS>BOND
     1    1    9 2
     2    2    9 1
     3    3    8 1
     4    4    5 1
     5    5   16 1
     6    6   10 ar
     7    7    9 1
     8    8   12 ar
     9   10   11 ar
    10   11   17 ar
    11   12   13 1
    12   14   10 ar
    13   15   14 1
    14   16    6 ar
    15   17    7 ar
    16   18   17 1
    17   19    8 ar
    18   20   19 1
    19   21    5 1
    20   22   21 1
    21   23   21 1
    22   24   21 1
    23   25    3 1
    24   26   25 1
    25   27   25 1
    26   28   25 1
    27   29    4 1
    28   30   29 1
    29   31   29 1
    30   32   29 1
    31   33    2 1
    32   34   33 1
    33   35   33 1
    34   36   33 1
    35    7   16 ar
    36   11   19 ar
    37   12   14 ar
@<TRIPOS>SUBSTRUCTURE
     1 RES1 1

@<TRIPOS>CRYSIN
   7.2500    8.3649   22.7971  90.0000  90.0000  90.0000  19 1

