# MOL2 file generated by ConQuest
# Please check atom types

@<TRIPOS>MOLECULE
GUPVUK
    62    66     1
SMALL
NO_CHARGES
****
Generated from CSD

@<TRIPOS>ATOM
      1 C1         4.6266    5.0832    9.1445 C.ar      1 RES1    0.0000
      2 C2         5.3085    5.1565    7.8795 C.ar      1 RES1    0.0000
      3 C3         6.4932    5.8181    7.8279 C.ar      1 RES1    0.0000
      4 H1         6.9176    5.9401    7.0101 H         1 RES1    0.0000
      5 C4         8.3462    6.9579    9.0282 C.ar      1 RES1    0.0000
      6 H2         8.8112    7.0909    8.2334 H         1 RES1    0.0000
      7 C5         8.8856    7.3770   10.2086 C.ar      1 RES1    0.0000
      8 H3         9.7132    7.8006   10.2138 H         1 RES1    0.0000
      9 C6         8.1991    7.1730   11.4094 C.ar      1 RES1    0.0000
     10 H4         8.5792    7.4552   12.2100 H         1 RES1    0.0000
     11 C7         6.9773    6.5641   11.4191 C.ar      1 RES1    0.0000
     12 H5         6.5349    6.4292   12.2257 H         1 RES1    0.0000
     13 C8         6.3816    6.1389   10.2136 C.ar      1 RES1    0.0000
     14 C9         7.0868    6.3239    9.0075 C.ar      1 RES1    0.0000
     15 C10        4.8211    4.4532    6.6575 C.2       1 RES1    0.0000
     16 C11        4.3452    4.7533    4.3588 C.3       1 RES1    0.0000
     17 H6         3.5319    4.2334    4.4533 H         1 RES1    0.0000
     18 H7         5.0447    4.1710    4.0237 H         1 RES1    0.0000
     19 C12        4.1211    5.8943    3.4086 C.ar      1 RES1    0.0000
     20 C13        3.4693    5.6505    2.2222 C.ar      1 RES1    0.0000
     21 H8         3.2017    4.7848    2.0119 H         1 RES1    0.0000
     22 C14        3.2075    6.6787    1.3407 C.ar      1 RES1    0.0000
     23 H9         2.7594    6.4994    0.5449 H         1 RES1    0.0000
     24 C15        3.5928    7.9387    1.6171 C.ar      1 RES1    0.0000
     25 H10        3.4142    8.6283    1.0190 H         1 RES1    0.0000
     26 C16        4.2430    8.1896    2.7773 C.ar      1 RES1    0.0000
     27 H11        4.5163    9.0572    2.9706 H         1 RES1    0.0000
     28 C17        4.5080    7.1757    3.6800 C.ar      1 RES1    0.0000
     29 H12        4.9513    7.3672    4.4743 H         1 RES1    0.0000
     30 C18        1.8196    3.6531    7.7092 C.3       1 RES1    0.0000
     31 H13        1.2195    3.3845    8.4220 H         1 RES1    0.0000
     32 H14        2.4201    2.9144    7.5235 H         1 RES1    0.0000
     33 C19        1.0268    3.9891    6.4749 C.ar      1 RES1    0.0000
     34 C20        0.0851    3.0886    6.0185 C.ar      1 RES1    0.0000
     35 H15       -0.0627    2.3016    6.4914 H         1 RES1    0.0000
     36 C21       -0.6422    3.3372    4.8706 C.ar      1 RES1    0.0000
     37 H16       -1.2683    2.7172    4.5738 H         1 RES1    0.0000
     38 C22       -0.4391    4.5039    4.1657 C.ar      1 RES1    0.0000
     39 H17       -0.9300    4.6757    3.3950 H         1 RES1    0.0000
     40 C23        0.4906    5.4084    4.6071 C.ar      1 RES1    0.0000
     41 H18        0.6299    6.1963    4.1337 H         1 RES1    0.0000
     42 C24        1.2262    5.1560    5.7566 C.ar      1 RES1    0.0000
     43 H19        1.8571    5.7752    6.0460 H         1 RES1    0.0000
     44 C25        2.6494    4.6310   10.4970 C.3       1 RES1    0.0000
     45 H20        1.6997    4.5498   10.3160 H         1 RES1    0.0000
     46 H21        2.8125    5.5279   10.8294 H         1 RES1    0.0000
     47 C26        3.0312    3.6377   11.5632 C.ar      1 RES1    0.0000
     48 C27        3.7840    2.5097   11.3046 C.ar      1 RES1    0.0000
     49 H22        4.1083    2.3584   10.4470 H         1 RES1    0.0000
     50 C28        4.0610    1.6016   12.3145 C.ar      1 RES1    0.0000
     51 H23        4.5850    0.8545   12.1340 H         1 RES1    0.0000
     52 C29        3.5619    1.8004   13.5858 C.ar      1 RES1    0.0000
     53 H24        3.7301    1.1787   14.2559 H         1 RES1    0.0000
     54 C30        2.8165    2.9204   13.8546 C.ar      1 RES1    0.0000
     55 H25        2.4812    3.0581   14.7117 H         1 RES1    0.0000
     56 C31        2.5605    3.8456   12.8586 C.ar      1 RES1    0.0000
     57 H26        2.0713    4.6111   13.0535 H         1 RES1    0.0000
     58 N1         5.1390    5.5586   10.2571 N.ar      1 RES1    0.0000
     59 N2         3.3906    4.4429    9.2462 N.3       1 RES1    0.0000
     60 O1         4.6073    3.2745    6.5755 O.2       1 RES1    0.0000
     61 O2         4.7320    5.3113    5.6356 O.3       1 RES1    0.0000
     62 O3         2.5742    4.8012    8.1163 O.3       1 RES1    0.0000
@<TRIPOS>BOND
     1    1    2 ar
     2    2    3 ar
     3    3    4 1
     4    5    6 1
     5    7    5 ar
     6    8    7 1
     7    9    7 ar
     8   10    9 1
     9   11    9 ar
    10   12   11 1
    11   13   11 ar
    12   14    3 ar
    13   15    2 1
    14   16   17 1
    15   18   16 1
    16   19   16 1
    17   20   19 ar
    18   21   20 1
    19   22   20 ar
    20   23   22 1
    21   24   22 ar
    22   25   24 1
    23   26   24 ar
    24   27   26 1
    25   28   19 ar
    26   29   28 1
    27   30   31 1
    28   32   30 1
    29   33   30 1
    30   34   33 ar
    31   35   34 1
    32   36   34 ar
    33   37   36 1
    34   38   36 ar
    35   39   38 1
    36   40   38 ar
    37   41   40 1
    38   42   33 ar
    39   43   42 1
    40   44   45 1
    41   46   44 1
    42   47   44 1
    43   48   47 ar
    44   49   48 1
    45   50   48 ar
    46   51   50 1
    47   52   50 ar
    48   53   52 1
    49   54   52 ar
    50   55   54 1
    51   56   47 ar
    52   57   56 1
    53   58    1 ar
    54   59    1 1
    55   60   15 2
    56   61   15 1
    57   62   30 1
    58    5   14 ar
    59   13   14 ar
    60   13   58 ar
    61   16   61 1
    62   26   28 ar
    63   40   42 ar
    64   44   59 1
    65   54   56 ar
    66   59   62 1
@<TRIPOS>SUBSTRUCTURE
     1 RES1 1

@<TRIPOS>CRYSIN
   8.4492   11.1405   26.2917  90.0000  94.8890  90.0000 231 1

