# MOL2 file generated by ConQuest
# Please check atom types

@<TRIPOS>MOLECULE
GUPWEV
    53    58     1
SMALL
NO_CHARGES
****
Generated from CSD

@<TRIPOS>ATOM
      1 N1         6.6283    1.9917    6.4593 N.am      1 RES1    0.0000
      2 N2         6.3870    4.2439   10.4998 N.pl3     1 RES1    0.0000
      3 O1         6.9070    0.6529    6.3049 O.3       1 RES1    0.0000
      4 O2         5.8940    1.9014    8.6147 O.2       1 RES1    0.0000
      5 O3         4.3105    5.8621    7.2764 O.3       1 RES1    0.0000
      6 O4         9.2487    4.3153   10.2605 O.2       1 RES1    0.0000
      7 C1         6.1015    2.5230    7.6018 C.2       1 RES1    0.0000
      8 C2         4.3954    4.4519    7.4771 C.3       1 RES1    0.0000
      9 H1         3.9150    4.0399    6.7287 H         1 RES1    0.0000
     10 C3         6.4703    5.3465    9.5470 C.3       1 RES1    0.0000
     11 H2         7.1160    6.0073    9.8734 H         1 RES1    0.0000
     12 C4         6.8646    4.9133    8.1371 C.3       1 RES1    0.0000
     13 H3         7.7047    4.4323    8.2037 H         1 RES1    0.0000
     14 H4         7.0376    5.7161    7.6212 H         1 RES1    0.0000
     15 C5         5.8883    4.0336    7.3183 C.3       1 RES1    0.0000
     16 C6         6.3073    4.1317    5.8531 C.ar      1 RES1    0.0000
     17 C7         6.3381    5.2194    5.0081 C.ar      1 RES1    0.0000
     18 H5         6.0585    6.0575    5.3001 H         1 RES1    0.0000
     19 C8         6.8022    5.0342    3.6983 C.ar      1 RES1    0.0000
     20 H6         6.8237    5.7554    3.1120 H         1 RES1    0.0000
     21 C9         7.2258    3.7927    3.2677 C.ar      1 RES1    0.0000
     22 H7         7.5284    3.6946    2.3927 H         1 RES1    0.0000
     23 C10        7.2128    2.6807    4.1138 C.ar      1 RES1    0.0000
     24 H8         7.5021    1.8434    3.8301 H         1 RES1    0.0000
     25 C11        6.7434    2.8957    5.3964 C.ar      1 RES1    0.0000
     26 C12        3.6488    4.0258    8.7486 C.3       1 RES1    0.0000
     27 H9         3.7392    3.0660    8.8578 H         1 RES1    0.0000
     28 H10        2.7055    4.2227    8.6381 H         1 RES1    0.0000
     29 C13        4.1562    4.7226   10.0280 C.3       1 RES1    0.0000
     30 H11        3.4032    5.0036   10.5902 H         1 RES1    0.0000
     31 C14        5.0385    5.9351    9.6544 C.3       1 RES1    0.0000
     32 H12        5.0281    6.5558   10.4119 H         1 RES1    0.0000
     33 C15        4.5282    6.6853    8.4364 C.3       1 RES1    0.0000
     34 H13        3.6937    7.1208    8.6682 H         1 RES1    0.0000
     35 H14        5.1672    7.3782    8.2088 H         1 RES1    0.0000
     36 C16        3.9595    2.1439   12.3025 C.3       1 RES1    0.0000
     37 H15        3.2879    2.7859   12.5473 H         1 RES1    0.0000
     38 H16        4.2297    1.6511   13.0808 H         1 RES1    0.0000
     39 H17        3.6006    1.5397   11.6497 H         1 RES1    0.0000
     40 C17        5.1406    2.8541   11.7288 C.2       1 RES1    0.0000
     41 C18        5.1193    3.8908   10.8127 C.2       1 RES1    0.0000
     42 C19        6.5006    2.5810   11.9535 C.2       1 RES1    0.0000
     43 H18        6.8288    1.9266   12.5272 H         1 RES1    0.0000
     44 C20        7.2784    3.4419   11.1843 C.2       1 RES1    0.0000
     45 C21        8.7118    3.5282   11.0280 C.2       1 RES1    0.0000
     46 C22        9.5506    2.6218   11.9033 C.3       1 RES1    0.0000
     47 H19       10.4798    2.7623   11.7112 H         1 RES1    0.0000
     48 H20        9.3212    1.7060   11.7275 H         1 RES1    0.0000
     49 H21        9.3809    2.8227   12.8272 H         1 RES1    0.0000
     50 C23        8.2318    0.3798    6.7638 C.3       1 RES1    0.0000
     51 H22        8.8555    0.9370    6.2918 H         1 RES1    0.0000
     52 H23        8.4420   -0.5430    6.6032 H         1 RES1    0.0000
     53 H24        8.2893    0.5611    7.7054 H         1 RES1    0.0000
@<TRIPOS>BOND
     1    1    3 1
     2    2   10 1
     3    3   50 1
     4    4    7 2
     5    5    8 1
     6    6   45 2
     7    7    1 1
     8    8    9 1
     9   10   11 1
    10   12   10 1
    11   13   12 1
    12   14   12 1
    13   15    7 1
    14   16   15 1
    15   17   16 ar
    16   18   17 1
    17   19   17 ar
    18   20   19 1
    19   21   19 ar
    20   22   21 1
    21   23   21 ar
    22   24   23 1
    23   25    1 1
    24   26    8 1
    25   27   26 1
    26   28   26 1
    27   29   26 1
    28   30   29 1
    29   31   10 1
    30   32   31 1
    31   33    5 1
    32   34   33 1
    33   35   33 1
    34   36   37 1
    35   38   36 1
    36   39   36 1
    37   40   36 1
    38   41    2 1
    39   42   40 1
    40   43   42 1
    41   44    2 1
    42   45   44 1
    43   46   45 1
    44   47   46 1
    45   48   46 1
    46   49   46 1
    47   50   51 1
    48   52   50 1
    49   53   50 1
    50    8   15 1
    51   12   15 1
    52   16   25 ar
    53   23   25 ar
    54   29   31 1
    55   29   41 1
    56   31   33 1
    57   40   41 2
    58   42   44 2
@<TRIPOS>SUBSTRUCTURE
     1 RES1 1

@<TRIPOS>CRYSIN
  10.1912    7.8475   12.7536  90.0000 100.1620  90.0000   4 1

