# MOL2 file generated by ConQuest
# Please check atom types

@<TRIPOS>MOLECULE
GUQMEK
    50    48     2
SMALL
NO_CHARGES
****
Generated from CSD

@<TRIPOS>ATOM
      1 O1         4.3224    7.3595    8.3097 O.3       1 RES1    0.0000
      2 O2         0.9022    2.5031    6.2054 O.3       1 RES1    0.0000
      3 O3        -1.6030    3.0825    7.9510 O.2       1 RES1    0.0000
      4 O4         5.0191    3.0882    3.8378 O.3       1 RES1    0.0000
      5 O5        -0.0112    3.9920    9.0787 O.2       1 RES1    0.0000
      6 O6         3.5704    8.1321    6.3169 O.2       1 RES1    0.0000
      7 N1        -0.6454    3.8221    8.0397 N.pl3     1 RES1    0.0000
      8 O7         3.5107    4.4146    2.8362 O.2       1 RES1    0.0000
      9 N2         3.4678    5.9275    6.8788 N.am      1 RES1    0.0000
     10 H1         3.7906    5.3565    7.4627 H         1 RES1    0.0000
     11 C1         3.7689    7.2244    7.0941 C.2       1 RES1    0.0000
     12 C2         1.9631    4.4994    5.3524 C.3       1 RES1    0.0000
     13 H2         1.4426    4.6177    4.5066 H         1 RES1    0.0000
     14 C3         1.2111    3.8946    6.5063 C.3       1 RES1    0.0000
     15 H3         1.7784    3.9368    7.3284 H         1 RES1    0.0000
     16 O8         2.6714    1.7845    7.4041 O.2       1 RES1    0.0000
     17 C4         0.0573    6.0382    7.1919 C.3       1 RES1    0.0000
     18 H4         0.6085    6.0767    8.0133 H         1 RES1    0.0000
     19 H5         0.5483    6.5114    6.4744 H         1 RES1    0.0000
     20 C5         3.0725    5.4852    5.5818 C.3       1 RES1    0.0000
     21 H6         3.1865    6.1632    4.8562 H         1 RES1    0.0000
     22 C6        -0.1401    4.5763    6.7865 C.3       1 RES1    0.0000
     23 C7        -1.1509    4.4160    5.6555 C.3       1 RES1    0.0000
     24 H7        -1.3662    3.4557    5.5528 H         1 RES1    0.0000
     25 H8        -0.7373    4.7235    4.8108 H         1 RES1    0.0000
     26 C8         3.4143    4.0704    5.1835 C.3       1 RES1    0.0000
     27 H9         3.7930    3.4830    5.8988 H         1 RES1    0.0000
     28 C9        -2.4506    5.1940    5.8826 C.3       1 RES1    0.0000
     29 H10       -3.0088    5.1470    5.0662 H         1 RES1    0.0000
     30 H11       -2.9571    4.7783    6.6247 H         1 RES1    0.0000
     31 C10       -2.1681    6.6510    6.2181 C.3       1 RES1    0.0000
     32 H12       -3.0206    7.1228    6.3916 H         1 RES1    0.0000
     33 H13       -1.7248    7.0889    5.4487 H         1 RES1    0.0000
     34 C11        3.9514    3.8818    3.8198 C.2       1 RES1    0.0000
     35 C12       -1.2725    6.7487    7.4447 C.3       1 RES1    0.0000
     36 H14       -1.7271    6.3356    8.2206 H         1 RES1    0.0000
     37 H15       -1.1049    7.7012    7.6575 H         1 RES1    0.0000
     38 C13        1.6994    1.5688    6.7535 C.2       1 RES1    0.0000
     39 H16        1.3431    0.6617    6.5348 H         1 RES1    0.0000
     40 C14        4.8113    8.6739    8.6339 C.3       1 RES1    0.0000
     41 H17        5.5883    8.8805    8.0738 H         1 RES1    0.0000
     42 H18        5.0723    8.7015    9.5781 H         1 RES1    0.0000
     43 H19        4.1057    9.3348    8.4706 H         1 RES1    0.0000
     44 C15        5.7458    2.9479    2.5948 C.3       1 RES1    0.0000
     45 H20        5.1787    2.4981    1.9339 H         1 RES1    0.0000
     46 H21        6.5539    2.4153    2.7470 H         1 RES1    0.0000
     47 H22        5.9967    3.8349    2.2613 H         1 RES1    0.0000
     48 H23        6.6209    3.3810    2.6759 Du        2 SUP2    0.0000
     49 H24        5.2386    3.3710    1.8699 Du        2 SUP2    0.0000
     50 H25        5.8702    1.9970    2.3939 Du        2 SUP2    0.0000
@<TRIPOS>BOND
     1    1   11 1
     2    2   14 1
     3    3    7 2
     4    4   34 1
     5    5    7 2
     6    6   11 2
     7    7   22 1
     8    8   34 2
     9    9   10 1
    10   11    9 1
    11   12   13 1
    12   14   12 1
    13   15   14 1
    14   16   38 2
    15   17   18 1
    16   19   17 1
    17   20    9 1
    18   21   20 1
    19   22   14 1
    20   23   22 1
    21   24   23 1
    22   25   23 1
    23   26   12 1
    24   27   26 1
    25   28   23 1
    26   29   28 1
    27   30   28 1
    28   31   28 1
    29   32   31 1
    30   33   31 1
    31   34   26 1
    32   35   17 1
    33   36   35 1
    34   37   35 1
    35   38    2 1
    36   39   38 1
    37   40    1 1
    38   41   40 1
    39   42   40 1
    40   43   40 1
    41   44    4 1
    42   45   44 1
    43   46   44 1
    44   47   44 1
    45   12   20 1
    46   17   22 1
    47   20   26 1
    48   31   35 1
@<TRIPOS>SUBSTRUCTURE
     1 RES1 1
     2 SUP2 48

@<TRIPOS>CRYSIN
   9.4370    9.9930    9.9950  65.0400  76.6800  81.8900   2 1

