# MOL2 file generated by ConQuest
# Please check atom types

@<TRIPOS>MOLECULE
GUSPAL
    25    26     1
SMALL
NO_CHARGES
****
Generated from CSD

@<TRIPOS>ATOM
      1 N1        -0.7051   -1.7588    7.9802 N.3       1 RES1    0.0000
      2 N2        -3.3231   -0.1087    9.5502 N.1       1 RES1    0.0000
      3 O1         0.3568    0.7900    6.7762 O.3       1 RES1    0.0000
      4 O2        -0.0562   -0.8182    5.2745 O.3       1 RES1    0.0000
      5 O3        -1.0815   -2.6653    9.0357 O.3       1 RES1    0.0000
      6 H1        -0.2192   -3.1403    9.1716 H         1 RES1    0.0000
      7 C1         2.0967    0.1720    5.3179 C.3       1 RES1    0.0000
      8 H2         2.5751    0.9840    5.5030 H         1 RES1    0.0000
      9 H3         2.3042   -0.1245    4.4282 H         1 RES1    0.0000
     10 H4         2.3546   -0.5032    5.9491 H         1 RES1    0.0000
     11 C2         0.1301    1.4645    4.4799 C.3       1 RES1    0.0000
     12 H5        -0.8290    1.4919    4.5124 H         1 RES1    0.0000
     13 H6         0.4141    1.2478    3.5894 H         1 RES1    0.0000
     14 H7         0.4831    2.3212    4.7301 H         1 RES1    0.0000
     15 C3         0.6312    0.4235    5.4288 C.3       1 RES1    0.0000
     16 C4        -1.2851   -0.7232    6.0116 C.3       1 RES1    0.0000
     17 H8        -1.7946   -0.4509    5.4613 H         1 RES1    0.0000
     18 C5        -0.9633    0.3630    7.0663 C.3       1 RES1    0.0000
     19 H9        -1.5198    1.0841    7.1122 H         1 RES1    0.0000
     20 C6        -1.5334   -1.9756    6.7912 C.3       1 RES1    0.0000
     21 H10       -2.4521   -2.0475    7.0121 H         1 RES1    0.0000
     22 H11       -1.3710   -2.8180    6.2867 H         1 RES1    0.0000
     23 C7        -0.9752   -0.3889    8.4029 C.3       1 RES1    0.0000
     24 H12       -0.3067   -0.0939    8.9882 H         1 RES1    0.0000
     25 C8        -2.2975   -0.2492    9.0699 C.1       1 RES1    0.0000
@<TRIPOS>BOND
     1    1    5 1
     2    2   25 3
     3    3   15 1
     4    4   15 1
     5    5    6 1
     6    7    8 1
     7    9    7 1
     8   10    7 1
     9   11   12 1
    10   13   11 1
    11   14   11 1
    12   15    7 1
    13   16    4 1
    14   17   16 1
    15   18    3 1
    16   19   18 1
    17   20    1 1
    18   21   20 1
    19   22   20 1
    20   23    1 1
    21   24   23 1
    22   25   23 1
    23   11   15 1
    24   16   20 1
    25   16   18 1
    26   18   23 1
@<TRIPOS>SUBSTRUCTURE
     1 RES1 1

@<TRIPOS>CRYSIN
   6.9420    8.4690    9.2850 106.1140 109.1880  92.5650   2 1

