# MOL2 file generated by ConQuest
# Please check atom types

@<TRIPOS>MOLECULE
GUTNIS01
    18    18     1
SMALL
NO_CHARGES
****
Generated from CSD

@<TRIPOS>ATOM
      1 C1         2.1957    4.6204    5.5651 C.ar      1 RES1    0.0000
      2 C2         1.0623    5.2215    4.9900 C.ar      1 RES1    0.0000
      3 C3         0.4718    6.3347    5.6091 C.ar      1 RES1    0.0000
      4 H1        -0.2974    6.7359    5.2219 H         1 RES1    0.0000
      5 C4         0.9954    6.8463    6.7664 C.ar      1 RES1    0.0000
      6 H2         0.6023    7.6071    7.1775 H         1 RES1    0.0000
      7 C5         2.1151    6.2346    7.3326 C.ar      1 RES1    0.0000
      8 C6         2.7198    5.1399    6.7536 C.ar      1 RES1    0.0000
      9 H3         3.4826    4.7429    7.1575 H         1 RES1    0.0000
     10 C7         2.8470    3.4613    4.9172 C.2       1 RES1    0.0000
     11 N1         2.6733    6.7695    8.5715 N.pl3     1 RES1    0.0000
     12 O1         3.8193    2.9275    5.6078 O.3       1 RES1    0.0000
     13 H4         4.1799    2.3175    5.1580 H         1 RES1    0.0000
     14 O2         2.4770    3.0487    3.8107 O.2       1 RES1    0.0000
     15 O3         0.4879    4.7873    3.8516 O.3       1 RES1    0.0000
     16 H5         0.9427    4.1578    3.5312 H         1 RES1    0.0000
     17 O4         2.1085    7.7262    9.1049 O.2       1 RES1    0.0000
     18 O5         3.6761    6.2372    9.0345 O.2       1 RES1    0.0000
@<TRIPOS>BOND
     1    1    2 ar
     2    2    3 ar
     3    3    4 1
     4    5    3 ar
     5    6    5 1
     6    7    5 ar
     7    8    1 ar
     8    9    8 1
     9   10    1 1
    10   11    7 1
    11   12   10 1
    12   13   12 1
    13   14   10 2
    14   15    2 1
    15   16   15 1
    16   17   11 2
    17   18   11 2
    18    7    8 ar
@<TRIPOS>SUBSTRUCTURE
     1 RES1 1

@<TRIPOS>CRYSIN
   5.1246    8.7762    9.2674  62.2520  75.2920  82.6540   2 1

