# MOL2 file generated by ConQuest
# Please check atom types

@<TRIPOS>MOLECULE
GUTNIS02
    18    18     1
SMALL
NO_CHARGES
****
Generated from CSD

@<TRIPOS>ATOM
      1 C1        -0.1583    0.5742   -2.4321 C.ar      1 RES1    0.0000
      2 C2        -1.2926    1.1732   -3.0082 C.ar      1 RES1    0.0000
      3 C3        -1.8836    2.2893   -2.3921 C.ar      1 RES1    0.0000
      4 H1        -2.6503    2.6935   -2.7815 H         1 RES1    0.0000
      5 C4        -1.3571    2.7992   -1.2287 C.ar      1 RES1    0.0000
      6 H2        -1.7511    3.5577   -0.8141 H         1 RES1    0.0000
      7 C5        -0.2375    2.1880   -0.6653 C.ar      1 RES1    0.0000
      8 C6         0.3675    1.0910   -1.2425 C.ar      1 RES1    0.0000
      9 H3         1.1294    0.6921   -0.8389 H         1 RES1    0.0000
     10 C7         0.4900   -0.5836   -3.0810 C.2       1 RES1    0.0000
     11 N1         0.3223    2.7236    0.5749 N.pl3     1 RES1    0.0000
     12 O1        -1.8674    0.7389   -4.1458 O.3       1 RES1    0.0000
     13 H4        -1.4462    0.0723   -4.4354 H         1 RES1    0.0000
     14 O2         0.1212   -0.9973   -4.1876 O.2       1 RES1    0.0000
     15 O3         1.4656   -1.1197   -2.3896 O.3       1 RES1    0.0000
     16 H5         1.7873   -1.7680   -2.8159 H         1 RES1    0.0000
     17 O4        -0.2425    3.6805    1.1072 O.2       1 RES1    0.0000
     18 O5         1.3247    2.1895    1.0377 O.2       1 RES1    0.0000
@<TRIPOS>BOND
     1    1    2 ar
     2    2    3 ar
     3    3    4 1
     4    5    3 ar
     5    6    5 1
     6    7    5 ar
     7    8    1 ar
     8    9    8 1
     9   10    1 1
    10   11    7 1
    11   12    2 1
    12   13   12 1
    13   14   10 2
    14   15   10 1
    15   16   15 1
    16   17   11 2
    17   18   11 2
    18    7    8 ar
@<TRIPOS>SUBSTRUCTURE
     1 RES1 1

@<TRIPOS>CRYSIN
   5.1231    8.7759    9.2683  62.2460  75.2590  82.6420   2 1

