# MOL2 file generated by ConQuest
# Please check atom types

@<TRIPOS>MOLECULE
GUTNIS
    18    18     1
SMALL
NO_CHARGES
****
Generated from CSD

@<TRIPOS>ATOM
      1 N1         4.1338    4.7314    4.5946 N.pl3     1 RES1    0.0000
      2 O1         1.9717    2.7928   -0.1501 O.3       1 RES1    0.0000
      3 H1         2.4984    2.0662   -0.4385 H         1 RES1    0.0000
      4 O2         3.9461    1.0408   -0.1835 O.2       1 RES1    0.0000
      5 O3         5.2884    0.9152    1.6050 O.3       1 RES1    0.0000
      6 H2         5.6719    0.2881    1.1562 H         1 RES1    0.0000
      7 O4         5.1231    4.1933    5.0613 O.2       1 RES1    0.0000
      8 O5         3.5760    5.6832    5.1287 O.2       1 RES1    0.0000
      9 C1         2.5385    3.2134    0.9929 C.ar      1 RES1    0.0000
     10 C2         3.6668    2.6084    1.5722 C.ar      1 RES1    0.0000
     11 C3         4.1877    3.1122    2.7670 C.ar      1 RES1    0.0000
     12 H3         4.9314    2.7172    3.1612 H         1 RES1    0.0000
     13 C4         3.5806    4.2066    3.3539 C.ar      1 RES1    0.0000
     14 C5         2.4690    4.8160    2.7886 C.ar      1 RES1    0.0000
     15 H4         2.0800    5.5557    3.1974 H         1 RES1    0.0000
     16 C6         1.9453    4.3219    1.6193 C.ar      1 RES1    0.0000
     17 H5         1.1962    4.7237    1.2415 H         1 RES1    0.0000
     18 C7         4.3161    1.4511    0.9188 C.2       1 RES1    0.0000
@<TRIPOS>BOND
     1    1    7 2
     2    2    3 1
     3    4   18 2
     4    5    6 1
     5    8    1 2
     6    9    2 1
     7   10    9 ar
     8   11   10 ar
     9   12   11 1
    10   13    1 1
    11   14   13 ar
    12   15   14 1
    13   16    9 ar
    14   17   16 1
    15   18    5 1
    16   10   18 1
    17   11   13 ar
    18   14   16 ar
@<TRIPOS>SUBSTRUCTURE
     1 RES1 1

@<TRIPOS>CRYSIN
   5.2010    8.8753    9.2841  62.4490  75.3880  81.6570   2 1

