# MOL2 file generated by ConQuest
# Please check atom types

@<TRIPOS>MOLECULE
GUTYIF
    31    34     1
SMALL
NO_CHARGES
****
Generated from CSD

@<TRIPOS>ATOM
      1 C1         2.7868    8.0089    5.2129 C.2       1 RES1    0.0000
      2 N1         2.6394    7.5905    3.9127 N.pl3     1 RES1    0.0000
      3 N2         2.0415    6.4407    3.4428 N.2       1 RES1    0.0000
      4 C2         1.5560    5.6956    4.3843 C.2       1 RES1    0.0000
      5 H1         1.1388    4.8832    4.1222 H         1 RES1    0.0000
      6 C3         1.5939    5.9923    5.8000 C.ar      1 RES1    0.0000
      7 C4         2.2143    7.1791    6.2459 C.ar      1 RES1    0.0000
      8 C5         1.0057    5.1251    6.7328 C.ar      1 RES1    0.0000
      9 H2         0.5894    4.3233    6.4400 H         1 RES1    0.0000
     10 C6         1.0321    5.4384    8.0768 C.ar      1 RES1    0.0000
     11 H3         0.6412    4.8472    8.7084 H         1 RES1    0.0000
     12 C7         1.6335    6.6248    8.5103 C.ar      1 RES1    0.0000
     13 H4         1.6339    6.8375    9.4368 H         1 RES1    0.0000
     14 C8         2.2299    7.4967    7.6104 C.ar      1 RES1    0.0000
     15 H5         2.6421    8.2961    7.9143 H         1 RES1    0.0000
     16 N3         3.4546    9.1437    5.2458 N.2       1 RES1    0.0000
     17 N4         3.7474    9.4786    3.9233 N.2       1 RES1    0.0000
     18 C9         3.2490    8.5427    3.1480 C.2       1 RES1    0.0000
     19 C10        3.3419    8.4406    1.6804 C.ar      1 RES1    0.0000
     20 C11        2.2253    8.2439    0.8581 C.ar      1 RES1    0.0000
     21 C12        2.3225    8.0427   -0.5063 C.ar      1 RES1    0.0000
     22 H6         1.5454    7.9032   -1.0343 H         1 RES1    0.0000
     23 C13        3.5894    8.0502   -1.0864 C.ar      1 RES1    0.0000
     24 H7         3.6807    7.9225   -2.0232 H         1 RES1    0.0000
     25 C14        4.7193    8.2426   -0.3021 C.ar      1 RES1    0.0000
     26 H8         5.5800    8.2422   -0.7043 H         1 RES1    0.0000
     27 C15        4.5972    8.4354    1.0715 C.ar      1 RES1    0.0000
     28 H9         5.3762    8.5645    1.5996 H         1 RES1    0.0000
     29 N5         0.8725    8.3072    1.4305 N.pl3     1 RES1    0.0000
     30 O1         0.6623    9.1571    2.3034 O.2       1 RES1    0.0000
     31 O2         0.0309    7.5320    1.0066 O.2       1 RES1    0.0000
@<TRIPOS>BOND
     1    1    2 1
     2    2    3 1
     3    3    4 2
     4    4    5 1
     5    6    4 1
     6    7    1 1
     7    8    6 ar
     8    9    8 1
     9   10    8 ar
    10   11   10 1
    11   12   10 ar
    12   13   12 1
    13   14    7 ar
    14   15   14 1
    15   16    1 2
    16   17   16 1
    17   18    2 1
    18   19   18 1
    19   20   19 ar
    20   21   20 ar
    21   22   21 1
    22   23   21 ar
    23   24   23 1
    24   25   23 ar
    25   26   25 1
    26   27   19 ar
    27   28   27 1
    28   29   20 1
    29   30   29 2
    30   31   29 2
    31    6    7 ar
    32   12   14 ar
    33   17   18 2
    34   25   27 ar
@<TRIPOS>SUBSTRUCTURE
     1 RES1 1

@<TRIPOS>CRYSIN
   7.6745   12.8403   12.6474  90.0000  91.1740  90.0000 231 1

