# MOL2 file generated by ConQuest
# Please check atom types

@<TRIPOS>MOLECULE
GUTZIG
    33    35     1
SMALL
NO_CHARGES
****
Generated from CSD

@<TRIPOS>ATOM
      1 C1        -1.4013    4.1488    9.8806 C.2       1 RES1    0.0000
      2 N1        -2.3265    4.8004   10.6455 N.pl3     1 RES1    0.0000
      3 H1        -3.1435    5.0228   10.2979 H         1 RES1    0.0000
      4 N2        -2.1912    5.1532   11.9607 N.2       1 RES1    0.0000
      5 C2        -1.0745    4.8532   12.5389 C.2       1 RES1    0.0000
      6 H2        -0.9762    5.0760   13.4573 H         1 RES1    0.0000
      7 C3         0.0299    4.2028   11.8819 C.ar      1 RES1    0.0000
      8 C4        -0.1289    3.8542   10.5293 C.ar      1 RES1    0.0000
      9 C5         1.2399    3.9223   12.5366 C.ar      1 RES1    0.0000
     10 H3         1.3497    4.1443   13.4527 H         1 RES1    0.0000
     11 C6         2.2675    3.3224   11.8411 C.ar      1 RES1    0.0000
     12 H4         3.0891    3.1377   12.2816 H         1 RES1    0.0000
     13 C7         2.1112    2.9833   10.4912 C.ar      1 RES1    0.0000
     14 H5         2.8299    2.5792   10.0194 H         1 RES1    0.0000
     15 C8         0.9174    3.2323    9.8399 C.ar      1 RES1    0.0000
     16 H6         0.8081    2.9826    8.9304 H         1 RES1    0.0000
     17 N3        -1.5894    3.7725    8.6373 N.2       1 RES1    0.0000
     18 N4        -2.8701    4.0599    8.1830 N.2       1 RES1    0.0000
     19 C9        -3.0698    3.6033    6.9989 C.2       1 RES1    0.0000
     20 H7        -2.3572    3.1616    6.5517 H         1 RES1    0.0000
     21 C10       -4.3546    3.7402    6.3157 C.ar      1 RES1    0.0000
     22 C11       -5.4703    4.3294    6.9357 C.ar      1 RES1    0.0000
     23 H8        -5.3936    4.6518    7.8256 H         1 RES1    0.0000
     24 C12       -6.6763    4.4476    6.2696 C.ar      1 RES1    0.0000
     25 H9        -7.4267    4.8555    6.6864 H         1 RES1    0.0000
     26 C13       -6.7578    3.9508    4.9713 C.ar      1 RES1    0.0000
     27 C14       -5.6858    3.3449    4.3362 C.ar      1 RES1    0.0000
     28 H10       -5.7781    3.0001    3.4562 H         1 RES1    0.0000
     29 C15       -4.4772    3.2510    5.0079 C.ar      1 RES1    0.0000
     30 H11       -3.7281    2.8533    4.5794 H         1 RES1    0.0000
     31 N5        -8.0153    4.0892    4.2264 N.pl3     1 RES1    0.0000
     32 O1        -8.8945    4.7981    4.6892 O.2       1 RES1    0.0000
     33 O2        -8.1247    3.4923    3.1597 O.2       1 RES1    0.0000
@<TRIPOS>BOND
     1    1    2 1
     2    2    3 1
     3    4    2 1
     4    5    4 2
     5    6    5 1
     6    7    5 1
     7    8    1 1
     8    9    7 ar
     9   10    9 1
    10   11    9 ar
    11   12   11 1
    12   13   11 ar
    13   14   13 1
    14   15    8 ar
    15   16   15 1
    16   17    1 2
    17   18   17 1
    18   19   18 2
    19   20   19 1
    20   21   19 1
    21   22   21 ar
    22   23   22 1
    23   24   22 ar
    24   25   24 1
    25   26   24 ar
    26   27   26 ar
    27   28   27 1
    28   29   21 ar
    29   30   29 1
    30   31   26 1
    31   32   31 2
    32   33   31 2
    33    7    8 ar
    34   13   15 ar
    35   27   29 ar
@<TRIPOS>SUBSTRUCTURE
     1 RES1 1

@<TRIPOS>CRYSIN
  14.9193    3.8014   23.8964  90.0000 107.1950  90.0000  14 1

