# MOL2 file generated by ConQuest
# Please check atom types

@<TRIPOS>MOLECULE
GUVDIK
    66    70     1
SMALL
NO_CHARGES
****
Generated from CSD

@<TRIPOS>ATOM
      1 C1        -7.5871   10.5447   -2.6761 C.ar      1 RES1    0.0000
      2 H1        -7.5739    9.9430   -3.4110 H         1 RES1    0.0000
      3 C2        -8.2367   11.7451   -2.7766 C.ar      1 RES1    0.0000
      4 C3        -8.2466   12.6872   -1.7688 C.ar      1 RES1    0.0000
      5 H2        -8.6621   13.5359   -1.8706 H         1 RES1    0.0000
      6 C4        -7.6121   12.3142   -0.6083 C.ar      1 RES1    0.0000
      7 C5        -6.9741   11.1068   -0.4164 C.ar      1 RES1    0.0000
      8 H3        -6.5689   10.8913    0.4164 H         1 RES1    0.0000
      9 C6        -6.9436   10.2154   -1.4829 C.ar      1 RES1    0.0000
     10 C7        -5.2738    8.5954   -0.6383 C.2       1 RES1    0.0000
     11 C8        -4.7086    7.2741   -0.9203 C.2       1 RES1    0.0000
     12 C9        -4.8245    6.3573   -1.9646 C.2       1 RES1    0.0000
     13 C10       -3.9718    5.2729   -1.6566 C.2       1 RES1    0.0000
     14 C11       -3.3492    5.5737   -0.4543 C.2       1 RES1    0.0000
     15 C12       -2.2366    4.9487    0.3055 C.2       1 RES1    0.0000
     16 C13       -0.5459    3.1233    0.0405 C.ar      1 RES1    0.0000
     17 C14        0.0348    3.1568    1.3054 C.ar      1 RES1    0.0000
     18 H4        -0.2436    3.7931    1.9542 H         1 RES1    0.0000
     19 C15        1.0204    2.2421    1.5887 C.ar      1 RES1    0.0000
     20 C16        1.4724    1.2898    0.7088 C.ar      1 RES1    0.0000
     21 H5         2.1611    0.6759    0.9373 H         1 RES1    0.0000
     22 C17        0.8641    1.2806   -0.5287 C.ar      1 RES1    0.0000
     23 C18       -0.1090    2.1781   -0.8864 C.ar      1 RES1    0.0000
     24 H6        -0.4832    2.1547   -1.7597 H         1 RES1    0.0000
     25 C19       -5.6529    6.4651   -3.1917 C.ar      1 RES1    0.0000
     26 C20       -6.6049    5.4843   -3.4802 C.ar      1 RES1    0.0000
     27 H7        -6.7219    4.7505   -2.8889 H         1 RES1    0.0000
     28 C21       -7.3763    5.5768   -4.6211 C.ar      1 RES1    0.0000
     29 H8        -8.0170    4.9029   -4.8117 H         1 RES1    0.0000
     30 C22       -7.2246    6.6378   -5.4814 C.ar      1 RES1    0.0000
     31 H9        -7.7639    6.6968   -6.2607 H         1 RES1    0.0000
     32 C23       -6.2931    7.6125   -5.2164 C.ar      1 RES1    0.0000
     33 H10       -6.1938    8.3484   -5.8090 H         1 RES1    0.0000
     34 C24       -5.5021    7.5231   -4.0859 C.ar      1 RES1    0.0000
     35 H11       -4.8482    8.1908   -3.9175 H         1 RES1    0.0000
     36 C25       -3.7628    4.0319   -2.4450 C.ar      1 RES1    0.0000
     37 C26       -4.1317    2.7950   -1.9072 C.ar      1 RES1    0.0000
     38 H12       -4.5893    2.7665   -1.0757 H         1 RES1    0.0000
     39 C27       -3.8436    1.6150   -2.5625 C.ar      1 RES1    0.0000
     40 H13       -4.0918    0.7816   -2.1787 H         1 RES1    0.0000
     41 C28       -3.1922    1.6536   -3.7818 C.ar      1 RES1    0.0000
     42 H14       -2.9824    0.8446   -4.2334 H         1 RES1    0.0000
     43 C29       -2.8442    2.8702   -4.3444 C.ar      1 RES1    0.0000
     44 H15       -2.4099    2.8956   -5.1903 H         1 RES1    0.0000
     45 C30       -3.1277    4.0502   -3.6760 C.ar      1 RES1    0.0000
     46 H16       -2.8842    4.8816   -4.0663 H         1 RES1    0.0000
     47 N1        -8.9754   12.0296   -4.0128 N.pl3     1 RES1    0.0000
     48 N2        -7.6498   13.2645    0.5143 N.pl3     1 RES1    0.0000
     49 N3        -6.3209    8.9643   -1.4358 N.am      1 RES1    0.0000
     50 H17       -6.6374    8.3474   -1.9777 H         1 RES1    0.0000
     51 N4        -3.8178    6.7679   -0.0222 N.pl3     1 RES1    0.0000
     52 H18       -3.5815    7.1603    0.7297 H         1 RES1    0.0000
     53 N5        -1.5750    3.9648   -0.3817 N.am      1 RES1    0.0000
     54 H19       -1.8384    3.8459   -1.2127 H         1 RES1    0.0000
     55 N6         1.6360    2.2329    2.9332 N.pl3     1 RES1    0.0000
     56 N7         1.2405    0.2206   -1.4829 N.pl3     1 RES1    0.0000
     57 O1        -8.9890   11.1789   -4.8997 O.2       1 RES1    0.0000
     58 O2        -9.5658   13.1009   -4.0883 O.2       1 RES1    0.0000
     59 O3        -7.5740   14.4547    0.2489 O.2       1 RES1    0.0000
     60 O4        -7.7515   12.8082    1.6389 O.2       1 RES1    0.0000
     61 O5        -4.8078    9.3200    0.2326 O.2       1 RES1    0.0000
     62 O6        -1.9197    5.3359    1.4071 O.2       1 RES1    0.0000
     63 O7         1.2226    3.0166    3.7724 O.2       1 RES1    0.0000
     64 O8         2.5416    1.4361    3.1395 O.2       1 RES1    0.0000
     65 O9         2.0897   -0.5854   -1.1152 O.2       1 RES1    0.0000
     66 O10        0.6488    0.1799   -2.5596 O.2       1 RES1    0.0000
@<TRIPOS>BOND
     1    1    2 1
     2    3    1 ar
     3    4    3 ar
     4    5    4 1
     5    6    4 ar
     6    7    6 ar
     7    8    7 1
     8    9    1 ar
     9   10   11 1
    10   11   12 2
    11   12   13 1
    12   13   14 2
    13   14   15 1
    14   15   53 1
    15   16   17 ar
    16   17   18 1
    17   19   17 ar
    18   20   19 ar
    19   21   20 1
    20   22   20 ar
    21   23   16 ar
    22   24   23 1
    23   25   12 1
    24   26   25 ar
    25   27   26 1
    26   28   26 ar
    27   29   28 1
    28   30   28 ar
    29   31   30 1
    30   32   30 ar
    31   33   32 1
    32   34   25 ar
    33   35   34 1
    34   36   13 1
    35   37   36 ar
    36   38   37 1
    37   39   37 ar
    38   40   39 1
    39   41   39 ar
    40   42   41 1
    41   43   41 ar
    42   44   43 1
    43   45   36 ar
    44   46   45 1
    45   47    3 1
    46   48    6 1
    47   49    9 1
    48   50   49 1
    49   51   11 1
    50   52   51 1
    51   53   16 1
    52   54   53 1
    53   55   19 1
    54   56   22 1
    55   57   47 2
    56   58   47 2
    57   59   48 2
    58   60   48 2
    59   61   10 2
    60   62   15 2
    61   63   55 2
    62   64   55 2
    63   65   56 2
    64   66   56 2
    65    7    9 ar
    66   10   49 1
    67   14   51 1
    68   22   23 ar
    69   32   34 ar
    70   43   45 ar
@<TRIPOS>SUBSTRUCTURE
     1 RES1 1

@<TRIPOS>CRYSIN
  20.3034   10.1636   13.4570  90.0000 104.0570  90.0000  14 1

