# MOL2 file generated by ConQuest
# Please check atom types

@<TRIPOS>MOLECULE
GUVTAS
    43    46     1
SMALL
NO_CHARGES
****
Generated from CSD

@<TRIPOS>ATOM
      1 C1         3.4010   -1.6851    2.4011 C.ar      1 RES1    0.0000
      2 C2         2.9583   -2.8561    1.8092 C.ar      1 RES1    0.0000
      3 C3         1.6561   -2.9738    1.3694 C.ar      1 RES1    0.0000
      4 C4         0.7790   -1.9392    1.5308 C.ar      1 RES1    0.0000
      5 C5         1.1878   -0.7705    2.1432 C.ar      1 RES1    0.0000
      6 C6         2.5068   -0.6487    2.5699 C.ar      1 RES1    0.0000
      7 C7         4.8407   -1.5504    2.8538 C.3       1 RES1    0.0000
      8 N1         4.9293   -0.7699    4.0859 N.3       1 RES1    0.0000
      9 C8         5.5470    0.3981    4.1843 C.2       1 RES1    0.0000
     10 N2         6.1761    1.0674    3.2546 N.2       1 RES1    0.0000
     11 C9         6.2357    0.3870    2.0726 C.2       1 RES1    0.0000
     12 C10        5.6904   -0.8179    1.8537 C.2       1 RES1    0.0000
     13 N3         5.9974   -1.4936    0.6439 N.pl3     1 RES1    0.0000
     14 O1         6.4910   -0.8823   -0.3080 O.2       1 RES1    0.0000
     15 O2         5.7463   -2.6980    0.5864 O.2       1 RES1    0.0000
     16 C11        4.3371   -1.1821    5.3477 C.3       1 RES1    0.0000
     17 C12        4.7330   -0.0269    6.2699 C.3       1 RES1    0.0000
     18 O3         5.4873    0.8911    5.4108 O.3       1 RES1    0.0000
     19 C13        3.6195    0.7325    6.8989 C.3       1 RES1    0.0000
     20 O4         2.7585    1.1985    5.8635 O.3       1 RES1    0.0000
     21 C14        1.8241    2.1517    6.2068 C.ar      1 RES1    0.0000
     22 C15        1.6081    2.5838    7.4946 C.ar      1 RES1    0.0000
     23 C16        0.7052    3.6084    7.7116 C.ar      1 RES1    0.0000
     24 C17        0.0214    4.1635    6.6633 C.ar      1 RES1    0.0000
     25 C18        0.2067    3.6927    5.3959 C.ar      1 RES1    0.0000
     26 C19        1.1100    2.6880    5.1770 C.ar      1 RES1    0.0000
     27 H1         3.5458   -3.5698    1.7052 H         1 RES1    0.0000
     28 H2         1.3736   -3.7601    0.9612 H         1 RES1    0.0000
     29 H3        -0.0960   -2.0223    1.2284 H         1 RES1    0.0000
     30 H4         0.5882   -0.0714    2.2675 H         1 RES1    0.0000
     31 H5         2.7869    0.1399    2.9744 H         1 RES1    0.0000
     32 H6         5.2161   -2.4421    3.0078 H         1 RES1    0.0000
     33 H7         6.6878    0.7893    1.3675 H         1 RES1    0.0000
     34 H8         4.7097   -2.0241    5.6538 H         1 RES1    0.0000
     35 H9         3.3742   -1.2653    5.2753 H         1 RES1    0.0000
     36 H10        5.3250   -0.3671    6.9731 H         1 RES1    0.0000
     37 H11        3.1287    0.1598    7.5075 H         1 RES1    0.0000
     38 H12        3.9721    1.4837    7.4018 H         1 RES1    0.0000
     39 H13        2.0610    2.1933    8.2071 H         1 RES1    0.0000
     40 H14        0.5603    3.9217    8.5763 H         1 RES1    0.0000
     41 H15       -0.5717    4.8643    6.8154 H         1 RES1    0.0000
     42 H16       -0.2770    4.0517    4.6890 H         1 RES1    0.0000
     43 H17        1.2393    2.3678    4.3123 H         1 RES1    0.0000
@<TRIPOS>BOND
     1    1    2 ar
     2    2    3 ar
     3    3    4 ar
     4    4    5 ar
     5    5    6 ar
     6    6    1 ar
     7    7    1 1
     8    8    7 1
     9    9    8 1
    10   10    9 2
    11   11   10 1
    12   12    7 1
    13   13   12 1
    14   14   13 2
    15   15   13 2
    16   16    8 1
    17   17   16 1
    18   18    9 1
    19   19   17 1
    20   20   19 1
    21   21   20 1
    22   22   21 ar
    23   23   22 ar
    24   24   23 ar
    25   25   24 ar
    26   26   21 ar
    27   27    2 1
    28   28    3 1
    29   29    4 1
    30   30    5 1
    31   31    6 1
    32   32    7 1
    33   33   11 1
    34   34   16 1
    35   35   16 1
    36   36   17 1
    37   37   19 1
    38   38   19 1
    39   39   22 1
    40   40   23 1
    41   41   24 1
    42   42   25 1
    43   43   26 1
    44   11   12 2
    45   17   18 1
    46   25   26 ar
@<TRIPOS>SUBSTRUCTURE
     1 RES1 1

@<TRIPOS>CRYSIN
  15.5770    5.8550   18.9700  90.0000 102.0000  90.0000  14 1

