# MOL2 file generated by ConQuest
# Please check atom types

@<TRIPOS>MOLECULE
GUWBIJ
    62    63     1
SMALL
NO_CHARGES
****
Generated from CSD

@<TRIPOS>ATOM
      1 O1         3.7081   -3.9814   18.1966 O.3       1 RES1    0.0000
      2 O2         1.8568   -2.1815   21.2877 O.2       1 RES1    0.0000
      3 O3         4.0433   -2.2799   20.8375 O.3       1 RES1    0.0000
      4 O4         3.3607    0.5346   21.1101 O.2       1 RES1    0.0000
      5 O5         3.8722    1.8910   19.4327 O.3       1 RES1    0.0000
      6 O6         4.7710    3.2631   13.9237 O.2       1 RES1    0.0000
      7 O7         6.6672    2.3848   13.4099 O.2       1 RES1    0.0000
      8 O8         0.2103   -0.4161   14.8799 O.2       1 RES1    0.0000
      9 O9         1.2541    1.4275   15.5335 O.3       1 RES1    0.0000
     10 N1         2.0789   -2.2755   18.2768 N.3       1 RES1    0.0000
     11 N2         5.6275    2.4193   14.0577 N.pl3     1 RES1    0.0000
     12 C1         2.6291   -1.3990   19.1890 C.2       1 RES1    0.0000
     13 C2         2.8809   -0.1390   18.8843 C.2       1 RES1    0.0000
     14 C3         2.7278    0.3663   17.4942 C.3       1 RES1    0.0000
     15 H1         2.3911    1.2859   17.5406 H         1 RES1    0.0000
     16 C4         1.6886   -0.4814   16.7717 C.2       1 RES1    0.0000
     17 C5         1.4748   -1.7567   17.1158 C.2       1 RES1    0.0000
     18 C6         2.3672   -3.6975   18.4357 C.3       1 RES1    0.0000
     19 H2         2.1380   -3.9718   19.3362 H         1 RES1    0.0000
     20 H3         1.8175   -4.2057   17.8193 H         1 RES1    0.0000
     21 C7         4.0439   -4.2920   16.9269 C.3       1 RES1    0.0000
     22 H4         3.7833   -3.5661   16.3373 H         1 RES1    0.0000
     23 H5         3.5625   -5.0879   16.6508 H         1 RES1    0.0000
     24 C8         5.5084   -4.5308   16.7977 C.3       1 RES1    0.0000
     25 H6         5.7171   -4.7513   15.8870 H         1 RES1    0.0000
     26 H7         5.7656   -5.2567   17.3691 H         1 RES1    0.0000
     27 H8         5.9850   -3.7378   17.0528 H         1 RES1    0.0000
     28 C9         2.7832   -1.9840   20.5679 C.2       1 RES1    0.0000
     29 C10        4.2749   -2.8719   22.1309 C.3       1 RES1    0.0000
     30 H9         5.2035   -3.1011   22.2172 H         1 RES1    0.0000
     31 H10        3.7406   -3.6649   22.2198 H         1 RES1    0.0000
     32 H11        4.0361   -2.2457   22.8175 H         1 RES1    0.0000
     33 C11        3.3794    0.7729   19.9330 C.2       1 RES1    0.0000
     34 C12        4.3340    2.8748   20.3843 C.3       1 RES1    0.0000
     35 H12        4.5327    3.6946   19.9258 H         1 RES1    0.0000
     36 H13        5.1257    2.5516   20.8209 H         1 RES1    0.0000
     37 H14        3.6491    3.0320   21.0380 H         1 RES1    0.0000
     38 C13        4.0243    0.3749   16.6945 C.ar      1 RES1    0.0000
     39 C14        4.2741    1.3837   15.8042 C.ar      1 RES1    0.0000
     40 H15        3.6800    2.0942   15.7182 H         1 RES1    0.0000
     41 C15        5.4171    1.3357   15.0340 C.ar      1 RES1    0.0000
     42 C16        6.3382    0.3375   15.1481 C.ar      1 RES1    0.0000
     43 H16        7.1080    0.3308   14.6247 H         1 RES1    0.0000
     44 C17        6.0941   -0.6530   16.0542 C.ar      1 RES1    0.0000
     45 H17        6.6996   -1.3520   16.1497 H         1 RES1    0.0000
     46 C18        4.9545   -0.6204   16.8264 C.ar      1 RES1    0.0000
     47 H18        4.8137   -1.2916   17.4548 H         1 RES1    0.0000
     48 C19        0.9688    0.1323   15.6469 C.2       1 RES1    0.0000
     49 C20        0.6234    2.1642   14.4559 C.3       1 RES1    0.0000
     50 H19       -0.3026    1.8631   14.3433 H         1 RES1    0.0000
     51 C21        0.6433    3.5930   14.9075 C.3       1 RES1    0.0000
     52 H20        0.0713    4.1156   14.3407 H         1 RES1    0.0000
     53 H21        1.5398    3.9315   14.8579 H         1 RES1    0.0000
     54 H22        0.3311    3.6457   15.8147 H         1 RES1    0.0000
     55 C22        1.3848    1.9485   13.1909 C.3       1 RES1    0.0000
     56 H23        2.2797    2.2812   13.2955 H         1 RES1    0.0000
     57 H24        0.9517    2.4145   12.4727 H         1 RES1    0.0000
     58 H25        1.4144    1.0097   12.9926 H         1 RES1    0.0000
     59 C23        0.5543   -2.7089   16.3949 C.3       1 RES1    0.0000
     60 H26        0.5685   -3.5623   16.8357 H         1 RES1    0.0000
     61 H27        0.8478   -2.8125   15.4877 H         1 RES1    0.0000
     62 H28       -0.3392   -2.3589   16.4043 H         1 RES1    0.0000
@<TRIPOS>BOND
     1    1   18 1
     2    2   28 2
     3    3   28 1
     4    4   33 2
     5    5   33 1
     6    6   11 2
     7    7   11 2
     8    8   48 2
     9    9   48 1
    10   10   12 1
    11   11   41 1
    12   12   13 2
    13   13   14 1
    14   14   15 1
    15   16   14 1
    16   17   10 1
    17   18   10 1
    18   19   18 1
    19   20   18 1
    20   21    1 1
    21   22   21 1
    22   23   21 1
    23   24   21 1
    24   25   24 1
    25   26   24 1
    26   27   24 1
    27   28   12 1
    28   29    3 1
    29   30   29 1
    30   31   29 1
    31   32   29 1
    32   33   13 1
    33   34    5 1
    34   35   34 1
    35   36   34 1
    36   37   34 1
    37   38   14 1
    38   39   38 ar
    39   40   39 1
    40   41   39 ar
    41   42   41 ar
    42   43   42 1
    43   44   42 ar
    44   45   44 1
    45   46   38 ar
    46   47   46 1
    47   48   16 1
    48   49    9 1
    49   50   49 1
    50   51   49 1
    51   52   51 1
    52   53   51 1
    53   54   51 1
    54   55   49 1
    55   56   55 1
    56   57   55 1
    57   58   55 1
    58   59   17 1
    59   60   59 1
    60   61   59 1
    61   62   59 1
    62   16   17 2
    63   44   46 ar
@<TRIPOS>SUBSTRUCTURE
     1 RES1 1

@<TRIPOS>CRYSIN
   9.2910    9.5890   27.1750  90.0000  99.5300  90.0000  14 1

