# MOL2 file generated by ConQuest
# Please check atom types

@<TRIPOS>MOLECULE
GUWCIL
    24    24     1
SMALL
NO_CHARGES
****
Generated from CSD

@<TRIPOS>ATOM
      1 N1         5.8118    5.9991   -1.9926 N.2       1 RES1    0.0000
      2 O1         0.5027    5.5425    1.3959 O.3       1 RES1    0.0000
      3 O2         3.3795    6.7173   -2.0877 O.3       1 RES1    0.0000
      4 H1         4.1598    6.6590   -2.3325 H         1 RES1    0.0000
      5 O3         7.1120    5.9460   -2.5246 O.3       1 RES1    0.0000
      6 H2         7.1598    6.4368   -3.1800 H         1 RES1    0.0000
      7 C1         0.2394    4.9197    2.6480 C.3       1 RES1    0.0000
      8 H3         0.4240    3.9795    2.5833 H         1 RES1    0.0000
      9 H4        -0.6826    5.0487    2.8817 H         1 RES1    0.0000
     10 H5         0.7983    5.3099    3.3239 H         1 RES1    0.0000
     11 C2         1.7776    5.4793    0.9042 C.ar      1 RES1    0.0000
     12 C3         1.9854    6.0899   -0.3049 C.ar      1 RES1    0.0000
     13 H6         1.2749    6.5075   -0.7359 H         1 RES1    0.0000
     14 C4         3.2328    6.0945   -0.8910 C.ar      1 RES1    0.0000
     15 C5         4.3373    5.4647   -0.2561 C.ar      1 RES1    0.0000
     16 C6         4.0747    4.8610    0.9650 C.ar      1 RES1    0.0000
     17 H7         4.7779    4.4441    1.4091 H         1 RES1    0.0000
     18 C7         2.8302    4.8442    1.5543 C.ar      1 RES1    0.0000
     19 H8         2.6971    4.4182    2.3701 H         1 RES1    0.0000
     20 C8         5.6927    5.4513   -0.8435 C.2       1 RES1    0.0000
     21 C9         6.8301    4.8207   -0.1129 C.3       1 RES1    0.0000
     22 H9         7.6457    4.9780   -0.5934 H         1 RES1    0.0000
     23 H10        6.6784    3.8756   -0.0396 H         1 RES1    0.0000
     24 H11        6.8972    5.2031    0.7656 H         1 RES1    0.0000
@<TRIPOS>BOND
     1    1    5 1
     2    2    7 1
     3    3    4 1
     4    5    6 1
     5    7    8 1
     6    9    7 1
     7   10    7 1
     8   11    2 1
     9   12   11 ar
    10   13   12 1
    11   14    3 1
    12   15   14 ar
    13   16   15 ar
    14   17   16 1
    15   18   11 ar
    16   19   18 1
    17   20    1 2
    18   21   20 1
    19   22   21 1
    20   23   21 1
    21   24   21 1
    22   12   14 ar
    23   15   20 1
    24   16   18 ar
@<TRIPOS>SUBSTRUCTURE
     1 RES1 1

@<TRIPOS>CRYSIN
   9.4040   14.4290    6.6130  90.0000  93.5640  90.0000  14 1

