# MOL2 file generated by ConQuest
# Please check atom types

@<TRIPOS>MOLECULE
GUXRIC
    48    49     1
SMALL
NO_CHARGES
****
Generated from CSD

@<TRIPOS>ATOM
      1 C1         5.3022    6.0315   12.0467 C.ar      1 RES1    0.0000
      2 C2         6.2790    6.4873   11.1369 C.ar      1 RES1    0.0000
      3 C3         6.5775    5.6570   10.0744 C.ar      1 RES1    0.0000
      4 H1         7.2342    5.9452    9.4663 H         1 RES1    0.0000
      5 C4         5.9714    4.4161    9.8376 C.ar      1 RES1    0.0000
      6 C5         4.9997    4.0324   10.7229 C.ar      1 RES1    0.0000
      7 H2         4.5659    3.2100   10.5864 H         1 RES1    0.0000
      8 C6         4.6238    4.8126   11.8247 C.ar      1 RES1    0.0000
      9 C7         6.9517    7.8681   11.3027 C.3       1 RES1    0.0000
     10 C8         5.8816    8.9639   11.1524 C.3       1 RES1    0.0000
     11 H3         5.5202    8.9413   10.2533 H         1 RES1    0.0000
     12 H4         6.2824    9.8313   11.3189 H         1 RES1    0.0000
     13 H5         5.1690    8.8087   11.7920 H         1 RES1    0.0000
     14 C9         7.6394    8.0031   12.6645 C.3       1 RES1    0.0000
     15 H6         6.9883    7.8659   13.3705 H         1 RES1    0.0000
     16 H7         8.0231    8.8899   12.7456 H         1 RES1    0.0000
     17 H8         8.3422    7.3392   12.7382 H         1 RES1    0.0000
     18 C10        8.0180    8.1126   10.2298 C.3       1 RES1    0.0000
     19 H9         8.7099    7.4366   10.3020 H         1 RES1    0.0000
     20 H10        8.4095    8.9916   10.3565 H         1 RES1    0.0000
     21 H11        7.6098    8.0646    9.3514 H         1 RES1    0.0000
     22 C11        6.3643    3.5918    8.6027 C.3       1 RES1    0.0000
     23 C12        7.8654    3.2857    8.6189 C.3       1 RES1    0.0000
     24 H12        8.0656    2.6891    9.3558 H         1 RES1    0.0000
     25 H13        8.3629    4.1115    8.7265 H         1 RES1    0.0000
     26 H14        8.1186    2.8628    7.7832 H         1 RES1    0.0000
     27 C13        6.0405    4.3848    7.3396 C.3       1 RES1    0.0000
     28 H15        6.2962    3.8677    6.5585 H         1 RES1    0.0000
     29 H16        6.5306    5.2211    7.3485 H         1 RES1    0.0000
     30 H17        5.0882    4.5681    7.3072 H         1 RES1    0.0000
     31 C14        5.6121    2.2638    8.5305 C.3       1 RES1    0.0000
     32 H18        5.8230    1.7300    9.3116 H         1 RES1    0.0000
     33 H19        5.8789    1.7842    7.7302 H         1 RES1    0.0000
     34 H20        4.6575    2.4330    8.5025 H         1 RES1    0.0000
     35 C15        3.4891    4.3924   12.6907 C.ar      1 RES1    0.0000
     36 C16        2.6326    3.3492   12.3356 C.ar      1 RES1    0.0000
     37 H21        2.7965    2.8278   11.5709 H         1 RES1    0.0000
     38 C17        1.5481    3.1086   13.1317 C.ar      1 RES1    0.0000
     39 C18        1.2786    3.8389   14.2680 C.ar      1 RES1    0.0000
     40 H22        0.5205    3.6800   14.8001 H         1 RES1    0.0000
     41 C19        2.1993    4.8158   14.5643 C.ar      1 RES1    0.0000
     42 H23        2.0639    5.3265   15.3424 H         1 RES1    0.0000
     43 N1         3.2686    5.0853   13.8209 N.ar      1 RES1    0.0000
     44 N2         0.6149    2.0307   12.7300 N.pl3     1 RES1    0.0000
     45 O1         5.0134    6.8037   13.1158 O.3       1 RES1    0.0000
     46 O2         0.9238    1.3290   11.7869 O.2       1 RES1    0.0000
     47 O3        -0.4183    1.9072   13.3578 O.2       1 RES1    0.0000
     48 H24        4.4631    6.3596   13.6328 H         1 RES1    0.0000
@<TRIPOS>BOND
     1    1    2 ar
     2    2    3 ar
     3    3    4 1
     4    5    3 ar
     5    6    5 ar
     6    7    6 1
     7    8    1 ar
     8    9    2 1
     9   10    9 1
    10   11   10 1
    11   12   10 1
    12   13   10 1
    13   14    9 1
    14   15   14 1
    15   16   14 1
    16   17   14 1
    17   18    9 1
    18   19   18 1
    19   20   18 1
    20   21   18 1
    21   22    5 1
    22   23   22 1
    23   24   23 1
    24   25   23 1
    25   26   23 1
    26   27   22 1
    27   28   27 1
    28   29   27 1
    29   30   27 1
    30   31   22 1
    31   32   31 1
    32   33   31 1
    33   34   31 1
    34   35    8 1
    35   36   35 ar
    36   37   36 1
    37   38   36 ar
    38   39   38 ar
    39   40   39 1
    40   41   39 ar
    41   42   41 1
    42   43   35 ar
    43   44   38 1
    44   45    1 1
    45   46   44 2
    46   47   44 2
    47   48   45 1
    48    6    8 ar
    49   41   43 ar
@<TRIPOS>SUBSTRUCTURE
     1 RES1 1

@<TRIPOS>CRYSIN
   6.0430   10.1380   15.0590  79.7060  81.9490  76.4890   2 1

