# MOL2 file generated by ConQuest
# Please check atom types

@<TRIPOS>MOLECULE
GUYNOD01
    37    39     1
SMALL
NO_CHARGES
****
Generated from CSD

@<TRIPOS>ATOM
      1 N1         3.5971    3.0947    5.4567 N.am      1 RES1    0.0000
      2 N2         4.4528    3.7710    4.5876 N.2       1 RES1    0.0000
      3 C1         5.2862    4.4552    5.3447 C.2       1 RES1    0.0000
      4 C2         5.0401    4.2212    6.7337 C.2       1 RES1    0.0000
      5 C3         3.9237    3.3305    6.7724 C.2       1 RES1    0.0000
      6 C4         2.8237    1.9911    4.9847 C.ar      1 RES1    0.0000
      7 C5         3.3580    1.1567    4.0105 C.ar      1 RES1    0.0000
      8 H1         4.1893    1.3593    3.6450 H         1 RES1    0.0000
      9 C6         2.6547    0.0199    3.6296 C.ar      1 RES1    0.0000
     10 H2         3.0611   -0.5909    2.9107 H         1 RES1    0.0000
     11 C7         1.4323   -0.2724    4.2074 C.ar      1 RES1    0.0000
     12 H3         0.9148   -1.0239    3.9237 H         1 RES1    0.0000
     13 C8         0.9037    0.5737    5.1546 C.ar      1 RES1    0.0000
     14 H4         0.0237    0.4064    5.5525 H         1 RES1    0.0000
     15 C9         1.5876    1.7178    5.5578 C.ar      1 RES1    0.0000
     16 H5         1.2060    2.3034    6.2116 H         1 RES1    0.0000
     17 C10        6.3664    5.2605    4.6885 C.3       1 RES1    0.0000
     18 H6         6.2779    6.1950    4.8754 H         1 RES1    0.0000
     19 H7         6.4499    5.0309    3.8081 H         1 RES1    0.0000
     20 H8         7.2346    5.0504    5.0690 H         1 RES1    0.0000
     21 C11        5.7450    4.7039    7.8707 C.2       1 RES1    0.0000
     22 N3         5.7371    4.1007    9.0340 N.3       1 RES1    0.0000
     23 H9         6.0213    4.4719    9.7591 H         1 RES1    0.0000
     24 O1         5.2459    2.8393    9.2658 O.3       1 RES1    0.0000
     25 H10        4.4181    2.7825    8.8186 H         1 RES1    0.0000
     26 C12        6.5507    5.9437    7.8662 C.ar      1 RES1    0.0000
     27 C13        6.0227    7.1391    7.3806 C.ar      1 RES1    0.0000
     28 H11        5.0931    7.1515    7.0002 H         1 RES1    0.0000
     29 C14        6.7512    8.3119    7.5045 C.ar      1 RES1    0.0000
     30 H12        6.3304    9.1355    7.2232 H         1 RES1    0.0000
     31 C15        8.0042    8.2986    8.1006 C.ar      1 RES1    0.0000
     32 H13        8.4164    9.1106    8.2027 H         1 RES1    0.0000
     33 C16        8.5503    7.1040    8.5470 C.ar      1 RES1    0.0000
     34 H14        9.4168    7.1231    8.9677 H         1 RES1    0.0000
     35 C17        7.8311    5.9264    8.4309 C.ar      1 RES1    0.0000
     36 H15        8.1981    5.0930    8.7545 H         1 RES1    0.0000
     37 O2         3.3016    2.8310    7.7624 O.2       1 RES1    0.0000
@<TRIPOS>BOND
     1    1    2 1
     2    2    3 2
     3    3    4 1
     4    4    5 1
     5    5    1 1
     6    6    1 1
     7    7    6 ar
     8    8    7 1
     9    9    7 ar
    10   10    9 1
    11   11    9 ar
    12   12   11 1
    13   13   11 ar
    14   14   13 1
    15   15    6 ar
    16   16   15 1
    17   17    3 1
    18   18   17 1
    19   19   17 1
    20   20   17 1
    21   21    4 2
    22   22   21 1
    23   23   22 1
    24   24   22 1
    25   25   24 1
    26   26   21 1
    27   27   26 ar
    28   28   27 1
    29   29   27 ar
    30   30   29 1
    31   31   29 ar
    32   32   31 1
    33   33   31 ar
    34   34   33 1
    35   35   26 ar
    36   36   35 1
    37   37    5 2
    38   13   15 ar
    39   33   35 ar
@<TRIPOS>SUBSTRUCTURE
     1 RES1 1

@<TRIPOS>CRYSIN
   5.9081   17.7457   14.0034  90.0000  95.7230  90.0000   9 1

