# MOL2 file generated by ConQuest
# Please check atom types

@<TRIPOS>MOLECULE
GUYSOI
    81    82     1
SMALL
NO_CHARGES
****
Generated from CSD

@<TRIPOS>ATOM
      1 O1         1.7786    1.4485   19.0227 O.2       1 RES1    0.0000
      2 O2         3.1656   -0.1019   18.6095 O.2       1 RES1    0.0000
      3 O3         1.6435    1.8693   10.1972 O.3       1 RES1    0.0000
      4 N1         0.7982    0.7195   12.8883 N.3       1 RES1    0.0000
      5 N2         2.2965    0.6510   18.2667 N.pl3     1 RES1    0.0000
      6 C1         1.1677    0.7126   14.1840 C.ar      1 RES1    0.0000
      7 C2         2.0984   -0.2154   14.6696 C.ar      1 RES1    0.0000
      8 H1         2.4815   -0.8267   14.0821 H         1 RES1    0.0000
      9 C3         2.4555   -0.2414   15.9922 C.ar      1 RES1    0.0000
     10 H2         3.0632   -0.8744   16.3010 H         1 RES1    0.0000
     11 C4         1.9080    0.6760   16.8660 C.ar      1 RES1    0.0000
     12 C5         0.9921    1.5955   16.4097 C.ar      1 RES1    0.0000
     13 H3         0.6222    2.2089   17.0010 H         1 RES1    0.0000
     14 C6         0.6223    1.6167   15.0984 C.ar      1 RES1    0.0000
     15 H4        -0.0017    2.2418   14.8071 H         1 RES1    0.0000
     16 C7        -0.2678    1.5769   12.3632 C.3       1 RES1    0.0000
     17 H5        -0.0075    2.5113   12.3789 H         1 RES1    0.0000
     18 H6        -1.0888    1.4671   12.8664 H         1 RES1    0.0000
     19 C8        -0.4229    1.0708   10.9416 C.3       1 RES1    0.0000
     20 H7        -1.0247    0.3109   10.9069 H         1 RES1    0.0000
     21 H8        -0.7639    1.7685   10.3600 H         1 RES1    0.0000
     22 C9         0.9838    0.6664   10.5350 C.3       1 RES1    0.0000
     23 H9         0.9819    0.0281    9.7912 H         1 RES1    0.0000
     24 C10        1.5409    0.0478   11.8201 C.3       1 RES1    0.0000
     25 H10        1.3862   -0.9100   11.8382 H         1 RES1    0.0000
     26 H11        2.4933    0.2149   11.9007 H         1 RES1    0.0000
     27 C11        2.9358    1.6783    9.6190 C.3       1 RES1    0.0000
     28 H12        2.8692    1.0872    8.8537 H         1 RES1    0.0000
     29 H13        3.5296    1.2692   10.2694 H         1 RES1    0.0000
     30 C12        3.4858    3.0048    9.1915 C.3       1 RES1    0.0000
     31 H14        3.5078    3.6022    9.9537 H         1 RES1    0.0000
     32 H15        2.8983    3.3942    8.5255 H         1 RES1    0.0000
     33 C13        4.8807    2.8796    8.6152 C.3       1 RES1    0.0000
     34 H16        5.4616    2.4779    9.2818 H         1 RES1    0.0000
     35 H17        4.8530    2.2842    7.8505 H         1 RES1    0.0000
     36 C14        5.4689    4.2039    8.1861 C.3       1 RES1    0.0000
     37 H18        5.4948    4.7972    8.9537 H         1 RES1    0.0000
     38 H19        4.8846    4.6051    7.5223 H         1 RES1    0.0000
     39 C15        6.8681    4.0941    7.6036 C.3       1 RES1    0.0000
     40 H20        7.4610    3.7375    8.2849 H         1 RES1    0.0000
     41 H21        6.8502    3.4611    6.8692 H         1 RES1    0.0000
     42 C16        7.4355    5.3994    7.1032 C.3       1 RES1    0.0000
     43 H22        7.4617    6.0313    7.8380 H         1 RES1    0.0000
     44 H23        6.8409    5.7597    6.4254 H         1 RES1    0.0000
     45 C17        8.8359    5.2768    6.5116 C.3       1 RES1    0.0000
     46 H24        9.4227    4.8810    7.1754 H         1 RES1    0.0000
     47 H25        8.8031    4.6767    5.7503 H         1 RES1    0.0000
     48 C18        9.4213    6.5985    6.0669 C.3       1 RES1    0.0000
     49 H26        8.8354    6.9901    5.4003 H         1 RES1    0.0000
     50 H27        9.4441    7.2002    6.8285 H         1 RES1    0.0000
     51 C19       10.8130    6.4977    5.4878 C.3       1 RES1    0.0000
     52 H28       11.4003    6.1199    6.1597 H         1 RES1    0.0000
     53 H29       10.7913    5.8806    4.7409 H         1 RES1    0.0000
     54 C20       11.4017    7.7988    5.0169 C.3       1 RES1    0.0000
     55 H30       11.4299    8.4132    5.7660 H         1 RES1    0.0000
     56 H31       10.8101    8.1803    4.3503 H         1 RES1    0.0000
     57 C21       12.7913    7.6995    4.4259 C.3       1 RES1    0.0000
     58 H32       12.7634    7.0931    3.6690 H         1 RES1    0.0000
     59 H33       13.3822    7.3117    5.0909 H         1 RES1    0.0000
     60 C22       13.3856    9.0298    3.9621 C.3       1 RES1    0.0000
     61 H34       12.7876    9.4304    3.3127 H         1 RES1    0.0000
     62 H35       13.4400    9.6299    4.7222 H         1 RES1    0.0000
     63 C23       14.7637    8.8976    3.3430 C.3       1 RES1    0.0000
     64 H36       15.3553    8.4769    3.9877 H         1 RES1    0.0000
     65 H37       14.7039    8.3124    2.5720 H         1 RES1    0.0000
     66 C24       15.3694   10.2024    2.9127 C.3       1 RES1    0.0000
     67 H38       15.4481   10.7807    3.6877 H         1 RES1    0.0000
     68 H39       14.7689   10.6332    2.2845 H         1 RES1    0.0000
     69 C25       16.7342   10.0618    2.2667 C.3       1 RES1    0.0000
     70 H40       16.6530    9.4797    1.4938 H         1 RES1    0.0000
     71 H41       17.3313    9.6288    2.8970 H         1 RES1    0.0000
     72 C26       17.3652   11.3670    1.8226 C.3       1 RES1    0.0000
     73 H42       16.7679   11.8080    1.2001 H         1 RES1    0.0000
     74 H43       17.4664   11.9454    2.5939 H         1 RES1    0.0000
     75 C27       18.7072   11.1888    1.1682 C.3       1 RES1    0.0000
     76 H44       18.5992   10.6348    0.3781 H         1 RES1    0.0000
     77 H45       19.2932   10.7165    1.7814 H         1 RES1    0.0000
     78 C28       19.3733   12.4903    0.7629 C.3       1 RES1    0.0000
     79 H46       20.2418   12.3057    0.4000 H         1 RES1    0.0000
     80 H47       19.4621   13.0575    1.5313 H         1 RES1    0.0000
     81 H48       18.8361   12.9313    0.1000 H         1 RES1    0.0000
@<TRIPOS>BOND
     1    1    5 2
     2    2    5 2
     3    3   22 1
     4    4    6 1
     5    5   11 1
     6    6    7 ar
     7    7    8 1
     8    9    7 ar
     9   10    9 1
    10   11    9 ar
    11   12   11 ar
    12   13   12 1
    13   14    6 ar
    14   15   14 1
    15   16    4 1
    16   17   16 1
    17   18   16 1
    18   19   16 1
    19   20   19 1
    20   21   19 1
    21   22   19 1
    22   23   22 1
    23   24    4 1
    24   25   24 1
    25   26   24 1
    26   27    3 1
    27   28   27 1
    28   29   27 1
    29   30   27 1
    30   31   30 1
    31   32   30 1
    32   33   30 1
    33   34   33 1
    34   35   33 1
    35   36   33 1
    36   37   36 1
    37   38   36 1
    38   39   36 1
    39   40   39 1
    40   41   39 1
    41   42   39 1
    42   43   42 1
    43   44   42 1
    44   45   42 1
    45   46   45 1
    46   47   45 1
    47   48   45 1
    48   49   48 1
    49   50   48 1
    50   51   48 1
    51   52   51 1
    52   53   51 1
    53   54   51 1
    54   55   54 1
    55   56   54 1
    56   57   54 1
    57   58   57 1
    58   59   57 1
    59   60   57 1
    60   61   60 1
    61   62   60 1
    62   63   60 1
    63   64   63 1
    64   65   63 1
    65   66   63 1
    66   67   66 1
    67   68   66 1
    68   69   66 1
    69   70   69 1
    70   71   69 1
    71   72   69 1
    72   73   72 1
    73   74   72 1
    74   75   72 1
    75   76   75 1
    76   77   75 1
    77   78   75 1
    78   79   78 1
    79   80   78 1
    80   81   78 1
    81   12   14 ar
    82   22   24 1
@<TRIPOS>SUBSTRUCTURE
     1 RES1 1

@<TRIPOS>CRYSIN
   8.2829    5.3060   31.2690  90.0000  91.8970  90.0000   4 1

