# MOL2 file generated by ConQuest
# Please check atom types

@<TRIPOS>MOLECULE
GUYSIC
    78    79     1
SMALL
NO_CHARGES
****
Generated from CSD

@<TRIPOS>ATOM
      1 N1         2.9465   13.9816  -12.0876 N.3       1 RES1    0.0000
      2 O1         3.7132   11.6325   -9.3708 O.3       1 RES1    0.0000
      3 N2         4.8697   13.5241  -17.3019 N.pl3     1 RES1    0.0000
      4 O2         5.7414   12.7333  -17.5541 O.2       1 RES1    0.0000
      5 O3         4.4098   14.2653  -18.1404 O.2       1 RES1    0.0000
      6 C1         3.3752   13.8175  -13.3399 C.ar      1 RES1    0.0000
      7 C2         4.4303   12.9393  -13.6676 C.ar      1 RES1    0.0000
      8 H1         4.8052   12.4103  -12.9986 H         1 RES1    0.0000
      9 C3         4.9117   12.8494  -14.9401 C.ar      1 RES1    0.0000
     10 H2         5.6272   12.2863  -15.1274 H         1 RES1    0.0000
     11 C4         4.3278   13.6036  -15.9640 C.ar      1 RES1    0.0000
     12 C5         3.2113   14.4110  -15.6691 C.ar      1 RES1    0.0000
     13 H3         2.7683   14.8554  -16.3523 H         1 RES1    0.0000
     14 C6         2.7862   14.5428  -14.3990 C.ar      1 RES1    0.0000
     15 H4         2.0856   15.1260  -14.2117 H         1 RES1    0.0000
     16 C7         1.9923   15.0622  -11.7160 C.3       1 RES1    0.0000
     17 H5         1.1037   14.8719  -12.0532 H         1 RES1    0.0000
     18 H6         2.2858   15.9186  -12.0650 H         1 RES1    0.0000
     19 C8         2.0026   15.0579  -10.2044 C.3       1 RES1    0.0000
     20 H7         1.8797   15.9544   -9.8590 H         1 RES1    0.0000
     21 H8         1.3030   14.4861   -9.8590 H         1 RES1    0.0000
     22 C9         3.3650   14.5236   -9.8263 C.3       1 RES1    0.0000
     23 H9         3.3527   14.1413   -8.9373 H         1 RES1    0.0000
     24 H10        4.0354   15.2237   -9.8590 H         1 RES1    0.0000
     25 C10        3.6344   13.4561  -10.8740 C.3       1 RES1    0.0000
     26 H11        4.5978   13.3810  -11.0363 H         1 RES1    0.0000
     27 C11        3.0628   12.1048  -10.5119 C.3       1 RES1    0.0000
     28 H12        2.1112   12.1833  -10.3406 H         1 RES1    0.0000
     29 H13        3.1908   11.4841  -11.2445 H         1 RES1    0.0000
     30 C12        3.2574   10.3572   -8.9807 C.3       1 RES1    0.0000
     31 H14        3.5084    9.6938   -9.6449 H         1 RES1    0.0000
     32 H15        2.2909   10.3572   -8.8957 H         1 RES1    0.0000
     33 C13        3.8976   10.0333   -7.6446 C.3       1 RES1    0.0000
     34 H16        3.7716   10.7849   -7.0464 H         1 RES1    0.0000
     35 H17        4.8538    9.9190   -7.7778 H         1 RES1    0.0000
     36 C14        3.3393    8.7746   -6.9845 C.3       1 RES1    0.0000
     37 H18        2.3749    8.8662   -6.9037 H         1 RES1    0.0000
     38 H19        3.5135    8.0143   -7.5577 H         1 RES1    0.0000
     39 C15        3.9130    8.4953   -5.6228 C.3       1 RES1    0.0000
     40 H20        4.8666    8.3512   -5.7144 H         1 RES1    0.0000
     41 H21        3.7895    9.2835   -5.0722 H         1 RES1    0.0000
     42 C16        3.3189    7.3081   -4.8980 C.3       1 RES1    0.0000
     43 H22        3.4833    6.5085   -5.4230 H         1 RES1    0.0000
     44 H23        2.3585    7.4277   -4.8343 H         1 RES1    0.0000
     45 C17        3.8720    7.1003   -3.5065 C.3       1 RES1    0.0000
     46 H24        3.7230    7.9043   -2.9850 H         1 RES1    0.0000
     47 H25        4.8308    6.9615   -3.5678 H         1 RES1    0.0000
     48 C18        3.2472    5.9123   -2.7769 C.3       1 RES1    0.0000
     49 H26        2.2920    6.0668   -2.6818 H         1 RES1    0.0000
     50 H27        3.3639    5.1127   -3.3121 H         1 RES1    0.0000
     51 C19        3.8566    5.6818   -1.3920 C.3       1 RES1    0.0000
     52 H28        4.8088    5.5291   -1.4866 H         1 RES1    0.0000
     53 H29        3.7337    6.4797   -0.8563 H         1 RES1    0.0000
     54 C20        3.2318    4.4964   -0.6731 C.3       1 RES1    0.0000
     55 H30        2.2786    4.6518   -0.5768 H         1 RES1    0.0000
     56 H31        3.3481    3.7003   -1.2130 H         1 RES1    0.0000
     57 C21        3.8413    4.2537    0.7058 C.3       1 RES1    0.0000
     58 H32        3.7020    5.0429    1.2547 H         1 RES1    0.0000
     59 H33        4.7960    4.1263    0.6065 H         1 RES1    0.0000
     60 C22        3.2574    3.0561    1.4224 C.3       1 RES1    0.0000
     61 H34        2.3022    3.1870    1.5282 H         1 RES1    0.0000
     62 H35        3.3885    2.2670    0.8741 H         1 RES1    0.0000
     63 C23        3.8771    2.8134    2.7960 C.3       1 RES1    0.0000
     64 H36        3.7819    3.6121    3.3359 H         1 RES1    0.0000
     65 H37        4.8277    2.6362    2.6937 H         1 RES1    0.0000
     66 C24        3.2113    1.6149    3.5226 C.3       1 RES1    0.0000
     67 H38        2.2643    1.8008    3.6213 H         1 RES1    0.0000
     68 H39        3.2974    0.8258    2.9672 H         1 RES1    0.0000
     69 C25        3.7952    1.3164    4.8789 C.3       1 RES1    0.0000
     70 H40        3.6733    2.0915    5.4528 H         1 RES1    0.0000
     71 H41        4.7463    1.1627    4.7868 H         1 RES1    0.0000
     72 C26        3.1601    0.1065    5.5479 C.3       1 RES1    0.0000
     73 H42        3.2938   -0.6721    4.9830 H         1 RES1    0.0000
     74 H43        2.2049    0.2540    5.6311 H         1 RES1    0.0000
     75 C27        3.7491   -0.1763    6.9506 C.3       1 RES1    0.0000
     76 H44        3.3040   -0.9340    7.3377 H         1 RES1    0.0000
     77 H45        3.6205    0.5910    7.5102 H         1 RES1    0.0000
     78 H46        4.6874   -0.3623    6.8739 H         1 RES1    0.0000
@<TRIPOS>BOND
     1    1    6 1
     2    2   27 1
     3    3    4 2
     4    5    3 2
     5    6    7 ar
     6    7    8 1
     7    9    7 ar
     8   10    9 1
     9   11    3 1
    10   12   11 ar
    11   13   12 1
    12   14    6 ar
    13   15   14 1
    14   16    1 1
    15   17   16 1
    16   18   16 1
    17   19   16 1
    18   20   19 1
    19   21   19 1
    20   22   19 1
    21   23   22 1
    22   24   22 1
    23   25    1 1
    24   26   25 1
    25   27   25 1
    26   28   27 1
    27   29   27 1
    28   30    2 1
    29   31   30 1
    30   32   30 1
    31   33   30 1
    32   34   33 1
    33   35   33 1
    34   36   33 1
    35   37   36 1
    36   38   36 1
    37   39   36 1
    38   40   39 1
    39   41   39 1
    40   42   39 1
    41   43   42 1
    42   44   42 1
    43   45   42 1
    44   46   45 1
    45   47   45 1
    46   48   45 1
    47   49   48 1
    48   50   48 1
    49   51   48 1
    50   52   51 1
    51   53   51 1
    52   54   51 1
    53   55   54 1
    54   56   54 1
    55   57   54 1
    56   58   57 1
    57   59   57 1
    58   60   57 1
    59   61   60 1
    60   62   60 1
    61   63   60 1
    62   64   63 1
    63   65   63 1
    64   66   63 1
    65   67   66 1
    66   68   66 1
    67   69   66 1
    68   70   69 1
    69   71   69 1
    70   72   69 1
    71   73   72 1
    72   74   72 1
    73   75   72 1
    74   76   75 1
    75   77   75 1
    76   78   75 1
    77    9   11 ar
    78   12   14 ar
    79   22   25 1
@<TRIPOS>SUBSTRUCTURE
     1 RES1 1

@<TRIPOS>CRYSIN
   5.1217    8.7292   59.4630  90.0000  90.0000  90.0000  19 1

