# MOL2 file generated by ConQuest
# Please check atom types

@<TRIPOS>MOLECULE
GUZCAG
    48    48     2
SMALL
NO_CHARGES
****
Generated from CSD

@<TRIPOS>ATOM
      1 O1         4.0277    1.9429   -0.2435 O.3       1 RES1    0.0000
      2 N1         2.7456    1.9366    0.3674 N.pl3     1 RES1    0.0000
      3 C1         2.4541    0.7114    0.9447 C.2       1 RES1    0.0000
      4 N2         1.6166    0.6323    1.8887 N.2       1 RES1    0.0000
      5 C2         3.1221   -0.4825    0.2479 C.2       1 RES1    0.0000
      6 O2         3.1044   -1.5714    0.7786 O.2       1 RES1    0.0000
      7 N3         3.6635   -0.2365   -0.9838 N.am      1 RES1    0.0000
      8 C3         3.9262    1.1508   -1.3928 C.3       1 RES1    0.0000
      9 H1         4.7523    1.1958   -1.8999 H         1 RES1    0.0000
     10 H2         3.2046    1.4725   -1.9547 H         1 RES1    0.0000
     11 C4         2.3291    3.2301    0.7776 C.ar      1 RES1    0.0000
     12 C5         1.0111    3.4624    1.1152 C.ar      1 RES1    0.0000
     13 H3         0.4037    2.7577    1.1476 H         1 RES1    0.0000
     14 C6         0.6006    4.7513    1.4050 C.ar      1 RES1    0.0000
     15 H4        -0.2878    4.9049    1.6367 H         1 RES1    0.0000
     16 C7         1.4737    5.8012    1.3585 C.ar      1 RES1    0.0000
     17 H5         1.1860    6.6642    1.5528 H         1 RES1    0.0000
     18 C8         2.7695    5.5652    1.0238 C.ar      1 RES1    0.0000
     19 H6         3.3668    6.2774    0.9815 H         1 RES1    0.0000
     20 C9         3.2168    4.2846    0.7457 C.ar      1 RES1    0.0000
     21 H7         4.1113    4.1376    0.5372 H         1 RES1    0.0000
     22 C10        1.1302   -0.5859    2.4227 C.ar      1 RES1    0.0000
     23 C11        0.0920   -1.2613    1.8210 C.ar      1 RES1    0.0000
     24 H8        -0.2581   -0.9495    1.0180 H         1 RES1    0.0000
     25 C12       -0.4333   -2.4022    2.4047 C.ar      1 RES1    0.0000
     26 H9        -1.1282   -2.8571    1.9862 H         1 RES1    0.0000
     27 C13        0.0635   -2.8664    3.5963 C.ar      1 RES1    0.0000
     28 H10       -0.2876   -3.6352    3.9849 H         1 RES1    0.0000
     29 C14        1.0815   -2.1819    4.2067 C.ar      1 RES1    0.0000
     30 H11        1.4266   -2.4926    5.0129 H         1 RES1    0.0000
     31 C15        1.6018   -1.0369    3.6378 C.ar      1 RES1    0.0000
     32 H12        2.2745   -0.5657    4.0755 H         1 RES1    0.0000
     33 N4         5.1403   -0.9012   -2.6326 N.ar      1 RES1    0.0000
     34 C16        4.1247   -1.2665   -1.8675 C.ar      1 RES1    0.0000
     35 C17        3.5207   -2.5091   -1.9331 C.ar      1 RES1    0.0000
     36 H13        2.8084   -2.7190   -1.3734 H         1 RES1    0.0000
     37 C18        3.9972   -3.4348   -2.8465 C.ar      1 RES1    0.0000
     38 C19        5.0634   -3.0624   -3.6395 C.ar      1 RES1    0.0000
     39 H14        5.4158   -3.6573   -4.2615 H         1 RES1    0.0000
     40 C20        5.5982   -1.8104   -3.5042 C.ar      1 RES1    0.0000
     41 H15        6.3173   -1.5778   -4.0456 H         1 RES1    0.0000
     42 C21        3.3743   -4.7981   -2.9619 C.3       1 RES1    0.0000
     43 H16        2.6516   -4.8745   -2.3342 H         1 RES1    0.0000
     44 H17        4.0341   -5.4694   -2.7718 H         1 RES1    0.0000
     45 H18        3.0385   -4.9223   -3.8529 H         1 RES1    0.0000
     46 H19        3.8324   -5.3028   -3.6387 Du        2 SUP2    0.0000
     47 H20        2.4488   -4.7080   -3.2011 Du        2 SUP2    0.0000
     48 H21        3.4444   -5.2550   -2.1199 Du        2 SUP2    0.0000
@<TRIPOS>BOND
     1    1    2 1
     2    2    3 1
     3    3    4 2
     4    4   22 1
     5    5    3 1
     6    6    5 2
     7    7    5 1
     8    8    1 1
     9    9    8 1
    10   10    8 1
    11   11    2 1
    12   12   11 ar
    13   13   12 1
    14   14   12 ar
    15   15   14 1
    16   16   14 ar
    17   17   16 1
    18   18   16 ar
    19   19   18 1
    20   20   11 ar
    21   21   20 1
    22   22   23 ar
    23   23   24 1
    24   25   23 ar
    25   26   25 1
    26   27   25 ar
    27   28   27 1
    28   29   27 ar
    29   30   29 1
    30   31   22 ar
    31   32   31 1
    32   33   34 ar
    33   34    7 1
    34   35   34 ar
    35   36   35 1
    36   37   35 ar
    37   38   37 ar
    38   39   38 1
    39   40   33 ar
    40   41   40 1
    41   42   37 1
    42   43   42 1
    43   44   42 1
    44   45   42 1
    45    7    8 1
    46   18   20 ar
    47   29   31 ar
    48   38   40 ar
@<TRIPOS>SUBSTRUCTURE
     1 RES1 1
     2 SUP2 46

@<TRIPOS>CRYSIN
  10.3512   10.5145   10.8469 116.6070 115.1470  94.5490   2 1

