# MOL2 file generated by ConQuest
# Please check atom types

@<TRIPOS>MOLECULE
GUZJAO
    61    64     1
SMALL
NO_CHARGES
****
Generated from CSD

@<TRIPOS>ATOM
      1 O1        -6.8762   -4.4806   12.8426 O.2       1 RES1    0.0000
      2 O2        -7.9564   -2.6867   13.3813 O.2       1 RES1    0.0000
      3 O3        -1.9054    3.0730   12.8745 O.3       1 RES1    0.0000
      4 O4        -0.3241    5.2414   12.4299 O.3       1 RES1    0.0000
      5 O5         3.5192   -1.3162    9.4352 O.2       1 RES1    0.0000
      6 O6         4.2532    0.4532    8.2549 O.3       1 RES1    0.0000
      7 O7         6.2837   11.2388   10.2023 O.2       1 RES1    0.0000
      8 O8         7.7157    9.7873    9.4763 O.2       1 RES1    0.0000
      9 N1        -6.9367   -3.2696   13.0266 N.pl3     1 RES1    0.0000
     10 N2         1.3402    0.4196   10.3263 N.3       1 RES1    0.0000
     11 N3         6.6011   10.0938    9.8923 N.pl3     1 RES1    0.0000
     12 C1         0.0706    5.4102   13.7981 C.3       1 RES1    0.0000
     13 H1        -0.2956    4.6779   14.3367 H         1 RES1    0.0000
     14 H2        -0.2718    6.2649   14.1336 H         1 RES1    0.0000
     15 H3         1.0483    5.4041   13.8586 H         1 RES1    0.0000
     16 C2         5.5925    9.0319   10.0517 C.ar      1 RES1    0.0000
     17 C3         4.3135    9.3783   10.4380 C.ar      1 RES1    0.0000
     18 H4         4.0696   10.2885   10.5549 H         1 RES1    0.0000
     19 C4         3.3943    8.3621   10.6505 C.ar      1 RES1    0.0000
     20 H5         2.5084    8.5754   10.9186 H         1 RES1    0.0000
     21 C5         3.7643    7.0200   10.4727 C.ar      1 RES1    0.0000
     22 C6         2.8383    5.9576   10.7414 C.1       1 RES1    0.0000
     23 C7         2.1007    5.0404   10.9747 C.1       1 RES1    0.0000
     24 C8         1.2494    3.9139   11.1964 C.ar      1 RES1    0.0000
     25 C9         1.5985    2.6358   10.6852 C.ar      1 RES1    0.0000
     26 C10        0.7413    1.5253   10.8886 C.ar      1 RES1    0.0000
     27 C11       -0.4812    1.6490   11.5872 C.ar      1 RES1    0.0000
     28 C12       -1.4349    0.6140   11.8028 C.1       1 RES1    0.0000
     29 C13       -2.3475   -0.1335   12.0315 C.1       1 RES1    0.0000
     30 C14       -3.4874   -0.9535   12.3066 C.ar      1 RES1    0.0000
     31 C15       -3.4978   -2.3170   11.9809 C.ar      1 RES1    0.0000
     32 H6        -2.7299   -2.7138   11.5855 H         1 RES1    0.0000
     33 C16       -4.6200   -3.0893   12.2322 C.ar      1 RES1    0.0000
     34 H7        -4.6313   -4.0167   12.0237 H         1 RES1    0.0000
     35 C17       -5.7227   -2.4739   12.7950 C.ar      1 RES1    0.0000
     36 C18        5.9813    7.7209    9.8307 C.ar      1 RES1    0.0000
     37 H8         6.8634    7.5192    9.5398 H         1 RES1    0.0000
     38 C19        5.0590    6.7121   10.0418 C.ar      1 RES1    0.0000
     39 H9         5.3052    5.8075    9.8944 H         1 RES1    0.0000
     40 C20        2.5440    0.8277    9.7779 C.2       1 RES1    0.0000
     41 C21        2.7262    2.1759    9.9745 C.2       1 RES1    0.0000
     42 H10        3.4673    2.6958    9.6876 H         1 RES1    0.0000
     43 C22        3.4680   -0.1407    9.1607 C.2       1 RES1    0.0000
     44 C23        5.1681   -0.4383    7.5606 C.3       1 RES1    0.0000
     45 H11        5.6631   -0.9730    8.2162 H         1 RES1    0.0000
     46 H12        5.7984    0.0901    7.0276 H         1 RES1    0.0000
     47 H13        4.6594   -1.0326    6.9711 H         1 RES1    0.0000
     48 C24        0.7481   -0.9160   10.2266 C.3       1 RES1    0.0000
     49 H14        1.0057   -1.4470   11.0085 H         1 RES1    0.0000
     50 H15        1.0695   -1.3555    9.4126 H         1 RES1    0.0000
     51 H16       -0.2281   -0.8385   10.1926 H         1 RES1    0.0000
     52 C25       -5.7417   -1.1311   13.1394 C.ar      1 RES1    0.0000
     53 H17       -6.5150   -0.7429   13.5322 H         1 RES1    0.0000
     54 C26       -4.6155   -0.3692   12.8998 C.ar      1 RES1    0.0000
     55 H18       -4.6044    0.5503   13.1365 H         1 RES1    0.0000
     56 C27       -0.7773    2.9150   12.1113 C.ar      1 RES1    0.0000
     57 C28       -3.0698    3.3980   12.0977 C.3       1 RES1    0.0000
     58 H19       -2.9485    4.2745   11.6780 H         1 RES1    0.0000
     59 H20       -3.8566    3.4221   12.6816 H         1 RES1    0.0000
     60 H21       -3.1999    2.7180   11.4030 H         1 RES1    0.0000
     61 C29        0.0653    4.0263   11.9175 C.ar      1 RES1    0.0000
@<TRIPOS>BOND
     1    1    9 2
     2    2    9 2
     3    3   56 1
     4    4   12 1
     5    5   43 2
     6    6   43 1
     7    7   11 2
     8    8   11 2
     9    9   35 1
    10   10   26 1
    11   11   16 1
    12   12   13 1
    13   14   12 1
    14   15   12 1
    15   16   17 ar
    16   17   18 1
    17   19   17 ar
    18   20   19 1
    19   21   19 ar
    20   22   21 1
    21   23   22 3
    22   24   23 1
    23   25   24 ar
    24   26   25 ar
    25   27   26 ar
    26   28   27 1
    27   29   28 3
    28   30   29 1
    29   31   30 ar
    30   32   31 1
    31   33   31 ar
    32   34   33 1
    33   35   33 ar
    34   36   16 ar
    35   37   36 1
    36   38   21 ar
    37   39   38 1
    38   40   10 1
    39   41   25 1
    40   42   41 1
    41   43   40 1
    42   44    6 1
    43   45   44 1
    44   46   44 1
    45   47   44 1
    46   48   10 1
    47   49   48 1
    48   50   48 1
    49   51   48 1
    50   52   35 ar
    51   53   52 1
    52   54   30 ar
    53   55   54 1
    54   56   27 ar
    55   57    3 1
    56   58   57 1
    57   59   57 1
    58   60   57 1
    59   61    4 1
    60   24   61 ar
    61   36   38 ar
    62   40   41 2
    63   52   54 ar
    64   56   61 ar
@<TRIPOS>SUBSTRUCTURE
     1 RES1 1

@<TRIPOS>CRYSIN
  14.0196   13.8603   12.8511  90.0000  90.7780  90.0000  14 1

