# MOL2 file generated by ConQuest
# Please check atom types

@<TRIPOS>MOLECULE
GUZKET
    31    32     1
SMALL
NO_CHARGES
****
Generated from CSD

@<TRIPOS>ATOM
      1 O1        -3.5828    1.1174   13.8732 O.2       1 RES1    0.0000
      2 O2        -2.2572    1.2690   16.7544 O.2       1 RES1    0.0000
      3 O3        -6.1260    0.5405   13.0037 O.2       1 RES1    0.0000
      4 O4        -7.5196    0.6419   14.6247 O.2       1 RES1    0.0000
      5 N1        -3.5640    2.9823   15.1837 N.am      1 RES1    0.0000
      6 N2        -6.4821    0.9790   14.0748 N.pl3     1 RES1    0.0000
      7 N3        -0.2270    1.6415   15.8095 N.am      1 RES1    0.0000
      8 C1        -4.2314    1.9421   14.5112 C.2       1 RES1    0.0000
      9 C2        -5.6526    1.9775   14.7282 C.2       1 RES1    0.0000
     10 C3        -6.2670    2.8904   15.5218 C.2       1 RES1    0.0000
     11 C4        -5.5220    3.8678   16.1632 C.2       1 RES1    0.0000
     12 C5        -4.1865    3.8889   15.9762 C.2       1 RES1    0.0000
     13 C6        -2.1100    2.9776   15.0949 C.3       1 RES1    0.0000
     14 C7        -1.5420    1.8729   15.9811 C.2       1 RES1    0.0000
     15 C8         0.5811    0.7032   16.5132 C.ar      1 RES1    0.0000
     16 C9         1.9506    0.7544   16.3081 C.ar      1 RES1    0.0000
     17 C10        2.7817   -0.1479   16.9432 C.ar      1 RES1    0.0000
     18 C11        2.2632   -1.1195   17.7644 C.ar      1 RES1    0.0000
     19 C12        0.9101   -1.1655   17.9719 C.ar      1 RES1    0.0000
     20 C13        0.0571   -0.2594   17.3573 C.ar      1 RES1    0.0000
     21 H1        -7.1892    2.8603   15.6356 H         1 RES1    0.0000
     22 H2        -5.9346    4.4959   16.7116 H         1 RES1    0.0000
     23 H3        -3.6793    4.5419   16.4023 H         1 RES1    0.0000
     24 H4         0.1615    2.1766   15.2788 H         1 RES1    0.0000
     25 H5        -1.7617    3.8371   15.3795 H         1 RES1    0.0000
     26 H6        -1.8391    2.8312   14.1755 H         1 RES1    0.0000
     27 H7         2.3107    1.3979   15.7418 H         1 RES1    0.0000
     28 H8         3.7010   -0.0972   16.8140 H         1 RES1    0.0000
     29 H9         2.8235   -1.7381   18.1736 H         1 RES1    0.0000
     30 H10        0.5571   -1.8158   18.5359 H         1 RES1    0.0000
     31 H11       -0.8588   -0.2996   17.5112 H         1 RES1    0.0000
@<TRIPOS>BOND
     1    1    8 2
     2    2   14 2
     3    3    6 2
     4    4    6 2
     5    5    8 1
     6    6    9 1
     7    7   14 1
     8    8    9 1
     9    9   10 2
    10   10   11 1
    11   11   12 2
    12   12    5 1
    13   13    5 1
    14   14   13 1
    15   15    7 1
    16   16   15 ar
    17   17   16 ar
    18   18   17 ar
    19   19   18 ar
    20   20   15 ar
    21   21   10 1
    22   22   11 1
    23   23   12 1
    24   24    7 1
    25   25   13 1
    26   26   13 1
    27   27   16 1
    28   28   17 1
    29   29   18 1
    30   30   19 1
    31   31   20 1
    32   19   20 ar
@<TRIPOS>SUBSTRUCTURE
     1 RES1 1

@<TRIPOS>CRYSIN
  12.5274    5.2831   18.4180  90.0000  96.5440  90.0000  14 1

