# MOL2 file generated by ConQuest
# Please check atom types

@<TRIPOS>MOLECULE
GUZSAW
    34    36     1
SMALL
NO_CHARGES
****
Generated from CSD

@<TRIPOS>ATOM
      1 O1        14.5487    1.4662   13.7349 O.3       1 RES1    0.0000
      2 O2        16.5085    0.3579   13.3694 O.2       1 RES1    0.0000
      3 O3        12.9358    5.5842   19.0882 O.2       1 RES1    0.0000
      4 O4        13.2574    7.3487   17.8761 O.2       1 RES1    0.0000
      5 N1        13.2124    6.1366   18.0213 N.pl3     1 RES1    0.0000
      6 C1        15.8611    1.3642   13.3823 C.2       1 RES1    0.0000
      7 C2        16.0646    2.8447   13.1088 C.3       1 RES1    0.0000
      8 C3        14.5484    2.9253   13.4919 C.3       1 RES1    0.0000
      9 H1        13.9832    3.1637   12.7010 H         1 RES1    0.0000
     10 C4        17.0415    3.5043   14.0908 C.3       1 RES1    0.0000
     11 H2        16.8030    3.2527   15.0073 H         1 RES1    0.0000
     12 H3        16.9925    4.4781   13.9964 H         1 RES1    0.0000
     13 H4        17.9546    3.2029   13.8969 H         1 RES1    0.0000
     14 C5        14.1597    3.7196   14.7015 C.ar      1 RES1    0.0000
     15 C6        13.9965    3.1384   15.9597 C.ar      1 RES1    0.0000
     16 H5        14.1186    2.2026   16.0679 H         1 RES1    0.0000
     17 C7        13.6555    3.9193   17.0531 C.ar      1 RES1    0.0000
     18 H6        13.5207    3.5282   17.9077 H         1 RES1    0.0000
     19 C8        13.5180    5.2779   16.8662 C.ar      1 RES1    0.0000
     20 C9        13.6863    5.8857   15.6331 C.ar      1 RES1    0.0000
     21 H7        13.5945    6.8264   15.5376 H         1 RES1    0.0000
     22 C10       13.9904    5.0893   14.5431 C.ar      1 RES1    0.0000
     23 H8        14.0841    5.4812   13.6823 H         1 RES1    0.0000
     24 C11       16.3914    3.2162   11.6693 C.ar      1 RES1    0.0000
     25 C12       16.4421    4.5524   11.3097 C.ar      1 RES1    0.0000
     26 H9        16.2814    5.2218   11.9638 H         1 RES1    0.0000
     27 C13       16.7243    4.9225   10.0019 C.ar      1 RES1    0.0000
     28 H10       16.7538    5.8422    9.7664 H         1 RES1    0.0000
     29 C14       16.9605    3.9635    9.0445 C.ar      1 RES1    0.0000
     30 H11       17.1573    4.2166    8.1506 H         1 RES1    0.0000
     31 C15       16.9106    2.6449    9.3943 C.ar      1 RES1    0.0000
     32 H12       17.0688    1.9804    8.7338 H         1 RES1    0.0000
     33 C16       16.6320    2.2587   10.7049 C.ar      1 RES1    0.0000
     34 H13       16.6086    1.3368   10.9343 H         1 RES1    0.0000
@<TRIPOS>BOND
     1    1    6 1
     2    2    6 2
     3    3    5 2
     4    4    5 2
     5    5   19 1
     6    6    7 1
     7    7    8 1
     8    8    1 1
     9    9    8 1
    10   10    7 1
    11   11   10 1
    12   12   10 1
    13   13   10 1
    14   14    8 1
    15   15   14 ar
    16   16   15 1
    17   17   15 ar
    18   18   17 1
    19   19   17 ar
    20   20   19 ar
    21   21   20 1
    22   22   14 ar
    23   23   22 1
    24   24    7 1
    25   25   24 ar
    26   26   25 1
    27   27   25 ar
    28   28   27 1
    29   29   27 ar
    30   30   29 1
    31   31   29 ar
    32   32   31 1
    33   33   24 ar
    34   34   33 1
    35   20   22 ar
    36   31   33 ar
@<TRIPOS>SUBSTRUCTURE
     1 RES1 1

@<TRIPOS>CRYSIN
  24.6054    7.0101   15.5516  90.0000  90.0000  90.0000  56 1

