# MOL2 file generated by ConQuest
# Please check atom types

@<TRIPOS>MOLECULE
GUZSEA
    41    44     1
SMALL
NO_CHARGES
****
Generated from CSD

@<TRIPOS>ATOM
      1 O1         0.0257    3.8851   15.4943 O.3       1 RES1    0.0000
      2 O2        -2.0891    3.3106   14.8673 O.2       1 RES1    0.0000
      3 O3         6.1247    3.7178   11.4583 O.2       1 RES1    0.0000
      4 O4         4.8054    5.2254   10.6527 O.2       1 RES1    0.0000
      5 N1         5.0802    4.3611   11.4796 N.pl3     1 RES1    0.0000
      6 C1        -0.9229    3.0722   14.9604 C.2       1 RES1    0.0000
      7 C2         0.0164    1.9116   14.6374 C.3       1 RES1    0.0000
      8 C3         1.0929    2.8802   15.2707 C.3       1 RES1    0.0000
      9 H1         1.4554    2.5232   16.1322 H         1 RES1    0.0000
     10 C4         2.1780    3.3860   14.3751 C.ar      1 RES1    0.0000
     11 C5         1.9629    4.4491   13.5042 C.ar      1 RES1    0.0000
     12 H2         1.1501    4.9390   13.5473 H         1 RES1    0.0000
     13 C6         2.9301    4.7965   12.5753 C.ar      1 RES1    0.0000
     14 H3         2.7929    5.5240   11.9805 H         1 RES1    0.0000
     15 C7         4.0969    4.0627   12.5331 C.ar      1 RES1    0.0000
     16 C8         4.3632    3.0336   13.4159 C.ar      1 RES1    0.0000
     17 H4         5.1891    2.5656   13.3863 H         1 RES1    0.0000
     18 C9         3.3926    2.7047   14.3444 C.ar      1 RES1    0.0000
     19 H5         3.5558    2.0066   14.9678 H         1 RES1    0.0000
     20 C10        0.2149    1.6600   13.1520 C.ar      1 RES1    0.0000
     21 C11       -0.4626    2.4070   12.1910 C.ar      1 RES1    0.0000
     22 H6        -1.1482    3.0094   12.4551 H         1 RES1    0.0000
     23 C12       -0.1379    2.2739   10.8452 C.ar      1 RES1    0.0000
     24 H7        -0.6088    2.7794   10.1921 H         1 RES1    0.0000
     25 C13        0.8684    1.4087   10.4535 C.ar      1 RES1    0.0000
     26 H8         1.1044    1.3370    9.5368 H         1 RES1    0.0000
     27 C14        1.5319    0.6461   11.4062 C.ar      1 RES1    0.0000
     28 H9         2.2155    0.0434   11.1380 H         1 RES1    0.0000
     29 C15        1.1990    0.7626   12.7488 C.ar      1 RES1    0.0000
     30 H10        1.6447    0.2279   13.3945 H         1 RES1    0.0000
     31 C16       -0.3230    0.6703   15.4518 C.ar      1 RES1    0.0000
     32 C17       -1.6441    0.2155   15.4579 C.ar      1 RES1    0.0000
     33 H11       -2.3011    0.6674   14.9416 H         1 RES1    0.0000
     34 C18       -2.0028   -0.8912   16.2120 C.ar      1 RES1    0.0000
     35 H12       -2.9032   -1.1949   16.2078 H         1 RES1    0.0000
     36 C19       -1.0571   -1.5562   16.9711 C.ar      1 RES1    0.0000
     37 H13       -1.3061   -2.3105   17.4920 H         1 RES1    0.0000
     38 C20        0.2553   -1.1143   16.9652 C.ar      1 RES1    0.0000
     39 H14        0.9084   -1.5715   17.4822 H         1 RES1    0.0000
     40 C21        0.6254   -0.0072   16.2091 C.ar      1 RES1    0.0000
     41 H15        1.5287    0.2865   16.2110 H         1 RES1    0.0000
@<TRIPOS>BOND
     1    1    6 1
     2    2    6 2
     3    3    5 2
     4    4    5 2
     5    5   15 1
     6    6    7 1
     7    7    8 1
     8    8    1 1
     9    9    8 1
    10   10    8 1
    11   11   10 ar
    12   12   11 1
    13   13   11 ar
    14   14   13 1
    15   15   13 ar
    16   16   15 ar
    17   17   16 1
    18   18   10 ar
    19   19   18 1
    20   20    7 1
    21   21   20 ar
    22   22   21 1
    23   23   21 ar
    24   24   23 1
    25   25   23 ar
    26   26   25 1
    27   27   25 ar
    28   28   27 1
    29   29   20 ar
    30   30   29 1
    31   31    7 1
    32   32   31 ar
    33   33   32 1
    34   34   32 ar
    35   35   34 1
    36   36   34 ar
    37   37   36 1
    38   38   36 ar
    39   39   38 1
    40   40   31 ar
    41   41   40 1
    42   16   18 ar
    43   27   29 ar
    44   38   40 ar
@<TRIPOS>SUBSTRUCTURE
     1 RES1 1

@<TRIPOS>CRYSIN
   9.5125   10.8526   16.4229  90.0000  90.0000  90.0000  19 1

