# MOL2 file generated by ConQuest
# Please check atom types

@<TRIPOS>MOLECULE
GUZWII
    38    42     1
SMALL
NO_CHARGES
****
Generated from CSD

@<TRIPOS>ATOM
      1 C1         4.0720    2.5855    3.5099 C.3       1 RES1    0.0000
      2 C2         4.3289    3.3945    2.2340 C.3       1 RES1    0.0000
      3 H1         3.4683    3.6579    1.8205 H         1 RES1    0.0000
      4 H2         4.8365    4.2169    2.4501 H         1 RES1    0.0000
      5 C3         3.2564    1.3256    3.2257 C.3       1 RES1    0.0000
      6 H3         2.3840    1.5857    2.8109 H         1 RES1    0.0000
      7 C4         4.0627    0.4712    2.2205 C.3       1 RES1    0.0000
      8 H4         3.5472   -0.3560    1.9980 H         1 RES1    0.0000
      9 C5         2.9878    0.5344    4.5086 C.3       1 RES1    0.0000
     10 H5         2.4538    1.0849    5.1349 H         1 RES1    0.0000
     11 H6         2.4698   -0.2820    4.2951 H         1 RES1    0.0000
     12 C6         4.3277    1.2691    0.9402 C.3       1 RES1    0.0000
     13 H7         4.8313    0.7095    0.2971 H         1 RES1    0.0000
     14 H8         3.4670    1.5231    0.5209 H         1 RES1    0.0000
     15 C7         4.3121    0.1489    5.1632 C.3       1 RES1    0.0000
     16 H9         4.1328   -0.3625    6.0037 H         1 RES1    0.0000
     17 N1         3.2620    3.5376    4.3993 N.pl3     1 RES1    0.0000
     18 O1         3.8663    4.2918    5.1343 O.2       1 RES1    0.0000
     19 O2         2.0462    3.5343    4.2822 O.2       1 RES1    0.0000
     20 C1A        5.3693    0.0869    2.9208 C.3       1 RES1    0.0000
     21 C2A        5.1123   -0.7221    4.1967 C.3       1 RES1    0.0000
     22 H1A        5.9729   -0.9855    4.6102 H         1 RES1    0.0000
     23 H2A        4.6048   -1.5445    3.9806 H         1 RES1    0.0000
     24 C3A        6.1848    1.3468    3.2051 C.3       1 RES1    0.0000
     25 H3A        7.0573    1.0867    3.6199 H         1 RES1    0.0000
     26 C4A        5.3786    2.2012    4.2102 C.3       1 RES1    0.0000
     27 H4A        5.8941    3.0284    4.4327 H         1 RES1    0.0000
     28 C5A        6.4534    2.1380    1.9221 C.3       1 RES1    0.0000
     29 H5A        6.9875    1.5875    1.2958 H         1 RES1    0.0000
     30 H6A        6.9715    2.9544    2.1357 H         1 RES1    0.0000
     31 C6A        5.1136    1.4033    5.4906 C.3       1 RES1    0.0000
     32 H7A        4.6099    1.9629    6.1336 H         1 RES1    0.0000
     33 H8A        5.9743    1.1493    5.9099 H         1 RES1    0.0000
     34 C7A        5.1291    2.5235    1.2675 C.3       1 RES1    0.0000
     35 H9A        5.3085    3.0350    0.4270 H         1 RES1    0.0000
     36 N1A        6.1793   -0.8652    2.0315 N.pl3     1 RES1    0.0000
     37 O1A        5.5749   -1.6194    1.2964 O.2       1 RES1    0.0000
     38 O2A        7.3950   -0.8619    2.1485 O.2       1 RES1    0.0000
@<TRIPOS>BOND
     1    1    2 1
     2    2    3 1
     3    4    2 1
     4    5    1 1
     5    6    5 1
     6    7    5 1
     7    8    7 1
     8    9    5 1
     9   10    9 1
    10   11    9 1
    11   12    7 1
    12   13   12 1
    13   14   12 1
    14   15    9 1
    15   16   15 1
    16   17    1 1
    17   18   17 2
    18   19   17 2
    19   20    7 1
    20   21   15 1
    21   22   21 1
    22   23   21 1
    23   24   20 1
    24   25   24 1
    25   26    1 1
    26   27   26 1
    27   28   24 1
    28   29   28 1
    29   30   28 1
    30   31   15 1
    31   32   31 1
    32   33   31 1
    33   34    2 1
    34   35   34 1
    35   36   20 1
    36   37   36 2
    37   38   36 2
    38   12   34 1
    39   20   21 1
    40   24   26 1
    41   26   31 1
    42   28   34 1
@<TRIPOS>SUBSTRUCTURE
     1 RES1 1

@<TRIPOS>CRYSIN
   6.6756    7.2541    7.4930  64.6100  68.3400  77.3600   2 1

