# MOL2 file generated by ConQuest
# Please check atom types

@<TRIPOS>MOLECULE
HABFAS01
    37    39     1
SMALL
NO_CHARGES
****
Generated from CSD

@<TRIPOS>ATOM
      1 O1        -1.6048    7.2039    4.6577 O.2       1 RES1    0.0000
      2 O2        -1.0469    5.7146    3.2112 O.2       1 RES1    0.0000
      3 N1         3.0295   11.4416   -1.5070 N.ar      1 RES1    0.0000
      4 N2         4.3914   14.2313    1.2986 N.ar      1 RES1    0.0000
      5 N3         1.9317   11.9057    1.1484 N.2       1 RES1    0.0000
      6 N4         1.5631   10.7345    0.5698 N.pl3     1 RES1    0.0000
      7 H1         1.9785   10.5195   -0.2634 H         1 RES1    0.0000
      8 N5        -1.0774    6.8756    3.6077 N.pl3     1 RES1    0.0000
      9 C1         3.4471   11.3440   -2.7697 C.ar      1 RES1    0.0000
     10 H2         3.3666   10.5195   -3.1934 H         1 RES1    0.0000
     11 C2         3.9882   12.3842   -3.4822 C.ar      1 RES1    0.0000
     12 H3         4.2599   12.2694   -4.3640 H         1 RES1    0.0000
     13 C3         4.1166   13.5946   -2.8575 C.ar      1 RES1    0.0000
     14 H4         4.4811   14.3202   -3.3094 H         1 RES1    0.0000
     15 C4         3.7018   13.7247   -1.5579 C.ar      1 RES1    0.0000
     16 H5         3.7795   14.5437   -1.1226 H         1 RES1    0.0000
     17 C5         3.1646   12.6302   -0.8924 C.ar      1 RES1    0.0000
     18 C6         2.6800   12.7431    0.4968 C.2       1 RES1    0.0000
     19 C7         4.7791   15.2337    2.0874 C.ar      1 RES1    0.0000
     20 H6         5.6808   15.4618    2.0891 H         1 RES1    0.0000
     21 C8         3.9378   15.9502    2.8954 C.ar      1 RES1    0.0000
     22 H7         4.2624   16.6409    3.4281 H         1 RES1    0.0000
     23 C9         2.6076   15.6257    2.8989 C.ar      1 RES1    0.0000
     24 H8         2.0071   16.0967    3.4307 H         1 RES1    0.0000
     25 C10        2.1750   14.5941    2.1062 C.ar      1 RES1    0.0000
     26 H9         1.2755   14.3556    2.0961 H         1 RES1    0.0000
     27 C11        3.0827   13.9114    1.3242 C.ar      1 RES1    0.0000
     28 C12        0.8577    9.8186    1.3175 C.ar      1 RES1    0.0000
     29 C13        0.3286   10.1348    2.5627 C.ar      1 RES1    0.0000
     30 H10        0.4105   10.9973    2.8977 H         1 RES1    0.0000
     31 C14       -0.3155    9.1709    3.2978 C.ar      1 RES1    0.0000
     32 H11       -0.6670    9.3779    4.1338 H         1 RES1    0.0000
     33 C15       -0.4393    7.8981    2.7945 C.ar      1 RES1    0.0000
     34 C16        0.0357    7.5760    1.5434 C.ar      1 RES1    0.0000
     35 H12       -0.0767    6.7188    1.2029 H         1 RES1    0.0000
     36 C17        0.6770    8.5370    0.8071 C.ar      1 RES1    0.0000
     37 H13        0.9949    8.3315   -0.0419 H         1 RES1    0.0000
@<TRIPOS>BOND
     1    1    8 2
     2    2    8 2
     3    3    9 ar
     4    4   19 ar
     5    5    6 1
     6    6    7 1
     7    8   33 1
     8    9   10 1
     9   11    9 ar
    10   12   11 1
    11   13   11 ar
    12   14   13 1
    13   15   13 ar
    14   16   15 1
    15   17    3 ar
    16   18    5 2
    17   19   20 1
    18   21   19 ar
    19   22   21 1
    20   23   21 ar
    21   24   23 1
    22   25   23 ar
    23   26   25 1
    24   27    4 ar
    25   28    6 1
    26   29   28 ar
    27   30   29 1
    28   31   29 ar
    29   32   31 1
    30   33   31 ar
    31   34   33 ar
    32   35   34 1
    33   36   28 ar
    34   37   36 1
    35   15   17 ar
    36   17   18 1
    37   18   27 1
    38   25   27 ar
    39   34   36 ar
@<TRIPOS>SUBSTRUCTURE
     1 RES1 1

@<TRIPOS>CRYSIN
   7.9415   22.1230    8.9747  90.0000 103.6060  90.0000  14 1

