# MOL2 file generated by ConQuest
# Please check atom types

@<TRIPOS>MOLECULE
HABNIH01
    54    55     2
SMALL
NO_CHARGES
****
Generated from CSD

@<TRIPOS>ATOM
      1 O1        -2.6026   -0.6196   10.1769 O.2       1 RES1    0.0000
      2 O2         3.7073   -0.1695   16.2522 O.3       1 RES1    0.0000
      3 O3         3.8973    2.6427    5.2959 O.3       1 RES1    0.0000
      4 N1         1.2079    2.6786   10.9386 N.2       1 RES1    0.0000
      5 O4         1.2907    3.0190   12.1217 O.2       1 RES1    0.0000
      6 C1        -0.5932   -0.5791   11.4925 C.3       1 RES1    0.0000
      7 H1        -1.2011   -0.8254   12.2203 H         1 RES1    0.0000
      8 C2         0.1428    0.7224   11.9125 C.3       1 RES1    0.0000
      9 H2        -0.5358    1.3110   12.3029 H         1 RES1    0.0000
     10 N2         0.7052    1.4440   10.7485 N.3       1 RES1    0.0000
     11 C3         0.1447    1.3724    9.3655 C.3       1 RES1    0.0000
     12 H3        -0.5486    2.0624    9.3143 H         1 RES1    0.0000
     13 C4        -0.5614    0.0240    9.0806 C.3       1 RES1    0.0000
     14 H4        -1.1518    0.1535    8.3097 H         1 RES1    0.0000
     15 C5         0.3615   -1.1729    8.7703 C.3       1 RES1    0.0000
     16 H5        -0.1796   -1.9208    8.4703 H         1 RES1    0.0000
     17 H6         0.9609   -0.9310    8.0459 H         1 RES1    0.0000
     18 C6         1.1820   -1.6045    9.9696 C.3       1 RES1    0.0000
     19 H7         1.8581   -0.9332   10.1515 H         1 RES1    0.0000
     20 H8         1.6361   -2.4370    9.7639 H         1 RES1    0.0000
     21 C7         0.3198   -1.7978   11.2091 C.3       1 RES1    0.0000
     22 H9         0.8949   -1.9481   11.9749 H         1 RES1    0.0000
     23 H10       -0.2319   -2.5873   11.0918 H         1 RES1    0.0000
     24 C8        -1.4208   -0.3737   10.2558 C.2       1 RES1    0.0000
     25 C9         1.1819    1.7298    8.3161 C.ar      1 RES1    0.0000
     26 C10        0.7501    2.3807    7.1781 C.ar      1 RES1    0.0000
     27 H11       -0.1470    2.6134    7.1033 H         1 RES1    0.0000
     28 C11        1.6167    2.6985    6.1395 C.ar      1 RES1    0.0000
     29 H12        1.2996    3.1263    5.3762 H         1 RES1    0.0000
     30 C12        2.9492    2.3737    6.2507 C.ar      1 RES1    0.0000
     31 C13        3.4017    1.7427    7.3987 C.ar      1 RES1    0.0000
     32 H13        4.3042    1.5332    7.4794 H         1 RES1    0.0000
     33 C14        2.5350    1.4205    8.4210 C.ar      1 RES1    0.0000
     34 H14        2.8554    0.9953    9.1836 H         1 RES1    0.0000
     35 C15        1.1710    0.4729   12.9987 C.ar      1 RES1    0.0000
     36 C16        0.7449    0.5605   14.3224 C.ar      1 RES1    0.0000
     37 H15       -0.1409    0.7807   14.5001 H         1 RES1    0.0000
     38 C17        1.6027    0.3299   15.3770 C.ar      1 RES1    0.0000
     39 H16        1.2928    0.3931   16.2524 H         1 RES1    0.0000
     40 C18        2.9220    0.0056   15.1332 C.ar      1 RES1    0.0000
     41 C19        3.3728   -0.0664   13.8297 C.ar      1 RES1    0.0000
     42 H17        4.2633   -0.2733   13.6584 H         1 RES1    0.0000
     43 C20        2.4996    0.1694   12.7756 C.ar      1 RES1    0.0000
     44 H18        2.8159    0.1220   11.9015 H         1 RES1    0.0000
     45 C21        3.4639    3.2656    4.0941 C.3       1 RES1    0.0000
     46 H19        2.8122    2.7092    3.6629 H         1 RES1    0.0000
     47 H20        4.2148    3.3920    3.5092 H         1 RES1    0.0000
     48 H21        3.0713    4.1183    4.2982 H         1 RES1    0.0000
     49 C22        5.0052   -0.6817   16.0671 C.3       1 RES1    0.0000
     50 H22        4.9537   -1.5332   15.6263 H         1 RES1    0.0000
     51 H23        5.4318   -0.7873   16.9199 H         1 RES1    0.0000
     52 H24        5.5152   -0.0730   15.5277 H         1 RES1    0.0000
     53 N3         1.1670    2.5840   11.2868 Du        2 SUP2    0.0000
     54 O5         1.2723    3.5150   10.4886 Du        2 SUP2    0.0000
@<TRIPOS>BOND
     1    1   24 2
     2    2   40 1
     3    3   30 1
     4    4    5 2
     5    6    7 1
     6    8    6 1
     7    9    8 1
     8   10    4 1
     9   11   10 1
    10   12   11 1
    11   13   11 1
    12   14   13 1
    13   15   13 1
    14   16   15 1
    15   17   15 1
    16   18   15 1
    17   19   18 1
    18   20   18 1
    19   21    6 1
    20   22   21 1
    21   23   21 1
    22   24    6 1
    23   25   11 1
    24   26   25 ar
    25   27   26 1
    26   28   26 ar
    27   29   28 1
    28   30   28 ar
    29   31   30 ar
    30   32   31 1
    31   33   25 ar
    32   34   33 1
    33   35    8 1
    34   36   35 ar
    35   37   36 1
    36   38   36 ar
    37   39   38 1
    38   40   38 ar
    39   41   40 ar
    40   42   41 1
    41   43   35 ar
    42   44   43 1
    43   45    3 1
    44   46   45 1
    45   47   45 1
    46   48   45 1
    47   49    2 1
    48   50   49 1
    49   51   49 1
    50   52   49 1
    51    8   10 1
    52   13   24 1
    53   18   21 1
    54   31   33 ar
    55   41   43 ar
@<TRIPOS>SUBSTRUCTURE
     1 RES1 1
     2 SUP2 53

@<TRIPOS>CRYSIN
   7.5779   10.8891   22.9360  90.0000  90.0000  90.0000  19 1

