# MOL2 file generated by ConQuest
# Please check atom types

@<TRIPOS>MOLECULE
HABRUX
    31    32     1
SMALL
NO_CHARGES
****
Generated from CSD

@<TRIPOS>ATOM
      1 O1         6.6755    1.3427    3.9209 O.3       1 RES1    0.0000
      2 N1         6.1619    2.1159    2.8652 N.2       1 RES1    0.0000
      3 C1         6.6527    1.5823    1.7845 C.2       1 RES1    0.0000
      4 C2         7.4874    0.4792    2.0598 C.2       1 RES1    0.0000
      5 C3         7.4483    0.3674    3.3986 C.2       1 RES1    0.0000
      6 C4         6.2068    2.0596    0.4473 C.2       1 RES1    0.0000
      7 O2         6.7246    1.6678   -0.5724 O.2       1 RES1    0.0000
      8 N2         5.1571    2.9071    0.4974 N.am      1 RES1    0.0000
      9 C5         4.3394    3.2688   -0.6209 C.ar      1 RES1    0.0000
     10 C6         4.7943    4.1877   -1.5593 C.ar      1 RES1    0.0000
     11 C7         3.9198    4.5448   -2.5822 C.ar      1 RES1    0.0000
     12 C8         2.6462    4.0007   -2.6557 C.ar      1 RES1    0.0000
     13 C9         2.2241    3.0969   -1.7141 C.ar      1 RES1    0.0000
     14 C10        3.0687    2.7098   -0.6788 C.ar      1 RES1    0.0000
     15 C11        2.6053    1.7044    0.3347 C.3       1 RES1    0.0000
     16 C12        6.1624    4.7938   -1.4655 C.3       1 RES1    0.0000
     17 C13        8.0051   -0.6051    4.3683 C.3       1 RES1    0.0000
     18 H1         7.9675   -0.0470    1.4076 H         1 RES1    0.0000
     19 H2         4.8218    3.1194    1.3607 H         1 RES1    0.0000
     20 H3         4.2494    5.1865   -3.2531 H         1 RES1    0.0000
     21 H4         2.0395    4.2657   -3.4095 H         1 RES1    0.0000
     22 H5         1.2865    2.7060   -1.7517 H         1 RES1    0.0000
     23 H6         2.6430    2.0295    1.2356 H         1 RES1    0.0000
     24 H7         1.7526    1.3624    0.1877 H         1 RES1    0.0000
     25 H8         3.2321    0.8550    0.2815 H         1 RES1    0.0000
     26 H9         6.3256    5.1207   -0.5474 H         1 RES1    0.0000
     27 H10        6.2165    5.5060   -2.1270 H         1 RES1    0.0000
     28 H11        6.8717    4.1436   -1.6735 H         1 RES1    0.0000
     29 H12        8.5809   -1.2215    3.8787 H         1 RES1    0.0000
     30 H13        7.3751   -1.1181    4.8171 H         1 RES1    0.0000
     31 H14        8.5434   -0.1691    5.0517 H         1 RES1    0.0000
@<TRIPOS>BOND
     1    1    2 1
     2    2    3 2
     3    3    4 1
     4    4    5 2
     5    5    1 1
     6    6    3 1
     7    7    6 2
     8    8    6 1
     9    9    8 1
    10   10    9 ar
    11   11   10 ar
    12   12   11 ar
    13   13   12 ar
    14   14    9 ar
    15   15   14 1
    16   16   10 1
    17   17    5 1
    18   18    4 1
    19   19    8 1
    20   20   11 1
    21   21   12 1
    22   22   13 1
    23   23   15 1
    24   24   15 1
    25   25   15 1
    26   26   16 1
    27   27   16 1
    28   28   16 1
    29   29   17 1
    30   30   17 1
    31   31   17 1
    32   13   14 ar
@<TRIPOS>SUBSTRUCTURE
     1 RES1 1

@<TRIPOS>CRYSIN
   8.1070    9.4820   15.6400  90.0000  90.0000  97.7300  14 4

