# MOL2 file generated by ConQuest
# Please check atom types

@<TRIPOS>MOLECULE
HABTAF
    12    11     1
SMALL
NO_CHARGES
****
Generated from CSD

@<TRIPOS>ATOM
      1 O1         3.4056   10.0216    6.9853 O.2       1 RES1    0.0000
      2 O2         0.6554    8.0475    6.1317 O.3       1 RES1    0.0000
      3 N1         1.2330   10.5195    6.5259 N.am      1 RES1    0.0000
      4 N2         2.0266    8.3678    6.2290 N.am      1 RES1    0.0000
      5 C1         2.2576    9.6623    6.6292 C.2       1 RES1    0.0000
      6 C2         2.7893    7.2612    6.7839 C.3       1 RES1    0.0000
      7 H1         0.4893    7.9522    5.3146 H         1 RES1    0.0000
      8 H2         1.3585   11.3439    6.7485 H         1 RES1    0.0000
      9 H3         0.5101   10.1892    6.3539 H         1 RES1    0.0000
     10 H4         2.8315    6.5520    6.2092 H         1 RES1    0.0000
     11 H5         3.6903    7.5478    6.8972 H         1 RES1    0.0000
     12 H6         2.3786    6.9681    7.6483 H         1 RES1    0.0000
@<TRIPOS>BOND
     1    1    5 2
     2    2    4 1
     3    3    5 1
     4    4    5 1
     5    6    4 1
     6    7    2 1
     7    8    3 1
     8    9    3 1
     9   10    6 1
    10   11    6 1
    11   12    6 1
@<TRIPOS>SUBSTRUCTURE
     1 RES1 1

@<TRIPOS>CRYSIN
   5.2049   23.3750   13.1550  90.0000  90.0000  90.0000  43 1

