# MOL2 file generated by ConQuest
# Please check atom types

@<TRIPOS>MOLECULE
HABZIT
    32    32     1
SMALL
NO_CHARGES
****
Generated from CSD

@<TRIPOS>ATOM
      1 C1         5.7379    2.5039    3.3741 C.3       1 RES1    0.0000
      2 C2         6.0430    2.1015    4.8331 C.2       1 RES1    0.0000
      3 C3         6.4121    3.1734    5.8171 C.3       1 RES1    0.0000
      4 C4         5.3047    3.4105    6.8414 C.3       1 RES1    0.0000
      5 C5         4.0283    4.0107    6.2935 C.3       1 RES1    0.0000
      6 C6         3.2582    3.1107    5.3204 C.3       1 RES1    0.0000
      7 C7         3.3925    3.4672    3.8553 C.3       1 RES1    0.0000
      8 C8         4.7958    3.6982    3.2996 C.3       1 RES1    0.0000
      9 C9         5.3206    1.2884    2.5640 C.3       1 RES1    0.0000
     10 C10        4.9878    1.5780    1.0957 C.3       1 RES1    0.0000
     11 C11        4.6893    0.3432    0.3849 C.1       1 RES1    0.0000
     12 O1         5.9396    0.9482    5.1795 O.2       1 RES1    0.0000
     13 O2         8.0826    2.4212    3.3291 O.2       1 RES1    0.0000
     14 O3         7.1587    3.7851    1.9789 O.2       1 RES1    0.0000
     15 N1         7.1080    2.9478    2.8418 N.pl3     1 RES1    0.0000
     16 N2         4.4805   -0.6279   -0.1599 N.1       1 RES1    0.0000
     17 H1         7.2116    2.9080    6.2796 H         1 RES1    0.0000
     18 H2         6.5751    3.9902    5.3406 H         1 RES1    0.0000
     19 H3         5.6464    4.0059    7.5134 H         1 RES1    0.0000
     20 H4         5.0872    2.5666    7.2434 H         1 RES1    0.0000
     21 H5         3.4494    4.2097    7.0354 H         1 RES1    0.0000
     22 H6         4.2518    4.8232    5.8357 H         1 RES1    0.0000
     23 H7         2.3278    3.1535    5.5501 H         1 RES1    0.0000
     24 H8         3.5761    2.2119    5.4352 H         1 RES1    0.0000
     25 H9         3.0007    2.7512    3.3493 H         1 RES1    0.0000
     26 H10        2.8919    4.2731    3.7094 H         1 RES1    0.0000
     27 H11        5.1938    4.4190    3.7932 H         1 RES1    0.0000
     28 H12        4.7115    3.9510    2.3777 H         1 RES1    0.0000
     29 H13        6.0408    0.6539    2.5857 H         1 RES1    0.0000
     30 H14        4.5435    0.9060    2.9768 H         1 RES1    0.0000
     31 H15        5.7397    2.0068    0.6798 H         1 RES1    0.0000
     32 H16        4.2234    2.1582    1.0554 H         1 RES1    0.0000
@<TRIPOS>BOND
     1    1    2 1
     2    2    3 1
     3    3    4 1
     4    4    5 1
     5    5    6 1
     6    6    7 1
     7    7    8 1
     8    8    1 1
     9    9    1 1
    10   10    9 1
    11   11   10 1
    12   12    2 2
    13   13   15 2
    14   14   15 2
    15   15    1 1
    16   16   11 3
    17   17    3 1
    18   18    3 1
    19   19    4 1
    20   20    4 1
    21   21    5 1
    22   22    5 1
    23   23    6 1
    24   24    6 1
    25   25    7 1
    26   26    7 1
    27   27    8 1
    28   28    8 1
    29   29    9 1
    30   30    9 1
    31   31   10 1
    32   32   10 1
@<TRIPOS>SUBSTRUCTURE
     1 RES1 1

@<TRIPOS>CRYSIN
  12.5900    6.0320   16.7170  90.0000 111.8100  90.0000  14 2

