# MOL2 file generated by ConQuest
# Please check atom types

@<TRIPOS>MOLECULE
HACHUQ
    58    62     1
SMALL
NO_CHARGES
****
Generated from CSD

@<TRIPOS>ATOM
      1 N1        -2.6368    1.6161   16.4078 N.2       1 RES1    0.0000
      2 O1         0.3532    2.7049   13.6775 O.2       1 RES1    0.0000
      3 C1        -2.1152   -0.7601    9.9643 C.ar      1 RES1    0.0000
      4 H1        -2.6999   -1.4625    9.7891 H         1 RES1    0.0000
      5 C2        -2.1486    4.6055   13.6460 C.ar      1 RES1    0.0000
      6 N2        -0.4435    1.7844   13.6081 N.pl3     1 RES1    0.0000
      7 O2        -0.1353    0.6239   13.7006 O.2       1 RES1    0.0000
      8 O3        -1.5600    3.6433   11.5198 O.3       1 RES1    0.0000
      9 C3        -5.0362    1.3358   16.3000 C.ar      1 RES1    0.0000
     10 C4        -1.7678    4.7302   12.3408 C.ar      1 RES1    0.0000
     11 C5        -1.8740    2.1177   13.4101 C.3       1 RES1    0.0000
     12 H2        -2.2254    0.9727   13.6960 H         1 RES1    0.0000
     13 C6        -2.3184    3.2627   14.3105 C.3       1 RES1    0.0000
     14 H3        -1.7275    3.2676   15.0713 H         1 RES1    0.0000
     15 C7        -3.7583    1.9369   15.9009 C.2       1 RES1    0.0000
     16 C8        -2.2798    5.7642   14.3822 C.ar      1 RES1    0.0000
     17 H4        -2.5308    5.7042   15.2752 H         1 RES1    0.0000
     18 C9        -1.6805    1.3244   11.0195 C.ar      1 RES1    0.0000
     19 C10       -0.8614   -0.7825    9.4395 C.ar      1 RES1    0.0000
     20 H5        -0.5874   -1.4957    8.9099 H         1 RES1    0.0000
     21 C11       -5.0722    0.5958   17.4689 C.ar      1 RES1    0.0000
     22 C12       -2.1268    2.4172   11.9418 C.3       1 RES1    0.0000
     23 H6        -3.1077    2.4756   11.8940 H         1 RES1    0.0000
     24 C13       -3.7239    2.9683   14.8006 C.3       1 RES1    0.0000
     25 H7        -4.1241    3.7899   15.1256 H         1 RES1    0.0000
     26 H8        -4.2586    2.6530   14.0554 H         1 RES1    0.0000
     27 C14       -2.5277    0.2834   10.7483 C.ar      1 RES1    0.0000
     28 H9        -3.3893    0.2855   11.0984 H         1 RES1    0.0000
     29 C15       -2.0508    7.0018   13.8380 C.ar      1 RES1    0.0000
     30 H10       -2.1592    7.7691   14.3524 H         1 RES1    0.0000
     31 C16       -1.4067    1.0134   18.3672 C.3       1 RES1    0.0000
     32 H11       -1.5860    1.8618   18.7803 H         1 RES1    0.0000
     33 H12       -0.6145    1.0802   17.8292 H         1 RES1    0.0000
     34 H13       -1.2767    0.3470   19.0466 H         1 RES1    0.0000
     35 C17       -6.1886    1.4271   15.5508 C.ar      1 RES1    0.0000
     36 H14       -6.1990    1.9574   14.7814 H         1 RES1    0.0000
     37 C18       -2.3101   -0.7210   16.8488 C.3       1 RES1    0.0000
     38 H15       -1.4999   -0.6750   16.3359 H         1 RES1    0.0000
     39 H16       -3.0423   -0.9482   16.2699 H         1 RES1    0.0000
     40 H17       -2.2207   -1.3918   17.5298 H         1 RES1    0.0000
     41 C19       -2.5758    0.6217   17.4957 C.3       1 RES1    0.0000
     42 C20       -1.5100    5.9649   11.7760 C.ar      1 RES1    0.0000
     43 H18       -1.2357    6.0267   10.8898 H         1 RES1    0.0000
     44 C21       -0.0092    0.2514    9.6963 C.ar      1 RES1    0.0000
     45 H19        0.8492    0.2427    9.3377 H         1 RES1    0.0000
     46 C22       -1.6613    7.0959   12.5299 C.ar      1 RES1    0.0000
     47 H20       -1.4996    7.9307   12.1532 H         1 RES1    0.0000
     48 C23       -0.4116    1.3117   10.4847 C.ar      1 RES1    0.0000
     49 H21        0.1725    2.0149   10.6541 H         1 RES1    0.0000
     50 C24       -3.8471    0.6017   18.3126 C.3       1 RES1    0.0000
     51 H22       -3.8474   -0.1870   18.8769 H         1 RES1    0.0000
     52 H23       -3.8639    1.3809   18.8899 H         1 RES1    0.0000
     53 C25       -6.2207   -0.0607   17.8358 C.ar      1 RES1    0.0000
     54 H24       -6.2113   -0.5709   18.6153 H         1 RES1    0.0000
     55 C26       -7.3421    0.0258   17.0666 C.ar      1 RES1    0.0000
     56 H25       -8.1233   -0.4500   17.2764 H         1 RES1    0.0000
     57 C27       -7.3350    0.7748   15.9317 C.ar      1 RES1    0.0000
     58 H26       -8.1042    0.8563   15.3495 H         1 RES1    0.0000
@<TRIPOS>BOND
     1    1   15 2
     2    2    6 2
     3    3    4 1
     4    5   10 ar
     5    6    7 2
     6    8   10 1
     7    9   15 1
     8   10   42 ar
     9   11    6 1
    10   12   11 1
    11   13    5 1
    12   14   13 1
    13   15   24 1
    14   16    5 ar
    15   17   16 1
    16   18   22 1
    17   19    3 ar
    18   20   19 1
    19   21    9 ar
    20   22    8 1
    21   23   22 1
    22   24   13 1
    23   25   24 1
    24   26   24 1
    25   27    3 ar
    26   28   27 1
    27   29   16 ar
    28   30   29 1
    29   31   32 1
    30   33   31 1
    31   34   31 1
    32   35    9 ar
    33   36   35 1
    34   37   38 1
    35   39   37 1
    36   40   37 1
    37   41    1 1
    38   42   43 1
    39   44   19 ar
    40   45   44 1
    41   46   29 ar
    42   47   46 1
    43   48   18 ar
    44   49   48 1
    45   50   21 1
    46   51   50 1
    47   52   50 1
    48   53   21 ar
    49   54   53 1
    50   55   53 ar
    51   56   55 1
    52   57   35 ar
    53   58   57 1
    54   11   13 1
    55   11   22 1
    56   18   27 ar
    57   31   41 1
    58   37   41 1
    59   41   50 1
    60   42   46 ar
    61   44   48 ar
    62   55   57 ar
@<TRIPOS>SUBSTRUCTURE
     1 RES1 1

@<TRIPOS>CRYSIN
   9.8255    9.8304   12.2545  93.8610 104.2970 101.4450   2 1

