# MOL2 file generated by ConQuest
# Please check atom types

@<TRIPOS>MOLECULE
HACJIE
    42    44     1
SMALL
NO_CHARGES
****
Generated from CSD

@<TRIPOS>ATOM
      1 C1         3.3017    7.8412    5.8380 C.ar      1 RES1    0.0000
      2 C2         3.5752    8.7435    6.8516 C.ar      1 RES1    0.0000
      3 C3         4.3738    8.3389    7.9110 C.ar      1 RES1    0.0000
      4 N1         2.3082    8.1798    4.8289 N.pl3     1 RES1    0.0000
      5 O1         1.4277    7.3105    4.5979 O.2       1 RES1    0.0000
      6 N2         2.3728    9.3526    4.3485 N.2       1 RES1    0.0000
      7 C4         1.3149    9.6708    3.4458 C.ar      1 RES1    0.0000
      8 C5         0.4473   10.7288    3.7318 C.ar      1 RES1    0.0000
      9 N3         0.4891   11.3617    5.0497 N.pl3     1 RES1    0.0000
     10 O2         0.7901   10.6822    6.0256 O.2       1 RES1    0.0000
     11 O3         0.1952   12.5470    5.1184 O.2       1 RES1    0.0000
     12 C6        -0.4656   11.1947    2.8017 C.ar      1 RES1    0.0000
     13 C7        -0.5388   10.5822    1.5650 C.ar      1 RES1    0.0000
     14 C8         0.3111    9.5276    1.2630 C.ar      1 RES1    0.0000
     15 C9         1.2323    9.0742    2.1931 C.ar      1 RES1    0.0000
     16 C10        3.8429    6.5638    5.8632 C.ar      1 RES1    0.0000
     17 C11        4.6344    6.1627    6.9237 C.ar      1 RES1    0.0000
     18 C12        4.8946    7.0570    7.9499 C.ar      1 RES1    0.0000
     19 N4         3.6689    5.6627    4.7226 N.pl3     1 RES1    0.0000
     20 O4         3.8937    6.1422    3.5839 O.2       1 RES1    0.0000
     21 N5         3.3804    4.4672    5.0486 N.2       1 RES1    0.0000
     22 C13        3.2744    3.4990    4.0190 C.ar      1 RES1    0.0000
     23 C14        3.6190    2.1830    4.3588 C.ar      1 RES1    0.0000
     24 N6         4.2453    1.8842    5.6527 N.pl3     1 RES1    0.0000
     25 O5         5.0506    2.6830    6.1183 O.2       1 RES1    0.0000
     26 O6         3.9368    0.8273    6.1938 O.2       1 RES1    0.0000
     27 C15        3.4119    1.1148    3.5053 C.ar      1 RES1    0.0000
     28 C16        2.8447    1.3512    2.2698 C.ar      1 RES1    0.0000
     29 C17        2.4868    2.6399    1.9060 C.ar      1 RES1    0.0000
     30 C18        2.6999    3.7115    2.7640 C.ar      1 RES1    0.0000
     31 H1         3.1520    9.6139    6.8413 H         1 RES1    0.0000
     32 H2         4.5249    8.9321    8.6145 H         1 RES1    0.0000
     33 H3        -1.0266   11.9436    3.0317 H         1 RES1    0.0000
     34 H4        -1.1724   10.9094    0.9267 H         1 RES1    0.0000
     35 H5         0.2847    9.1253    0.3890 H         1 RES1    0.0000
     36 H6         1.8171    8.3525    1.9677 H         1 RES1    0.0000
     37 H7         5.0024    5.3070    6.9214 H         1 RES1    0.0000
     38 H8         5.4333    6.8070    8.6717 H         1 RES1    0.0000
     39 H9         3.6848    0.2273    3.8096 H         1 RES1    0.0000
     40 H10        2.6949    0.5909    1.6703 H         1 RES1    0.0000
     41 H11        2.1212    2.7955    1.0639 H         1 RES1    0.0000
     42 H12        2.4140    4.5797    2.4482 H         1 RES1    0.0000
@<TRIPOS>BOND
     1    1    2 ar
     2    2    3 ar
     3    3   18 ar
     4    4    1 1
     5    5    4 2
     6    6    4 2
     7    7    6 1
     8    8    7 ar
     9    9    8 1
    10   10    9 2
    11   11    9 2
    12   12    8 ar
    13   13   12 ar
    14   14   13 ar
    15   15    7 ar
    16   16    1 ar
    17   17   16 ar
    18   18   17 ar
    19   19   16 1
    20   20   19 2
    21   21   19 2
    22   22   21 1
    23   23   22 ar
    24   24   23 1
    25   25   24 2
    26   26   24 2
    27   27   23 ar
    28   28   27 ar
    29   29   28 ar
    30   30   22 ar
    31   31    2 1
    32   32    3 1
    33   33   12 1
    34   34   13 1
    35   35   14 1
    36   36   15 1
    37   37   17 1
    38   38   18 1
    39   39   27 1
    40   40   28 1
    41   41   29 1
    42   42   30 1
    43   14   15 ar
    44   29   30 ar
@<TRIPOS>SUBSTRUCTURE
     1 RES1 1

@<TRIPOS>CRYSIN
  13.7150   11.3640   11.6340  90.0000 100.4700  90.0000  14 1

