# MOL2 file generated by ConQuest
# Please check atom types

@<TRIPOS>MOLECULE
HACNUW
    46    49     1
SMALL
NO_CHARGES
****
Generated from CSD

@<TRIPOS>ATOM
      1 C1         1.1827   11.9515   11.9727 C.ar      1 RES1    0.0000
      2 C2         0.5264   14.5652   12.6464 C.ar      1 RES1    0.0000
      3 H1         0.3020   15.4414   12.8647 H         1 RES1    0.0000
      4 C3        -0.0397   12.2471   12.5547 C.ar      1 RES1    0.0000
      5 H2        -0.6521   11.5655   12.7171 H         1 RES1    0.0000
      6 C4        -0.3549   13.5492   12.8970 C.ar      1 RES1    0.0000
      7 H3        -1.1719   13.7352   13.3017 H         1 RES1    0.0000
      8 C5         2.0502   12.9847   11.7425 C.ar      1 RES1    0.0000
      9 H4         2.8737   12.8030   11.3520 H         1 RES1    0.0000
     10 C6         1.7374   14.2889   12.0748 C.ar      1 RES1    0.0000
     11 H5         2.3456   14.9727   11.9111 H         1 RES1    0.0000
     12 C7         1.5936   10.5452   11.6046 C.3       1 RES1    0.0000
     13 H6         2.0351   10.5667   10.7305 H         1 RES1    0.0000
     14 C8         2.5531    9.9184   12.6234 C.3       1 RES1    0.0000
     15 H7         3.4176    9.7227   12.2289 H         1 RES1    0.0000
     16 H8         2.6734   10.4860   13.4010 H         1 RES1    0.0000
     17 N1         0.4512    9.6076   11.5342 N.3       1 RES1    0.0000
     18 O1         0.4283    9.1098   12.9067 O.3       1 RES1    0.0000
     19 C9         1.7999    8.6583   12.9665 C.3       1 RES1    0.0000
     20 H9         2.0508    8.2701   13.8296 H         1 RES1    0.0000
     21 C10        0.9150    8.3776   10.8304 C.3       1 RES1    0.0000
     22 H10        1.3975    8.6131   10.0096 H         1 RES1    0.0000
     23 C11        1.8505    7.6766   11.8194 C.3       1 RES1    0.0000
     24 H11        1.5130    6.8036   12.0757 H         1 RES1    0.0000
     25 H12        2.7480    7.5842   11.4627 H         1 RES1    0.0000
     26 O2         0.1811    6.3563    9.8487 O.3       1 RES1    0.0000
     27 C12       -0.3074    7.5648   10.5063 C.3       1 RES1    0.0000
     28 H13       -0.7917    7.3412   11.3151 H         1 RES1    0.0000
     29 H14       -0.8982    8.0594    9.9160 H         1 RES1    0.0000
     30 C13       -0.6383    5.3210    9.8501 C.2       1 RES1    0.0000
     31 O3        -1.7488    5.3285   10.3036 O.2       1 RES1    0.0000
     32 C14        1.1629    4.1867    8.5089 C.ar      1 RES1    0.0000
     33 H15        1.6297    4.9887    8.4430 H         1 RES1    0.0000
     34 C15        1.0076    1.8235    8.0205 C.ar      1 RES1    0.0000
     35 H16        1.3511    1.0537    7.6257 H         1 RES1    0.0000
     36 C16       -0.1546    1.8073    8.7385 C.ar      1 RES1    0.0000
     37 C17       -0.0235    4.1254    9.2096 C.ar      1 RES1    0.0000
     38 C18        1.6465    3.0459    7.9104 C.ar      1 RES1    0.0000
     39 C19       -0.6834    2.9201    9.3183 C.ar      1 RES1    0.0000
     40 H17       -1.4853    2.8675    9.7854 H         1 RES1    0.0000
     41 N2         2.8665    3.1115    7.0873 N.pl3     1 RES1    0.0000
     42 O4         3.4446    4.1781    7.0323 O.2       1 RES1    0.0000
     43 O5         3.2365    2.1105    6.5101 O.2       1 RES1    0.0000
     44 N3        -0.8723    0.5258    8.8923 N.pl3     1 RES1    0.0000
     45 O6        -1.9660    0.5387    9.4216 O.2       1 RES1    0.0000
     46 O7        -0.3261   -0.4827    8.4646 O.2       1 RES1    0.0000
@<TRIPOS>BOND
     1    1    4 ar
     2    2    3 1
     3    4    5 1
     4    6    2 ar
     5    7    6 1
     6    8    1 ar
     7    9    8 1
     8   10    2 ar
     9   11   10 1
    10   12    1 1
    11   13   12 1
    12   14   12 1
    13   15   14 1
    14   16   14 1
    15   17   12 1
    16   18   17 1
    17   19   14 1
    18   20   19 1
    19   21   17 1
    20   22   21 1
    21   23   19 1
    22   24   23 1
    23   25   23 1
    24   26   27 1
    25   27   21 1
    26   28   27 1
    27   29   27 1
    28   30   26 1
    29   31   30 2
    30   32   33 1
    31   34   35 1
    32   36   34 ar
    33   37   30 1
    34   38   32 ar
    35   39   36 ar
    36   40   39 1
    37   41   38 1
    38   42   41 2
    39   43   41 2
    40   44   36 1
    41   45   44 2
    42   46   44 2
    43    4    6 ar
    44    8   10 ar
    45   18   19 1
    46   21   23 1
    47   32   37 ar
    48   34   38 ar
    49   37   39 ar
@<TRIPOS>SUBSTRUCTURE
     1 RES1 1

@<TRIPOS>CRYSIN
   6.0158   10.7516   28.3800  90.0000  90.0000  90.0000  19 1

