# MOL2 file generated by ConQuest
# Please check atom types

@<TRIPOS>MOLECULE
HACPOS
    26    26     1
SMALL
NO_CHARGES
****
Generated from CSD

@<TRIPOS>ATOM
      1 O1         3.2322    0.3868   12.8619 O.3       1 RES1    0.0000
      2 O2         5.7971    2.4916    9.3978 O.2       1 RES1    0.0000
      3 N1         3.9688   -0.1982   11.7975 N.2       1 RES1    0.0000
      4 N2         5.2493    0.3868    9.9950 N.am      1 RES1    0.0000
      5 H1         5.3402   -0.4683    9.8078 H         1 RES1    0.0000
      6 C1         1.5332    0.0291   14.4665 C.ar      1 RES1    0.0000
      7 C2         0.5021    0.8566   14.0653 C.ar      1 RES1    0.0000
      8 H2         0.3431    0.9923   13.1382 H         1 RES1    0.0000
      9 C3        -0.2995    1.4888   14.9912 C.ar      1 RES1    0.0000
     10 H3        -1.0015    2.0566   14.6970 H         1 RES1    0.0000
     11 C4        -0.0923    1.3058   16.3320 C.ar      1 RES1    0.0000
     12 H4        -0.6437    1.7465   16.9677 H         1 RES1    0.0000
     13 C5         0.9048    0.4921   16.7401 C.ar      1 RES1    0.0000
     14 H5         1.0500    0.3549   17.6688 H         1 RES1    0.0000
     15 C6         1.7162   -0.1439   15.8168 C.ar      1 RES1    0.0000
     16 H6         2.4144   -0.7108   16.1234 H         1 RES1    0.0000
     17 C7         2.4203   -0.6331   13.4593 C.3       1 RES1    0.0000
     18 H7         2.9911   -1.3106   13.9009 H         1 RES1    0.0000
     19 H8         1.8750   -1.0848   12.7676 H         1 RES1    0.0000
     20 C8         4.5039    0.7365   11.1029 C.2       1 RES1    0.0000
     21 H9         4.3905    1.6479   11.3452 H         1 RES1    0.0000
     22 C9         5.8511    1.2882    9.1768 C.2       1 RES1    0.0000
     23 C10        6.5725    0.7318    7.9888 C.3       1 RES1    0.0000
     24 H10        7.4787    1.1038    7.9533 H         1 RES1    0.0000
     25 H11        6.0887    0.9709    7.1705 H         1 RES1    0.0000
     26 H12        6.6236   -0.2439    8.0644 H         1 RES1    0.0000
@<TRIPOS>BOND
     1    1    3 1
     2    2   22 2
     3    3   20 2
     4    4    5 1
     5    6    7 ar
     6    7    8 1
     7    9    7 ar
     8   10    9 1
     9   11    9 ar
    10   12   11 1
    11   13   11 ar
    12   14   13 1
    13   15    6 ar
    14   16   15 1
    15   17    1 1
    16   18   17 1
    17   19   17 1
    18   20    4 1
    19   21   20 1
    20   22    4 1
    21   23   22 1
    22   24   23 1
    23   25   23 1
    24   26   23 1
    25    6   17 1
    26   13   15 ar
@<TRIPOS>SUBSTRUCTURE
     1 RES1 1

@<TRIPOS>CRYSIN
  16.0446    4.7640   13.4292  90.0000  94.8870  90.0000  14 1

