# MOL2 file generated by ConQuest
# Please check atom types

@<TRIPOS>MOLECULE
HACPEG
    57    58     1
SMALL
NO_CHARGES
****
Generated from CSD

@<TRIPOS>ATOM
      1 C1        -1.2809    9.7029   11.3332 C.3       1 RES1    0.0000
      2 C2        -1.1214    9.4982    9.8284 C.3       1 RES1    0.0000
      3 C3         0.3478    9.5152    9.4189 C.3       1 RES1    0.0000
      4 O1         0.8916   10.8392    9.7774 O.3       1 RES1    0.0000
      5 C4         0.5859    9.3062    7.9345 C.3       1 RES1    0.0000
      6 C5         2.0390    9.1000    7.5465 C.3       1 RES1    0.0000
      7 C6         2.2625    8.9163    6.0316 C.3       1 RES1    0.0000
      8 C7         3.7633    8.8250    5.7480 C.3       1 RES1    0.0000
      9 C8        -1.9838   10.4985    9.0614 C.3       1 RES1    0.0000
     10 C9         1.4782    7.7214    5.5241 C.ar      1 RES1    0.0000
     11 C10        0.2071    7.8572    4.9657 C.ar      1 RES1    0.0000
     12 C11       -0.5592    6.7507    4.5956 C.ar      1 RES1    0.0000
     13 C12       -0.0488    5.4717    4.7838 C.ar      1 RES1    0.0000
     14 O2        -0.7056    4.3048    4.4951 O.3       1 RES1    0.0000
     15 C13        1.2283    5.3150    5.3155 C.ar      1 RES1    0.0000
     16 C14        1.9716    6.4199    5.6818 C.ar      1 RES1    0.0000
     17 C15       -1.9520    4.3996    3.8121 C.3       1 RES1    0.0000
     18 C16        2.3724   12.3294   10.7938 C.ar      1 RES1    0.0000
     19 C17        3.6466   12.5750   11.2950 C.ar      1 RES1    0.0000
     20 C18        4.0160   13.8910   11.5278 C.ar      1 RES1    0.0000
     21 N1         5.3869   14.1490   12.0213 N.pl3     1 RES1    0.0000
     22 O3         6.2208   13.2619   11.8992 O.2       1 RES1    0.0000
     23 O4         5.6042   15.2494   12.4944 O.2       1 RES1    0.0000
     24 C19        3.1765   14.9594   11.3001 C.ar      1 RES1    0.0000
     25 C20        1.9261   14.6738   10.7951 C.ar      1 RES1    0.0000
     26 N2         1.0201   15.7834   10.4631 N.pl3     1 RES1    0.0000
     27 O5         1.4605   16.9250   10.5509 O.2       1 RES1    0.0000
     28 O6        -0.1138   15.4968   10.1121 O.2       1 RES1    0.0000
     29 C21        1.4971   13.3781   10.5407 C.ar      1 RES1    0.0000
     30 C22        1.9902   10.9040   10.5293 C.2       1 RES1    0.0000
     31 O7         2.6295    9.9635   10.9343 O.2       1 RES1    0.0000
     32 H1        -1.0506   10.6506   11.5748 H         1 RES1    0.0000
     33 H2        -0.7012    9.1269   11.8292 H         1 RES1    0.0000
     34 H3        -2.2434    9.5767   11.6003 H         1 RES1    0.0000
     35 H4        -1.4261    8.6374    9.6033 H         1 RES1    0.0000
     36 H5         0.8403    8.8733    9.9594 H         1 RES1    0.0000
     37 H6         0.0573    8.5227    7.6699 H         1 RES1    0.0000
     38 H7         0.1870   10.0905    7.4537 H         1 RES1    0.0000
     39 H8         2.4251    8.3198    8.0261 H         1 RES1    0.0000
     40 H9         2.5390    9.8281    7.8607 H         1 RES1    0.0000
     41 H10        1.8729    9.7465    5.5457 H         1 RES1    0.0000
     42 H11        4.1725    8.0927    6.2708 H         1 RES1    0.0000
     43 H12        3.9463    8.6969    4.8207 H         1 RES1    0.0000
     44 H13        4.2635    9.6164    6.0291 H         1 RES1    0.0000
     45 H14       -1.6814   11.4004    9.2217 H         1 RES1    0.0000
     46 H15       -1.9285   10.3309    8.0388 H         1 RES1    0.0000
     47 H16       -2.9253   10.4478    9.3362 H         1 RES1    0.0000
     48 H17       -0.1929    8.7234    4.8207 H         1 RES1    0.0000
     49 H18       -1.4020    6.8645    4.2483 H         1 RES1    0.0000
     50 H19        1.5891    4.5205    5.4058 H         1 RES1    0.0000
     51 H20        2.8836    6.2360    6.0545 H         1 RES1    0.0000
     52 H21       -1.7848    4.8667    2.9255 H         1 RES1    0.0000
     53 H22       -2.6306    4.9835    4.4137 H         1 RES1    0.0000
     54 H23       -2.2799    3.5502    3.6887 H         1 RES1    0.0000
     55 H24        4.2817   11.8723   11.4731 H         1 RES1    0.0000
     56 H25        3.4400   15.8767   11.4476 H         1 RES1    0.0000
     57 H26        0.6209   13.1953   10.1884 H         1 RES1    0.0000
@<TRIPOS>BOND
     1    1    2 1
     2    2    3 1
     3    3    4 1
     4    4   30 1
     5    5    3 1
     6    6    5 1
     7    7    6 1
     8    8    7 1
     9    9    2 1
    10   10    7 1
    11   11   10 ar
    12   12   11 ar
    13   13   12 ar
    14   14   13 1
    15   15   13 ar
    16   16   10 ar
    17   17   14 1
    18   18   19 ar
    19   19   20 ar
    20   20   21 1
    21   21   22 2
    22   23   21 2
    23   24   20 ar
    24   25   24 ar
    25   26   25 1
    26   27   26 2
    27   28   26 2
    28   29   18 ar
    29   30   18 1
    30   31   30 2
    31   32    1 1
    32   33    1 1
    33   34    1 1
    34   35    2 1
    35   36    3 1
    36   37    5 1
    37   38    5 1
    38   39    6 1
    39   40    6 1
    40   41    7 1
    41   42    8 1
    42   43    8 1
    43   44    8 1
    44   45    9 1
    45   46    9 1
    46   47    9 1
    47   48   11 1
    48   49   12 1
    49   50   15 1
    50   51   16 1
    51   52   17 1
    52   53   17 1
    53   54   17 1
    54   55   19 1
    55   56   24 1
    56   57   29 1
    57   15   16 ar
    58   25   29 ar
@<TRIPOS>SUBSTRUCTURE
     1 RES1 1

@<TRIPOS>CRYSIN
   7.7950   22.0510   13.3230  90.0000 107.3100  90.0000  14 1

