# MOL2 file generated by ConQuest
# Please check atom types

@<TRIPOS>MOLECULE
HACQEJ
    81    55     2
SMALL
NO_CHARGES
****
Generated from CSD

@<TRIPOS>ATOM
      1 O1        10.3707   -4.3328    2.0580 O.2       1 RES1    0.0000
      2 O2        13.4836   -1.9906    4.9064 O.3       1 RES1    0.0000
      3 O3         5.0537    0.2070    1.9667 O.2       1 RES1    0.0000
      4 O4         8.3262    1.1433    5.2302 O.3       1 RES1    0.0000
      5 N1         8.0417   -1.6980    2.1734 N.ar      1 RES1    0.0000
      6 N2        10.5401   -2.2847    3.0372 N.am      1 RES1    0.0000
      7 H1        10.1532   -1.5031    3.1563 H         1 RES1    0.0000
      8 N3        12.2273   -1.5645    4.4306 N.2       1 RES1    0.0000
      9 N4         6.7894    0.2539    3.4459 N.am      1 RES1    0.0000
     10 H2         7.5328   -0.1548    3.6808 H         1 RES1    0.0000
     11 N5         7.0657    1.8334    5.1595 N.2       1 RES1    0.0000
     12 C1         8.6802   -2.7238    1.5704 C.ar      1 RES1    0.0000
     13 C2         8.2329   -3.3129    0.3959 C.ar      1 RES1    0.0000
     14 H3         8.7042   -4.0441    0.0137 H         1 RES1    0.0000
     15 C3         7.0866   -2.8171   -0.2116 C.ar      1 RES1    0.0000
     16 H4         6.7722   -3.1842   -1.0308 H         1 RES1    0.0000
     17 C4         6.4158   -1.7836    0.3977 C.ar      1 RES1    0.0000
     18 H5         5.6349   -1.4199   -0.0046 H         1 RES1    0.0000
     19 C5         6.8810   -1.2763    1.5936 C.ar      1 RES1    0.0000
     20 C6         9.9352   -3.1891    2.2363 C.2       1 RES1    0.0000
     21 C7        11.7584   -2.5323    3.6904 C.2       1 RES1    0.0000
     22 H6        12.2159   -3.3598    3.5987 H         1 RES1    0.0000
     23 C8        13.9496   -0.9624    5.8245 C.3       1 RES1    0.0000
     24 H7        13.6031   -0.0827    5.5372 H         1 RES1    0.0000
     25 H8        14.9425   -0.9237    5.7926 H         1 RES1    0.0000
     26 C9        13.4995   -1.2478    7.2521 C.ar      1 RES1    0.0000
     27 C10       14.0667   -2.1618    8.1142 C.ar      1 RES1    0.0000
     28 H9        14.7932   -2.7011    7.8268 H         1 RES1    0.0000
     29 C11       13.5794   -2.2924    9.4004 C.ar      1 RES1    0.0000
     30 H10       13.9703   -2.9211    9.9934 H         1 RES1    0.0000
     31 C12       12.5222   -1.5089    9.8200 C.ar      1 RES1    0.0000
     32 H11       12.1904   -1.5984   10.7049 H         1 RES1    0.0000
     33 C13       11.9581   -0.5949    8.9534 C.ar      1 RES1    0.0000
     34 H12       11.2315   -0.0561    9.2453 H         1 RES1    0.0000
     35 C14       12.4453   -0.4643    7.6718 C.ar      1 RES1    0.0000
     36 H13       12.0543    0.1644    7.0788 H         1 RES1    0.0000
     37 C15        6.1498   -0.2099    2.3385 C.2       1 RES1    0.0000
     38 C16        6.3824    1.2918    4.2236 C.2       1 RES1    0.0000
     39 H14        5.5169    1.6448    4.0594 H         1 RES1    0.0000
     40 C17        9.1334    1.8378    6.2761 C.3       1 RES1    0.0000
     41 H15        9.0201    2.8196    6.2076 H         1 RES1    0.0000
     42 H16       10.0983    1.6279    6.1620 H         1 RES1    0.0000
     43 C18        8.6163    1.3155    7.6900 C.ar      1 RES1    0.0000
     44 C19        7.8121    0.2273    7.8907 C.ar      1 RES1    0.0000
     45 H17        7.4957   -0.2728    7.1427 H         1 RES1    0.0000
     46 C20        7.4650   -0.1451    9.1587 C.ar      1 RES1    0.0000
     47 H18        6.9066   -0.9029    9.2955 H         1 RES1    0.0000
     48 C21        7.9209    0.5707   10.2305 C.ar      1 RES1    0.0000
     49 H19        7.6790    0.3139   11.1154 H         1 RES1    0.0000
     50 C22        8.7250    1.6637   10.0344 C.ar      1 RES1    0.0000
     51 H20        9.0415    2.1609   10.7779 H         1 RES1    0.0000
     52 C23        9.0722    2.0361    8.7619 C.ar      1 RES1    0.0000
     53 H21        9.6306    2.7905    8.6250 H         1 RES1    0.0000
     54 C24       14.2872   -2.1957    7.7630 Du        2 SUP2    0.0000
     55 C25       14.0755   -2.6164    9.0766 Du        2 SUP2    0.0000
     56 C26       13.0586   -2.0361    9.8428 Du        2 SUP2    0.0000
     57 C27       12.2535   -1.0301    9.2909 Du        2 SUP2    0.0000
     58 C28       12.4652   -0.6094    7.9774 Du        2 SUP2    0.0000
     59 C29        8.9361    1.4509    6.3490 Du        2 SUP2    0.0000
     60 C30        8.6557    1.2671    7.6763 Du        2 SUP2    0.0000
     61 C31        7.4877    0.5272    7.8998 Du        2 SUP2    0.0000
     62 C32        7.1198    0.1693    9.2134 Du        2 SUP2    0.0000
     63 C33        7.9299    0.5562   10.2944 Du        2 SUP2    0.0000
     64 C34        9.0981    1.2961   10.0663 Du        2 SUP2    0.0000
     65 C35        9.4649    1.6540    8.7573 Du        2 SUP2    0.0000
     66 C36       13.9873   -0.9818    5.8747 Du        2 SUP2    0.0000
     67 C37       13.4821   -1.1897    7.2111 Du        2 SUP2    0.0000
     68 H22       14.9732   -2.5937    7.2430 Du        2 SUP2    0.0000
     69 H23       14.6158   -3.3008    9.4551 Du        2 SUP2    0.0000
     70 H24       12.9101   -2.3205   10.7368 Du        2 SUP2    0.0000
     71 H25       11.5656   -0.6316    9.8109 Du        2 SUP2    0.0000
     72 H26       11.9229    0.0754    7.5988 Du        2 SUP2    0.0000
     73 H27        9.0740    2.4293    6.2715 Du        2 SUP2    0.0000
     74 H28        9.8325    1.0504    6.2396 Du        2 SUP2    0.0000
     75 H29        6.9374    0.2684    7.1700 Du        2 SUP2    0.0000
     76 H30        6.3267   -0.3294    9.3639 Du        2 SUP2    0.0000
     77 H31        7.6821    0.3144   11.1792 Du        2 SUP2    0.0000
     78 H32        9.6472    1.5563   10.8007 Du        2 SUP2    0.0000
     79 H33       10.2579    2.1541    8.6068 Du        2 SUP2    0.0000
     80 H34       14.9749   -1.0132    5.8929 Du        2 SUP2    0.0000
     81 H35       13.7184   -0.0774    5.5691 Du        2 SUP2    0.0000
@<TRIPOS>BOND
     1    1   20 2
     2    2    8 1
     3    3   37 2
     4    4   11 1
     5    5   12 ar
     6    6    7 1
     7    8   21 2
     8    9   10 1
     9   11   38 2
    10   12   13 ar
    11   13   14 1
    12   15   13 ar
    13   16   15 1
    14   17   15 ar
    15   18   17 1
    16   19    5 ar
    17   20    6 1
    18   21    6 1
    19   22   21 1
    20   23    2 1
    21   24   23 1
    22   25   23 1
    23   26   23 1
    24   27   26 ar
    25   28   27 1
    26   29   27 ar
    27   30   29 1
    28   31   29 ar
    29   32   31 1
    30   33   31 ar
    31   34   33 1
    32   35   26 ar
    33   36   35 1
    34   37    9 1
    35   38    9 1
    36   39   38 1
    37   40    4 1
    38   41   40 1
    39   42   40 1
    40   43   40 1
    41   44   43 ar
    42   45   44 1
    43   46   44 ar
    44   47   46 1
    45   48   46 ar
    46   49   48 1
    47   50   48 ar
    48   51   50 1
    49   52   43 ar
    50   53   52 1
    51   12   20 1
    52   17   19 ar
    53   19   37 1
    54   33   35 ar
    55   50   52 ar
@<TRIPOS>SUBSTRUCTURE
     1 RES1 1
     2 SUP2 54

@<TRIPOS>CRYSIN
   9.7640    4.8363   45.6280  90.0000  91.5670  90.0000 231 1

