# MOL2 file generated by ConQuest
# Please check atom types

@<TRIPOS>MOLECULE
HACVAL
    24    25     1
SMALL
NO_CHARGES
****
Generated from CSD

@<TRIPOS>ATOM
      1 N1         3.4365    8.1104    1.7492 N.3       1 RES1    0.0000
      2 H1         3.1369    8.8220    1.9798 H         1 RES1    0.0000
      3 C1         2.3744    7.1639    1.4028 C.3       1 RES1    0.0000
      4 H2         1.4641    7.5271    1.4244 H         1 RES1    0.0000
      5 C2         3.0526    7.0663    2.7162 C.3       1 RES1    0.0000
      6 H3         2.5255    7.3813    3.4805 H         1 RES1    0.0000
      7 C3         2.6506    6.2075    0.3001 C.3       1 RES1    0.0000
      8 H4         2.5409    6.6456   -0.5596 H         1 RES1    0.0000
      9 H5         3.5602    5.8771    0.3646 H         1 RES1    0.0000
     10 O1         1.7510    5.1608    0.4214 O.3       1 RES1    0.0000
     11 H6         1.7925    4.7688   -0.4367 H         1 RES1    0.0000
     12 C4         4.0090    5.9727    3.0197 C.ar      1 RES1    0.0000
     13 C5         5.2878    5.9279    2.4919 C.ar      1 RES1    0.0000
     14 H7         5.5888    6.6242    1.9544 H         1 RES1    0.0000
     15 C6         6.1199    4.8638    2.7569 C.ar      1 RES1    0.0000
     16 H8         6.9740    4.8297    2.3910 H         1 RES1    0.0000
     17 C7         5.6718    3.8626    3.5611 C.ar      1 RES1    0.0000
     18 C8         4.4010    3.8753    4.1271 C.ar      1 RES1    0.0000
     19 H9         4.1100    3.1843    4.6761 H         1 RES1    0.0000
     20 C9         3.5943    4.9441    3.8409 C.ar      1 RES1    0.0000
     21 H10        2.7416    4.9782    4.2097 H         1 RES1    0.0000
     22 N2         6.5433    2.7235    3.8396 N.pl3     1 RES1    0.0000
     23 O2         7.6535    2.7235    3.3309 O.2       1 RES1    0.0000
     24 O3         6.1246    1.8253    4.5582 O.2       1 RES1    0.0000
@<TRIPOS>BOND
     1    1    2 1
     2    3    1 1
     3    4    3 1
     4    5    1 1
     5    6    5 1
     6    7    3 1
     7    8    7 1
     8    9    7 1
     9   10    7 1
    10   11   10 1
    11   12    5 1
    12   13   12 ar
    13   14   13 1
    14   15   13 ar
    15   16   15 1
    16   17   15 ar
    17   18   17 ar
    18   19   18 1
    19   20   12 ar
    20   21   20 1
    21   22   17 1
    22   23   22 2
    23   24   22 2
    24    3    5 1
    25   18   20 ar
@<TRIPOS>SUBSTRUCTURE
     1 RES1 1

@<TRIPOS>CRYSIN
   6.6884    6.6884   42.3940  90.0000  90.0000  90.0000  96 1

