# MOL2 file generated by ConQuest
# Please check atom types

@<TRIPOS>MOLECULE
HADCAT
    38    39     1
SMALL
NO_CHARGES
****
Generated from CSD

@<TRIPOS>ATOM
      1 N1         1.5283    3.3868    4.9115 N.2       1 RES1    0.0000
      2 N2         3.5947    2.1007    0.6467 N.pl3     1 RES1    0.0000
      3 N3         1.7764   -1.3371    3.5420 N.pl3     1 RES1    0.0000
      4 O1         4.4161    3.0025    0.6137 O.2       1 RES1    0.0000
      5 O2         3.3218    1.4080   -0.3144 O.2       1 RES1    0.0000
      6 O3         2.4104   -2.1351    2.9075 O.2       1 RES1    0.0000
      7 O4         0.9499   -1.6282    4.3813 O.2       1 RES1    0.0000
      8 C1         1.9014    2.3674    3.9773 C.ar      1 RES1    0.0000
      9 C2         2.5686    2.7989    2.8202 C.ar      1 RES1    0.0000
     10 C3         2.9287    1.7895    1.9204 C.ar      1 RES1    0.0000
     11 C4         2.6786    0.4448    2.1337 C.ar      1 RES1    0.0000
     12 H1         2.9388   -0.1983    1.5141 H         1 RES1    0.0000
     13 C5         2.0316    0.0966    3.2954 C.ar      1 RES1    0.0000
     14 C6         1.6213    1.0210    4.2246 C.ar      1 RES1    0.0000
     15 H2         1.1712    0.7590    4.9946 H         1 RES1    0.0000
     16 C7         2.8111    4.2638    2.5700 C.3       1 RES1    0.0000
     17 H3         2.2996    4.7838    3.1936 H         1 RES1    0.0000
     18 H4         2.5440    4.4844    1.6742 H         1 RES1    0.0000
     19 H5         3.7450    4.4566    2.6821 H         1 RES1    0.0000
     20 N1A        0.8339    3.0121    5.8342 N.2       1 RES1    0.0000
     21 N2A       -1.2326    4.2982   10.0990 N.pl3     1 RES1    0.0000
     22 N3A        0.5857    7.7360    7.2037 N.pl3     1 RES1    0.0000
     23 O1A       -2.0539    3.3964   10.1320 O.2       1 RES1    0.0000
     24 O2A       -0.9597    4.9909   11.0601 O.2       1 RES1    0.0000
     25 O3A       -0.0482    8.5340    7.8382 O.2       1 RES1    0.0000
     26 O4A        1.4123    8.0271    6.3644 O.2       1 RES1    0.0000
     27 C1A        0.4608    4.0315    6.7684 C.ar      1 RES1    0.0000
     28 C2A       -0.2064    3.6000    7.9255 C.ar      1 RES1    0.0000
     29 C3A       -0.5665    4.6094    8.8253 C.ar      1 RES1    0.0000
     30 C4A       -0.3165    5.9540    8.6120 C.ar      1 RES1    0.0000
     31 H1A       -0.5766    6.5972    9.2316 H         1 RES1    0.0000
     32 C5A        0.3305    6.3023    7.4503 C.ar      1 RES1    0.0000
     33 C6A        0.7409    5.3779    6.5211 C.ar      1 RES1    0.0000
     34 H2A        1.1910    5.6399    5.7511 H         1 RES1    0.0000
     35 C7A       -0.4490    2.1351    8.1756 C.3       1 RES1    0.0000
     36 H3A        0.0625    1.6151    7.5521 H         1 RES1    0.0000
     37 H4A       -0.1819    1.9145    9.0715 H         1 RES1    0.0000
     38 H5A       -1.3829    1.9423    8.0636 H         1 RES1    0.0000
@<TRIPOS>BOND
     1    1    8 1
     2    2    4 2
     3    3    6 2
     4    5    2 2
     5    7    3 2
     6    8    9 ar
     7    9   10 ar
     8   10    2 1
     9   11   10 ar
    10   12   11 1
    11   13    3 1
    12   14    8 ar
    13   15   14 1
    14   16    9 1
    15   17   16 1
    16   18   16 1
    17   19   16 1
    18   20    1 2
    19   21   23 2
    20   22   25 2
    21   24   21 2
    22   26   22 2
    23   27   20 1
    24   28   27 ar
    25   29   21 1
    26   30   29 ar
    27   31   30 1
    28   32   22 1
    29   33   27 ar
    30   34   33 1
    31   35   28 1
    32   36   35 1
    33   37   35 1
    34   38   35 1
    35   11   13 ar
    36   13   14 ar
    37   28   29 ar
    38   30   32 ar
    39   32   33 ar
@<TRIPOS>SUBSTRUCTURE
     1 RES1 1

@<TRIPOS>CRYSIN
   4.0916    9.1792   11.0616 103.4430  90.2300 100.5780   2 1

