# MOL2 file generated by ConQuest
# Please check atom types

@<TRIPOS>MOLECULE
HAGJAB
    46    48     1
SMALL
NO_CHARGES
****
Generated from CSD

@<TRIPOS>ATOM
      1 O1       -10.2521   -3.4787    4.4708 O.3       1 RES1    0.0000
      2 O2        -7.4111   -5.4775   -0.4277 O.3       1 RES1    0.0000
      3 O3        -5.5641   -5.6475   -2.4435 O.3       1 RES1    0.0000
      4 O4        -3.3754   -4.1603   -2.4176 O.3       1 RES1    0.0000
      5 O5        -7.8506    0.6637    0.2770 O.3       1 RES1    0.0000
      6 N1        -8.2793   -0.5655    0.8325 N.2       1 RES1    0.0000
      7 C1        -7.3502   -1.2055    1.4131 C.2       1 RES1    0.0000
      8 C2        -7.7714   -2.4643    2.0585 C.ar      1 RES1    0.0000
      9 C3        -7.1353   -3.6735    1.7442 C.ar      1 RES1    0.0000
     10 C4        -6.1431   -3.7399    0.6461 C.ar      1 RES1    0.0000
     11 C5        -5.0442   -2.8903    0.6111 C.ar      1 RES1    0.0000
     12 C6        -4.9025   -1.8418    1.6719 C.3       1 RES1    0.0000
     13 C7        -5.9266   -0.7248    1.4908 C.3       1 RES1    0.0000
     14 C8        -8.8143   -2.4537    2.9709 C.ar      1 RES1    0.0000
     15 C9        -9.2029   -3.6093    3.6116 C.ar      1 RES1    0.0000
     16 C10       -8.5342   -4.7864    3.3765 C.ar      1 RES1    0.0000
     17 C11       -7.5243   -4.8058    2.4298 C.ar      1 RES1    0.0000
     18 C12       -6.3040   -4.6646   -0.3927 C.ar      1 RES1    0.0000
     19 C13       -5.3754   -4.7748   -1.4032 C.ar      1 RES1    0.0000
     20 C14       -4.2537   -3.9510   -1.4048 C.ar      1 RES1    0.0000
     21 C15       -4.1084   -2.9981   -0.4117 C.ar      1 RES1    0.0000
     22 C16      -10.6526   -4.6324    5.1975 C.3       1 RES1    0.0000
     23 C17       -2.2062   -3.3622   -2.4458 C.3       1 RES1    0.0000
     24 C18       -5.4002   -7.0066   -2.0950 C.3       1 RES1    0.0000
     25 C19       -8.5113   -4.8828   -1.0829 C.3       1 RES1    0.0000
     26 H1        -3.3620   -2.4104   -0.4360 H         1 RES1    0.0000
     27 H2        -9.2630   -1.6399    3.1664 H         1 RES1    0.0000
     28 H3        -8.7711   -5.5691    3.8605 H         1 RES1    0.0000
     29 H4        -7.0799   -5.6246    2.2403 H         1 RES1    0.0000
     30 H5       -10.9182   -5.3098    4.5857 H         1 RES1    0.0000
     31 H6       -11.3817   -4.4155    5.7659 H         1 RES1    0.0000
     32 H7        -9.9255   -4.9471    5.7218 H         1 RES1    0.0000
     33 H8        -1.6740   -3.6017   -3.1954 H         1 RES1    0.0000
     34 H9        -1.7078   -3.4958   -1.6483 H         1 RES1    0.0000
     35 H10       -2.4557   -2.4481   -2.5135 H         1 RES1    0.0000
     36 H11       -5.5418   -7.5444   -2.8651 H         1 RES1    0.0000
     37 H12       -6.0289   -7.2439   -1.4230 H         1 RES1    0.0000
     38 H13       -4.5195   -7.1487   -1.7678 H         1 RES1    0.0000
     39 H14       -8.7461   -4.0784   -0.6354 H         1 RES1    0.0000
     40 H15       -9.2530   -5.4761   -1.0791 H         1 RES1    0.0000
     41 H16       -8.2672   -4.6868   -1.9801 H         1 RES1    0.0000
     42 H17       -4.0216   -1.4859    1.6483 H         1 RES1    0.0000
     43 H18       -5.0558   -2.2496    2.5166 H         1 RES1    0.0000
     44 H19       -5.8536   -0.1168    2.2167 H         1 RES1    0.0000
     45 H20       -5.7219   -0.2754    0.6796 H         1 RES1    0.0000
     46 H21       -8.7813    0.9687   -0.2481 H         1 RES1    0.0000
@<TRIPOS>BOND
     1    1   15 1
     2    2   18 1
     3    3   19 1
     4    4   20 1
     5    5    6 1
     6    6    7 2
     7    7    8 1
     8    8    9 ar
     9    9   10 1
    10   10   11 ar
    11   11   12 1
    12   12   13 1
    13   13    7 1
    14   14    8 ar
    15   15   14 ar
    16   16   15 ar
    17   17    9 ar
    18   18   10 ar
    19   19   18 ar
    20   20   19 ar
    21   21   11 ar
    22   22    1 1
    23   23    4 1
    24   24    3 1
    25   25    2 1
    26   26   21 1
    27   27   14 1
    28   28   16 1
    29   29   17 1
    30   30   22 1
    31   31   22 1
    32   32   22 1
    33   33   23 1
    34   34   23 1
    35   35   23 1
    36   36   24 1
    37   37   24 1
    38   38   24 1
    39   39   25 1
    40   40   25 1
    41   41   25 1
    42   42   12 1
    43   43   12 1
    44   44   13 1
    45   45   13 1
    46   46    5 1
    47   16   17 ar
    48   20   21 ar
@<TRIPOS>SUBSTRUCTURE
     1 RES1 1

@<TRIPOS>CRYSIN
   9.3270   12.5240    8.8040 109.1600 111.4300  92.6600   2 1

