# MOL2 file generated by ConQuest
# Please check atom types

@<TRIPOS>MOLECULE
HAGSEP
    35    38     1
SMALL
NO_CHARGES
****
Generated from CSD

@<TRIPOS>ATOM
      1 O1         4.8887    1.7516   -2.9583 O.2       1 RES1    0.0000
      2 O2         5.9349    1.7516   -1.0194 O.3       1 RES1    0.0000
      3 O3         5.3104    1.7516    5.1824 O.2       1 RES1    0.0000
      4 O4         7.4134    1.7516    4.9982 O.2       1 RES1    0.0000
      5 N1         2.2926    1.7516    0.7901 N.pl3     1 RES1    0.0000
      6 N2         1.4265    1.7516   -0.2774 N.2       1 RES1    0.0000
      7 N3         6.3156    1.7516    4.5214 N.pl3     1 RES1    0.0000
      8 C1         2.1850    1.7516   -1.3538 C.2       1 RES1    0.0000
      9 C2         3.5449    1.7516   -0.9912 C.2       1 RES1    0.0000
     10 C3         4.7551    1.7516   -1.7762 C.2       1 RES1    0.0000
     11 C4         5.9755    1.7516    0.3515 C.ar      1 RES1    0.0000
     12 C5         7.2364    1.7516    0.9247 C.ar      1 RES1    0.0000
     13 C6         7.3554    1.7516    2.2840 C.ar      1 RES1    0.0000
     14 C7         6.2023    1.7516    3.0612 C.ar      1 RES1    0.0000
     15 C8         4.9463    1.7516    2.5146 C.ar      1 RES1    0.0000
     16 C9         4.8083    1.7516    1.1353 C.ar      1 RES1    0.0000
     17 C10        3.5749    1.7516    0.3871 C.2       1 RES1    0.0000
     18 C11        1.8042    1.7516    2.1410 C.ar      1 RES1    0.0000
     19 C12        1.6195    0.5577    2.7814 C.ar      1 RES1    0.0000
     20 C13        1.2515    0.5682    4.1127 C.ar      1 RES1    0.0000
     21 C14        1.0725    1.7516    4.7709 C.ar      1 RES1    0.0000
     22 C15        1.5841    1.7516   -2.7197 C.3       1 RES1    0.0000
     23 H1         0.8292    1.7516    5.6681 H         1 RES1    0.0000
     24 H2         8.1953    1.7516    2.6837 H         1 RES1    0.0000
     25 H3         4.1947    1.7516    3.0627 H         1 RES1    0.0000
     26 H4         1.1251   -0.2349    4.5638 H         1 RES1    0.0000
     27 H5         7.9949    1.7516    0.3877 H         1 RES1    0.0000
     28 H6         1.7389   -0.2462    2.3293 H         1 RES1    0.0000
     29 H7         1.7811    0.9988   -3.2274 H         1 RES1    0.0000
     30 H8         0.7328    1.7516   -2.6685 H         1 RES1    0.0000
     31 C12C       1.6195    2.9455    2.7814 C.ar      1 RES1    0.0000
     32 C13C       1.2515    2.9350    4.1127 C.ar      1 RES1    0.0000
     33 H4C        1.1251    3.7381    4.5638 H         1 RES1    0.0000
     34 H6C        1.7389    3.7494    2.3293 H         1 RES1    0.0000
     35 H7C        1.7811    2.5044   -3.2274 H         1 RES1    0.0000
@<TRIPOS>BOND
     1    1   10 2
     2    2   10 1
     3    3    7 2
     4    4    7 2
     5    5    6 1
     6    6    8 2
     7    7   14 1
     8    8    9 1
     9    9   10 1
    10   11    2 1
    11   12   11 ar
    12   13   12 ar
    13   14   13 ar
    14   15   14 ar
    15   16   11 ar
    16   17    5 1
    17   18    5 1
    18   19   18 ar
    19   20   19 ar
    20   21   20 ar
    21   22    8 1
    22   23   21 1
    23   24   13 1
    24   25   15 1
    25   26   20 1
    26   27   12 1
    27   28   19 1
    28   29   22 1
    29   30   22 1
    30   31   18 ar
    31   32   21 ar
    32   33   32 1
    33   34   31 1
    34   35   22 1
    35    9   17 2
    36   15   16 ar
    37   16   17 1
    38   31   32 ar
@<TRIPOS>SUBSTRUCTURE
     1 RES1 1

@<TRIPOS>CRYSIN
   9.4294    7.0064   12.0294  90.0000 112.8260  90.0000  11 1

