# MOL2 file generated by ConQuest
# Please check atom types

@<TRIPOS>MOLECULE
HAGYIY
    22    23     1
SMALL
NO_CHARGES
****
Generated from CSD

@<TRIPOS>ATOM
      1 C1        13.1388   -1.2564   10.1087 C.2       1 RES1    0.0000
      2 C2        13.8659   -2.3887   10.5505 C.2       1 RES1    0.0000
      3 H1        14.7770   -2.5196   10.4161 H         1 RES1    0.0000
      4 C3        13.0382   -3.2642   11.2038 C.2       1 RES1    0.0000
      5 H2        13.3014   -4.0674   11.5916 H         1 RES1    0.0000
      6 C4        10.6160   -3.3692   11.7491 C.2       1 RES1    0.0000
      7 H3        10.7779   -4.1872   12.1607 H         1 RES1    0.0000
      8 C5         9.2921   -2.9388   11.7796 C.2       1 RES1    0.0000
      9 H4         8.6874   -3.5068   12.2014 H         1 RES1    0.0000
     10 C6         8.7686   -1.7787   11.2631 C.2       1 RES1    0.0000
     11 H5         7.8513   -1.6787   11.3742 H         1 RES1    0.0000
     12 C7         9.3957   -0.7335   10.6028 C.2       1 RES1    0.0000
     13 H6         8.8387   -0.0321   10.3533 H         1 RES1    0.0000
     14 C8        10.7264   -0.5773   10.2593 C.2       1 RES1    0.0000
     15 H7        10.9372    0.2087    9.8097 H         1 RES1    0.0000
     16 C9        11.7929   -1.4410   10.4973 C.2       1 RES1    0.0000
     17 C10       11.7227   -2.7542   11.1950 C.2       1 RES1    0.0000
     18 C11       13.6721   -0.1136    9.4019 C.2       1 RES1    0.0000
     19 H8        13.1055    0.5921    9.1880 H         1 RES1    0.0000
     20 N1        14.9056   -0.0500    9.0643 N.2       1 RES1    0.0000
     21 O1        15.2034    1.1718    8.4041 O.3       1 RES1    0.0000
     22 H9        15.9993    1.0372    8.1671 H         1 RES1    0.0000
@<TRIPOS>BOND
     1    1    2 2
     2    2    3 1
     3    4    2 1
     4    5    4 1
     5    6    7 1
     6    8    6 2
     7    9    8 1
     8   10    8 1
     9   11   10 1
    10   12   10 2
    11   13   12 1
    12   14   12 1
    13   15   14 1
    14   16    1 1
    15   17    4 2
    16   18    1 1
    17   19   18 1
    18   20   18 2
    19   21   20 1
    20   22   21 1
    21    6   17 1
    22   14   16 2
    23   16   17 1
@<TRIPOS>SUBSTRUCTURE
     1 RES1 1

@<TRIPOS>CRYSIN
  16.9310    6.1740   17.0280  90.0000  94.0000  90.0000  15 1

