# MOL2 file generated by ConQuest
# Please check atom types

@<TRIPOS>MOLECULE
HAHBIE
    50    53     1
SMALL
NO_CHARGES
****
Generated from CSD

@<TRIPOS>ATOM
      1 O1        -2.8805    5.3386    6.5785 O.3       1 RES1    0.0000
      2 O2         2.9094    1.2192    0.3834 O.2       1 RES1    0.0000
      3 O3         4.9620    1.6157    0.8101 O.2       1 RES1    0.0000
      4 N1         4.9934    5.4607    3.9386 N.pl3     1 RES1    0.0000
      5 H1         5.9067    5.4220    3.5722 H         1 RES1    0.0000
      6 N2         3.7834    1.8781    0.9129 N.pl3     1 RES1    0.0000
      7 C1         4.6994    6.7403    4.5776 C.3       1 RES1    0.0000
      8 H2         4.6325    7.4258    3.8812 H         1 RES1    0.0000
      9 C2         3.3463    6.6412    5.2920 C.3       1 RES1    0.0000
     10 H3         3.4009    5.9213    5.9542 H         1 RES1    0.0000
     11 C3         2.2344    6.2876    4.2843 C.3       1 RES1    0.0000
     12 H4         2.1267    7.0680    3.7021 H         1 RES1    0.0000
     13 C4         1.7026    4.3829    2.6942 C.ar      1 RES1    0.0000
     14 H5         0.8034    4.5987    2.7930 H         1 RES1    0.0000
     15 C5         2.0483    3.3312    1.8634 C.ar      1 RES1    0.0000
     16 H6         1.3998    2.8452    1.4072 H         1 RES1    0.0000
     17 C6         3.3824    3.0308    1.7381 C.ar      1 RES1    0.0000
     18 C7         4.3653    3.7356    2.3925 C.ar      1 RES1    0.0000
     19 H7         5.2604    3.5101    2.2801 H         1 RES1    0.0000
     20 C8         2.6477    5.1276    3.3853 C.ar      1 RES1    0.0000
     21 C9         4.0003    4.7958    3.2284 C.ar      1 RES1    0.0000
     22 C10        5.8320    7.1133    5.5061 C.ar      1 RES1    0.0000
     23 C11        6.4004    8.3730    5.4704 C.ar      1 RES1    0.0000
     24 H8         6.1133    8.9865    4.8331 H         1 RES1    0.0000
     25 C12        7.3913    8.7357    6.3709 C.ar      1 RES1    0.0000
     26 H9         7.7573    9.5904    6.3405 H         1 RES1    0.0000
     27 C13        7.8315    7.8374    7.3055 C.ar      1 RES1    0.0000
     28 H10        8.4940    8.0798    7.9121 H         1 RES1    0.0000
     29 C14        7.2901    6.5753    7.3428 C.ar      1 RES1    0.0000
     30 H11        7.5957    5.9600    7.9696 H         1 RES1    0.0000
     31 C15        6.2917    6.2132    6.4536 C.ar      1 RES1    0.0000
     32 H12        5.9266    5.3585    6.4934 H         1 RES1    0.0000
     33 C16        3.0173    7.9420    6.0236 C.3       1 RES1    0.0000
     34 H13        3.7196    8.1457    6.6463 H         1 RES1    0.0000
     35 H14        2.1892    7.8411    6.4983 H         1 RES1    0.0000
     36 H15        2.9360    8.6559    5.3870 H         1 RES1    0.0000
     37 C17        0.8847    6.0512    4.9425 C.ar      1 RES1    0.0000
     38 C18       -0.1957    6.8830    4.7168 C.ar      1 RES1    0.0000
     39 H16       -0.0878    7.6325    4.1771 H         1 RES1    0.0000
     40 C19       -1.4299    6.6261    5.2731 C.ar      1 RES1    0.0000
     41 H17       -2.1420    7.1985    5.1010 H         1 RES1    0.0000
     42 C20       -1.6137    5.5217    6.0854 C.ar      1 RES1    0.0000
     43 C21       -0.5455    4.6906    6.3522 C.ar      1 RES1    0.0000
     44 H18       -0.6504    3.9538    6.9093 H         1 RES1    0.0000
     45 C22        0.6802    4.9650    5.7821 C.ar      1 RES1    0.0000
     46 H19        1.3954    4.4011    5.9673 H         1 RES1    0.0000
     47 C23       -3.1587    4.0747    7.1848 C.3       1 RES1    0.0000
     48 H20       -4.0680    4.0602    7.4912 H         1 RES1    0.0000
     49 H21       -2.5682    3.9405    7.9302 H         1 RES1    0.0000
     50 H22       -3.0263    3.3753    6.5411 H         1 RES1    0.0000
@<TRIPOS>BOND
     1    1   42 1
     2    2    6 2
     3    3    6 2
     4    4    5 1
     5    6   17 1
     6    7    4 1
     7    8    7 1
     8    9    7 1
     9   10    9 1
    10   11    9 1
    11   12   11 1
    12   13   14 1
    13   15   13 ar
    14   16   15 1
    15   17   15 ar
    16   18   17 ar
    17   19   18 1
    18   20   11 1
    19   21    4 1
    20   22    7 1
    21   23   22 ar
    22   24   23 1
    23   25   23 ar
    24   26   25 1
    25   27   25 ar
    26   28   27 1
    27   29   27 ar
    28   30   29 1
    29   31   22 ar
    30   32   31 1
    31   33    9 1
    32   34   33 1
    33   35   33 1
    34   36   33 1
    35   37   11 1
    36   38   37 ar
    37   39   38 1
    38   40   38 ar
    39   41   40 1
    40   42   40 ar
    41   43   42 ar
    42   44   43 1
    43   45   37 ar
    44   46   45 1
    45   47    1 1
    46   48   47 1
    47   49   47 1
    48   50   47 1
    49   13   20 ar
    50   18   21 ar
    51   20   21 ar
    52   29   31 ar
    53   43   45 ar
@<TRIPOS>SUBSTRUCTURE
     1 RES1 1

@<TRIPOS>CRYSIN
  19.2030    6.0446   18.3360  90.0000 116.2930  90.0000  14 1

