# MOL2 file generated by ConQuest
# Please check atom types

@<TRIPOS>MOLECULE
HAHBEY
    30    31     1
SMALL
NO_CHARGES
****
Generated from CSD

@<TRIPOS>ATOM
      1 O1         0.3424    0.3535    4.7862 O.3       1 RES1    0.0000
      2 O2        -3.1144    2.3142    2.9586 O.2       1 RES1    0.0000
      3 N1        -1.0671    0.4756    4.7127 N.2       1 RES1    0.0000
      4 H1        -2.8064   -1.3562    4.1798 H         1 RES1    0.0000
      5 H2        -2.4105   -0.2219    1.1206 H         1 RES1    0.0000
      6 H3        -7.1872    0.3171    4.3504 H         1 RES1    0.0000
      7 H4         0.3650    2.6593    0.7382 H         1 RES1    0.0000
      8 H5        -4.5128   -2.6889    4.9990 H         1 RES1    0.0000
      9 H6        -3.0555    0.0409   -1.0685 H         1 RES1    0.0000
     10 H7        -5.4394    1.6856    3.6267 H         1 RES1    0.0000
     11 H8        -6.7213   -1.8963    5.0801 H         1 RES1    0.0000
     12 H9        -0.1520    2.8618   -1.5490 H         1 RES1    0.0000
     13 H10       -1.9292    1.6140   -2.4287 H         1 RES1    0.0000
     14 H11        0.2566    1.1384    2.6744 H         1 RES1    0.0000
     15 H12        0.4598    0.0644    5.6900 H         1 RES1    0.0000
     16 C1        -2.8856    1.2093    3.4083 C.2       1 RES1    0.0000
     17 C2        -1.4331    0.8136    3.5232 C.2       1 RES1    0.0000
     18 N2        -0.5977    1.0361    2.4895 N.pl3     1 RES1    0.0000
     19 C3        -3.9536    0.2992    3.8689 C.ar      1 RES1    0.0000
     20 C4        -0.9923    1.1946    1.1404 C.ar      1 RES1    0.0000
     21 C5        -3.7013   -1.0068    4.2514 C.ar      1 RES1    0.0000
     22 C6        -5.2607    0.7616    3.8866 C.ar      1 RES1    0.0000
     23 C7        -6.2816   -0.0474    4.3108 C.ar      1 RES1    0.0000
     24 C8        -0.3311    2.1124    0.3509 C.ar      1 RES1    0.0000
     25 C9        -0.6856    2.2631   -0.9728 C.ar      1 RES1    0.0000
     26 C10       -6.0172   -1.3163    4.7292 C.ar      1 RES1    0.0000
     27 C11       -2.3496    0.5926   -0.7293 C.ar      1 RES1    0.0000
     28 C12       -1.9890    0.4176    0.5949 C.ar      1 RES1    0.0000
     29 C13       -1.6994    1.5108   -1.5031 C.ar      1 RES1    0.0000
     30 C14       -4.7356   -1.8125    4.6804 C.ar      1 RES1    0.0000
@<TRIPOS>BOND
     1    1    3 1
     2    2   16 2
     3    3   17 2
     4    4   21 1
     5    5   28 1
     6    6   23 1
     7    7   24 1
     8    8   30 1
     9    9   27 1
    10   10   22 1
    11   11   26 1
    12   12   25 1
    13   13   29 1
    14   14   18 1
    15   15    1 1
    16   16   17 1
    17   17   18 1
    18   18   20 1
    19   19   16 1
    20   20   24 ar
    21   21   19 ar
    22   22   19 ar
    23   23   22 ar
    24   24   25 ar
    25   25   29 ar
    26   26   23 ar
    27   27   28 ar
    28   28   20 ar
    29   29   27 ar
    30   30   21 ar
    31   26   30 ar
@<TRIPOS>SUBSTRUCTURE
     1 RES1 1

@<TRIPOS>CRYSIN
  10.0106   10.2280   12.1627  90.0000  95.7630  90.0000  14 2

