# MOL2 file generated by ConQuest
# Please check atom types

@<TRIPOS>MOLECULE
HAJZIE
    50    51     1
SMALL
NO_CHARGES
****
Generated from CSD

@<TRIPOS>ATOM
      1 C1         1.6071    0.9490   14.8337 C.ar      1 RES1    0.0000
      2 C2         0.7580    0.3624   13.8937 C.ar      1 RES1    0.0000
      3 H1        -0.0420   -0.0704   14.1685 H         1 RES1    0.0000
      4 C3         1.1044    0.4252   12.5551 C.ar      1 RES1    0.0000
      5 C4         2.2628    1.0220   12.1078 C.ar      1 RES1    0.0000
      6 H2         2.4938    1.0412   11.1853 H         1 RES1    0.0000
      7 C5         3.0711    1.5893   13.0751 C.ar      1 RES1    0.0000
      8 C6         2.7705    1.5842   14.4063 C.ar      1 RES1    0.0000
      9 H3         3.3459    2.0094   15.0324 H         1 RES1    0.0000
     10 C7         1.2946    0.9349   16.2930 C.2       1 RES1    0.0000
     11 C8        -0.0659   -0.1306   17.9536 C.3       1 RES1    0.0000
     12 H4         0.4004    0.5443   18.5258 H         1 RES1    0.0000
     13 C9        -1.5669    0.1575   17.9441 C.3       1 RES1    0.0000
     14 C10       -2.0972   -0.0615   19.3733 C.3       1 RES1    0.0000
     15 H5        -1.6874    0.6071   19.9783 H         1 RES1    0.0000
     16 H6        -3.0767    0.0807   19.3826 H         1 RES1    0.0000
     17 C11       -1.7909   -1.4523   19.8888 C.3       1 RES1    0.0000
     18 H7        -2.2653   -2.1208   19.3327 H         1 RES1    0.0000
     19 H8        -2.1185   -1.5381   20.8184 H         1 RES1    0.0000
     20 C12       -0.2981   -1.7328   19.8513 C.3       1 RES1    0.0000
     21 H9        -0.1312   -2.6639   20.1397 H         1 RES1    0.0000
     22 H10        0.1657   -1.1283   20.4838 H         1 RES1    0.0000
     23 C13        0.2680   -1.5279   18.4401 C.3       1 RES1    0.0000
     24 H11        1.2500   -1.6508   18.4523 H         1 RES1    0.0000
     25 H12       -0.1205   -2.1977   17.8233 H         1 RES1    0.0000
     26 C14       -2.2572   -0.7441   16.9901 C.1       1 RES1    0.0000
     27 C15       -2.7893   -1.5330   16.2781 C.1       1 RES1    0.0000
     28 C16       -3.3968   -2.5115   15.3679 C.3       1 RES1    0.0000
     29 H13       -4.2414   -2.1388   15.0110 H         1 RES1    0.0000
     30 H14       -3.6183   -3.3311   15.8749 H         1 RES1    0.0000
     31 C17       -2.4774   -2.8777   14.2008 C.3       1 RES1    0.0000
     32 H15       -2.9575   -3.5002   13.5989 H         1 RES1    0.0000
     33 H16       -2.2741   -2.0581   13.6843 H         1 RES1    0.0000
     34 C18       -1.1766   -3.5194   14.6320 C.3       1 RES1    0.0000
     35 H17       -1.3780   -4.3595   15.1154 H         1 RES1    0.0000
     36 H18       -0.7129   -2.9123   15.2626 H         1 RES1    0.0000
     37 C19       -0.2454   -3.8293   13.4703 C.3       1 RES1    0.0000
     38 H19       -0.7085   -4.4005   12.8228 H         1 RES1    0.0000
     39 H20        0.5510   -4.2916   13.8054 H         1 RES1    0.0000
     40 H21        0.0226   -2.9930   13.0341 H         1 RES1    0.0000
     41 N1         0.1889   -0.1511   11.5543 N.pl3     1 RES1    0.0000
     42 N2         4.3073    2.2656   12.6249 N.pl3     1 RES1    0.0000
     43 O1        -0.8635   -0.6288   11.9537 O.2       1 RES1    0.0000
     44 O2         0.5221   -0.1050   10.3814 O.2       1 RES1    0.0000
     45 O3         4.6060    2.2092   11.4394 O.2       1 RES1    0.0000
     46 O4         4.9631    2.8534   13.4719 O.2       1 RES1    0.0000
     47 O5         1.8104    1.6805   17.0969 O.2       1 RES1    0.0000
     48 O6         0.3985   -0.0056   16.5740 O.3       1 RES1    0.0000
     49 O7        -1.6836    1.5317   17.5559 O.3       1 RES1    0.0000
     50 H22       -2.4944    1.7251   17.4531 H         1 RES1    0.0000
@<TRIPOS>BOND
     1    1    2 ar
     2    2    3 1
     3    4    2 ar
     4    5    4 ar
     5    6    5 1
     6    7    5 ar
     7    8    1 ar
     8    9    8 1
     9   10    1 1
    10   11   12 1
    11   13   11 1
    12   14   13 1
    13   15   14 1
    14   16   14 1
    15   17   14 1
    16   18   17 1
    17   19   17 1
    18   20   17 1
    19   21   20 1
    20   22   20 1
    21   23   11 1
    22   24   23 1
    23   25   23 1
    24   26   13 1
    25   27   26 3
    26   28   27 1
    27   29   28 1
    28   30   28 1
    29   31   28 1
    30   32   31 1
    31   33   31 1
    32   34   31 1
    33   35   34 1
    34   36   34 1
    35   37   34 1
    36   38   37 1
    37   39   37 1
    38   40   37 1
    39   41    4 1
    40   42    7 1
    41   43   41 2
    42   44   41 2
    43   45   42 2
    44   46   42 2
    45   47   10 2
    46   48   10 1
    47   49   13 1
    48   50   49 1
    49    7    8 ar
    50   11   48 1
    51   20   23 1
@<TRIPOS>SUBSTRUCTURE
     1 RES1 1

@<TRIPOS>CRYSIN
   6.2752   12.8070   23.7328  90.0000  90.0000  90.0000  19 1

