# MOL2 file generated by ConQuest
# Please check atom types

@<TRIPOS>MOLECULE
HAKLUB
    73    77     2
SMALL
NO_CHARGES
****
Generated from CSD

@<TRIPOS>ATOM
      1 O1         1.8736    7.9188    4.8906 O.2       1 RES1    0.0000
      2 O2         2.1191    8.8927    6.7805 O.2       1 RES1    0.0000
      3 N1        -1.8386    3.0833    3.8225 N.2       1 RES1    0.0000
      4 N2        -2.3685    2.0478    0.8490 N.3       1 RES1    0.0000
      5 N3        -4.9108    4.0527    0.7181 N.3       1 RES1    0.0000
      6 N4        -4.1884    4.7060    3.7577 N.3       1 RES1    0.0000
      7 N5         1.5116    8.1413    6.0390 N.pl3     1 RES1    0.0000
      8 C1        -2.2262    5.0922    5.1874 C.2       1 RES1    0.0000
      9 C2        -1.5072    3.9641    4.8647 C.2       1 RES1    0.0000
     10 C3        -0.2923    3.4860    5.4065 C.2       1 RES1    0.0000
     11 C4         0.0761    2.3776    4.7104 C.2       1 RES1    0.0000
     12 C5        -0.9019    2.1576    3.7227 C.2       1 RES1    0.0000
     13 C6        -0.8958    1.0826    2.6430 C.3       1 RES1    0.0000
     14 C7         0.4293    0.3558    2.6326 C.3       1 RES1    0.0000
     15 C8        -2.0221    0.0911    2.9411 C.3       1 RES1    0.0000
     16 C9        -1.1052    1.7428    1.2910 C.2       1 RES1    0.0000
     17 C10       -0.2400    2.2068    0.3578 C.2       1 RES1    0.0000
     18 C11       -0.9997    2.7935   -0.6909 C.2       1 RES1    0.0000
     19 C12       -2.3107    2.6697   -0.3759 C.2       1 RES1    0.0000
     20 C13       -3.5903    2.9872   -1.1121 C.3       1 RES1    0.0000
     21 C14       -3.8281    1.8786   -2.1556 C.3       1 RES1    0.0000
     22 C15       -3.4579    4.3391   -1.8225 C.3       1 RES1    0.0000
     23 C16       -4.7261    2.9904   -0.1309 C.2       1 RES1    0.0000
     24 C17       -5.6071    2.0401    0.2411 C.2       1 RES1    0.0000
     25 C18       -6.3460    2.5252    1.3519 C.2       1 RES1    0.0000
     26 C19       -5.9048    3.7722    1.6358 C.2       1 RES1    0.0000
     27 C20       -6.4112    4.8149    2.5937 C.3       1 RES1    0.0000
     28 C21       -7.0418    5.9888    1.8108 C.3       1 RES1    0.0000
     29 C22       -7.4841    4.2055    3.4959 C.3       1 RES1    0.0000
     30 C23       -5.3027    5.3421    3.4946 C.2       1 RES1    0.0000
     31 C24       -5.3720    6.5543    4.2438 C.2       1 RES1    0.0000
     32 C25       -4.2115    6.6219    4.9787 C.2       1 RES1    0.0000
     33 C26       -3.4675    5.4614    4.6923 C.2       1 RES1    0.0000
     34 C27       -1.5536    6.0502    6.1142 C.ar      1 RES1    0.0000
     35 C28       -0.3640    6.6338    5.6994 C.ar      1 RES1    0.0000
     36 C29        0.2782    7.5212    6.5251 C.ar      1 RES1    0.0000
     37 C30       -0.1972    7.8490    7.7734 C.ar      1 RES1    0.0000
     38 C31       -1.3514    7.2735    8.1804 C.ar      1 RES1    0.0000
     39 C32       -2.0400    6.3764    7.3806 C.ar      1 RES1    0.0000
     40 H1        -2.6647    3.4028    3.4350 Du        2 SUP2    0.0000
     41 H2        -3.4065    1.8651    1.2288 H         1 RES1    0.0000
     42 H3        -4.4365    5.0898    0.6546 H         1 RES1    0.0000
     43 H4        -3.8206    3.7567    3.5387 H         1 RES1    0.0000
     44 H5         0.2095    3.8985    6.1661 H         1 RES1    0.0000
     45 H6         0.9024    1.8363    4.8634 H         1 RES1    0.0000
     46 H7         0.4207   -0.3530    1.9262 H         1 RES1    0.0000
     47 H8         0.5772   -0.0775    3.5283 H         1 RES1    0.0000
     48 H9         1.1637    1.0023    2.4524 H         1 RES1    0.0000
     49 H10       -2.0339   -0.6134    2.2398 H         1 RES1    0.0000
     50 H11       -1.8716   -0.3128    3.8368 H         1 RES1    0.0000
     51 H12       -2.8949    0.5871    2.9359 H         1 RES1    0.0000
     52 H13        0.7632    2.1375    0.3966 H         1 RES1    0.0000
     53 H14       -0.6349    3.2353   -1.5179 H         1 RES1    0.0000
     54 H15       -4.6711    2.0760   -2.6533 H         1 RES1    0.0000
     55 H16       -3.0589    1.8543   -2.7894 H         1 RES1    0.0000
     56 H17       -3.9085    1.0026   -1.6864 H         1 RES1    0.0000
     57 H18       -4.3017    4.5425   -2.2982 H         1 RES1    0.0000
     58 H19       -3.2668    5.0518   -1.1433 H         1 RES1    0.0000
     59 H20       -2.6979    4.2907   -2.4719 H         1 RES1    0.0000
     60 H21       -5.7076    1.1296   -0.1724 H         1 RES1    0.0000
     61 H22       -7.0837    2.0398    1.8380 H         1 RES1    0.0000
     62 H23       -7.3724    6.6742    2.4537 H         1 RES1    0.0000
     63 H24       -7.7986    5.6482    1.2573 H         1 RES1    0.0000
     64 H25       -6.3470    6.3959    1.2133 H         1 RES1    0.0000
     65 H26       -7.8176    4.9028    4.1336 H         1 RES1    0.0000
     66 H27       -8.2519    3.8854    2.9333 H         1 RES1    0.0000
     67 H28       -7.1062    3.4390    4.0066 H         1 RES1    0.0000
     68 H29       -6.1194    7.2196    4.2516 H         1 RES1    0.0000
     69 H30       -3.9495    7.3832    5.5724 H         1 RES1    0.0000
     70 H31        0.0343    6.3934    4.8193 H         1 RES1    0.0000
     71 H32        0.3055    8.4786    8.3670 H         1 RES1    0.0000
     72 H33       -1.7285    7.5218    9.0696 H         1 RES1    0.0000
     73 H34       -2.8938    5.9636    7.7267 H         1 RES1    0.0000
@<TRIPOS>BOND
     1    1    7 2
     2    2    7 2
     3    3    9 1
     4    4   16 1
     5    5   23 1
     6    6   30 1
     7    7   36 1
     8    8    9 2
     9    9   10 1
    10   10   11 2
    11   11   12 1
    12   12    3 2
    13   13   12 1
    14   14   13 1
    15   15   13 1
    16   16   13 1
    17   17   16 2
    18   18   17 1
    19   19    4 1
    20   20   19 1
    21   21   20 1
    22   22   20 1
    23   23   20 1
    24   24   23 2
    25   25   24 1
    26   26    5 1
    27   27   26 1
    28   28   27 1
    29   29   27 1
    30   30   27 1
    31   31   30 2
    32   32   31 1
    33   33    6 1
    34   34    8 1
    35   35   34 ar
    36   36   35 ar
    37   37   36 ar
    38   38   37 ar
    39   39   34 ar
    40   41    4 1
    41   42    5 1
    42   43    6 1
    43   44   10 1
    44   45   11 1
    45   46   14 1
    46   47   14 1
    47   48   14 1
    48   49   15 1
    49   50   15 1
    50   51   15 1
    51   52   17 1
    52   53   18 1
    53   54   21 1
    54   55   21 1
    55   56   21 1
    56   57   22 1
    57   58   22 1
    58   59   22 1
    59   60   24 1
    60   61   25 1
    61   62   28 1
    62   63   28 1
    63   64   28 1
    64   65   29 1
    65   66   29 1
    66   67   29 1
    67   68   31 1
    68   69   32 1
    69   70   35 1
    70   71   37 1
    71   72   38 1
    72   73   39 1
    73    8   33 1
    74   18   19 2
    75   25   26 2
    76   32   33 2
    77   38   39 ar
@<TRIPOS>SUBSTRUCTURE
     1 RES1 1
     2 SUP2 40

@<TRIPOS>CRYSIN
  10.3180   11.0710   13.3100  93.1000 100.3700 113.8100   2 1

