# MOL2 file generated by ConQuest
# Please check atom types

@<TRIPOS>MOLECULE
HAKZEZ
    60    62     1
SMALL
NO_CHARGES
****
Generated from CSD

@<TRIPOS>ATOM
      1 O1        -5.2556   -3.1849   16.7459 O.3       1 RES1    0.0000
      2 O2        -3.5486   -1.6710   15.4964 O.3       1 RES1    0.0000
      3 O3         0.4860    3.6562   11.2484 O.3       1 RES1    0.0000
      4 O4         2.0113    2.1614   10.6353 O.2       1 RES1    0.0000
      5 O5         4.0480    7.1575    7.4369 O.2       1 RES1    0.0000
      6 N1        -3.0232    0.0274   13.5980 N.2       1 RES1    0.0000
      7 N2         3.4631    6.2269    8.0974 N.3       1 RES1    0.0000
      8 C1        -6.1252   -4.0231   17.4506 C.3       1 RES1    0.0000
      9 C2        -7.0085   -2.6020   15.1756 C.ar      1 RES1    0.0000
     10 C3        -5.7441   -2.5158   15.6521 C.ar      1 RES1    0.0000
     11 C4        -7.3911   -1.8766   14.0608 C.ar      1 RES1    0.0000
     12 C5        -4.8026   -1.7009   15.0042 C.ar      1 RES1    0.0000
     13 C6        -6.4914   -1.0731   13.4371 C.ar      1 RES1    0.0000
     14 C7        -5.1857   -0.9520   13.8862 C.ar      1 RES1    0.0000
     15 C8        -4.2487   -0.0607   13.2552 C.2       1 RES1    0.0000
     16 C9        -2.1334    0.9129   12.9470 C.ar      1 RES1    0.0000
     17 C10       -1.0753    1.4122   13.6769 C.ar      1 RES1    0.0000
     18 C11       -2.2470    1.2864   11.6207 C.ar      1 RES1    0.0000
     19 C12       -0.1809    2.3047   13.1405 C.ar      1 RES1    0.0000
     20 C13       -1.3436    2.1625   11.0707 C.ar      1 RES1    0.0000
     21 C14       -0.3308    2.6718   11.8258 C.ar      1 RES1    0.0000
     22 C15        1.6342    3.2885   10.6479 C.2       1 RES1    0.0000
     23 C16        2.3200    4.4763   10.0431 C.3       1 RES1    0.0000
     24 C17        3.5592    4.0713    9.3080 C.3       1 RES1    0.0000
     25 C18        1.4184    5.2441    9.0923 C.3       1 RES1    0.0000
     26 C19        4.3712    5.2485    8.7747 C.3       1 RES1    0.0000
     27 C20        2.0514    6.4898    8.4876 C.3       1 RES1    0.0000
     28 C21        5.1151    5.9612    9.9117 C.3       1 RES1    0.0000
     29 C22        5.3706    4.7617    7.7282 C.3       1 RES1    0.0000
     30 C23        2.0349    7.6532    9.4699 C.3       1 RES1    0.0000
     31 C24        1.2987    6.8830    7.2371 C.3       1 RES1    0.0000
     32 H1        -6.8705   -3.4052   17.8208 H         1 RES1    0.0000
     33 H2        -5.7135   -4.3445   18.2499 H         1 RES1    0.0000
     34 H3        -6.5266   -4.6520   16.9647 H         1 RES1    0.0000
     35 H4        -7.6360   -3.1226   15.6069 H         1 RES1    0.0000
     36 H5        -8.2827   -1.9478   13.7505 H         1 RES1    0.0000
     37 H6        -3.1222   -1.1498   15.0536 H         1 RES1    0.0000
     38 H7        -6.7519   -0.5902   12.7209 H         1 RES1    0.0000
     39 H8        -4.5640    0.3824   12.5841 H         1 RES1    0.0000
     40 H9        -0.9932    1.1720   14.5393 H         1 RES1    0.0000
     41 H10       -2.9473    1.0085   11.1191 H         1 RES1    0.0000
     42 H11        0.5378    2.6460   13.6212 H         1 RES1    0.0000
     43 H12       -1.3521    2.3967   10.2377 H         1 RES1    0.0000
     44 H13        2.4762    5.0648   10.7583 H         1 RES1    0.0000
     45 H14        4.1570    3.5825    9.8202 H         1 RES1    0.0000
     46 H15        3.2999    3.5077    8.5465 H         1 RES1    0.0000
     47 H16        0.5975    5.5054    9.5025 H         1 RES1    0.0000
     48 H17        1.1922    4.6465    8.4045 H         1 RES1    0.0000
     49 H18        4.4326    6.3089   10.5669 H         1 RES1    0.0000
     50 H19        5.5164    6.7688    9.5646 H         1 RES1    0.0000
     51 H20        5.7646    5.3530   10.2587 H         1 RES1    0.0000
     52 H21        5.7895    5.4998    7.3286 H         1 RES1    0.0000
     53 H22        5.8181    4.1339    8.1836 H         1 RES1    0.0000
     54 H23        4.8957    4.3943    6.9520 H         1 RES1    0.0000
     55 H24        2.4577    7.4366   10.3218 H         1 RES1    0.0000
     56 H25        2.4362    8.4229    9.1376 H         1 RES1    0.0000
     57 H26        1.1573    7.9187    9.5761 H         1 RES1    0.0000
     58 H27        1.7000    7.6416    6.8342 H         1 RES1    0.0000
     59 H28        0.3910    7.0958    7.4621 H         1 RES1    0.0000
     60 H29        1.2967    6.1593    6.6176 H         1 RES1    0.0000
@<TRIPOS>BOND
     1    1    8 1
     2    2   12 1
     3    3   21 1
     4    4   22 2
     5    5    7 1
     6    6   15 2
     7    7   26 1
     8    8   32 1
     9    9   10 ar
    10   10    1 1
    11   11    9 ar
    12   12   10 ar
    13   13   11 ar
    14   14   12 ar
    15   15   14 1
    16   16    6 1
    17   17   16 ar
    18   18   16 ar
    19   19   17 ar
    20   20   18 ar
    21   21   19 ar
    22   22    3 1
    23   23   22 1
    24   24   23 1
    25   25   23 1
    26   26   24 1
    27   27    7 1
    28   28   26 1
    29   29   26 1
    30   30   27 1
    31   31   27 1
    32   33    8 1
    33   34    8 1
    34   35    9 1
    35   36   11 1
    36   37    2 1
    37   38   13 1
    38   39   15 1
    39   40   17 1
    40   41   18 1
    41   42   19 1
    42   43   20 1
    43   44   23 1
    44   45   24 1
    45   46   24 1
    46   47   25 1
    47   48   25 1
    48   49   28 1
    49   50   28 1
    50   51   28 1
    51   52   29 1
    52   53   29 1
    53   54   29 1
    54   55   30 1
    55   56   30 1
    56   57   30 1
    57   58   31 1
    58   59   31 1
    59   60   31 1
    60   13   14 ar
    61   20   21 ar
    62   25   27 1
@<TRIPOS>SUBSTRUCTURE
     1 RES1 1

@<TRIPOS>CRYSIN
   7.7555   27.7070   11.0378  90.0000 107.6629  90.0000  14 1

