# MOL2 file generated by ConQuest
# Please check atom types

@<TRIPOS>MOLECULE
HAKZAV
    47    48     1
SMALL
NO_CHARGES
****
Generated from CSD

@<TRIPOS>ATOM
      1 O1        -3.7703   -2.8282    0.3876 O.3       1 RES1    0.0000
      2 O2        -2.3764   -1.3062    1.9893 O.3       1 RES1    0.0000
      3 O3         2.1364    3.2977    6.0352 O.2       1 RES1    0.0000
      4 N1        -0.2231   -0.9324    3.4133 N.2       1 RES1    0.0000
      5 N2         1.5401    2.3376    5.4242 N.3       1 RES1    0.0000
      6 C1        -4.6519   -3.6816   -0.3257 C.3       1 RES1    0.0000
      7 C2        -2.6608   -3.3990    0.9475 C.ar      1 RES1    0.0000
      8 C3        -2.2235   -4.6774    0.7039 C.ar      1 RES1    0.0000
      9 C4        -1.9232   -2.5701    1.7941 C.ar      1 RES1    0.0000
     10 C5        -1.0663   -5.1380    1.2961 C.ar      1 RES1    0.0000
     11 C6        -0.7523   -3.0285    2.3756 C.ar      1 RES1    0.0000
     12 C7        -0.3347   -4.3391    2.1104 C.ar      1 RES1    0.0000
     13 C8         0.0871   -2.1273    3.1684 C.2       1 RES1    0.0000
     14 C9         0.7276   -0.0957    4.1643 C.3       1 RES1    0.0000
     15 C10        1.0329    1.1293    3.3326 C.3       1 RES1    0.0000
     16 C11        0.0797    0.3494    5.4430 C.3       1 RES1    0.0000
     17 C12        1.9527    2.1373    4.0082 C.3       1 RES1    0.0000
     18 C13        0.9483    1.2940    6.2842 C.3       1 RES1    0.0000
     19 C14        1.8571    3.4746    3.2976 C.3       1 RES1    0.0000
     20 C15        3.4117    1.6756    3.9907 C.3       1 RES1    0.0000
     21 C16        0.0669    1.9904    7.3112 C.3       1 RES1    0.0000
     22 C17        2.0637    0.5441    7.0164 C.3       1 RES1    0.0000
     23 H1        -4.9362   -4.3892    0.2234 H         1 RES1    0.0000
     24 H2        -4.1939   -4.0365   -1.0916 H         1 RES1    0.0000
     25 H3        -5.4024   -3.1809   -0.6299 H         1 RES1    0.0000
     26 H4        -2.7224   -5.1825    0.1252 H         1 RES1    0.0000
     27 H5        -1.8988   -0.9068    2.4227 H         1 RES1    0.0000
     28 H6        -0.7954   -6.0092    1.1467 H         1 RES1    0.0000
     29 H7         0.5231   -4.6128    2.4725 H         1 RES1    0.0000
     30 H8         0.9778   -2.4855    3.4618 H         1 RES1    0.0000
     31 H9         1.5988   -0.5652    4.3245 H         1 RES1    0.0000
     32 H10        1.4647    0.8712    2.4954 H         1 RES1    0.0000
     33 H11        0.1588    1.5855    3.1657 H         1 RES1    0.0000
     34 H12       -0.7753    0.8133    5.3488 H         1 RES1    0.0000
     35 H13       -0.1253   -0.3827    5.9814 H         1 RES1    0.0000
     36 H14        2.1049    3.3445    2.3594 H         1 RES1    0.0000
     37 H15        1.0359    3.8830    3.4739 H         1 RES1    0.0000
     38 H16        2.5219    4.1155    3.6596 H         1 RES1    0.0000
     39 H17        3.6866    1.6656    3.0472 H         1 RES1    0.0000
     40 H18        3.5181    0.7165    4.3272 H         1 RES1    0.0000
     41 H19        3.9622    2.2230    4.5708 H         1 RES1    0.0000
     42 H20       -0.6978    2.4622    6.9181 H         1 RES1    0.0000
     43 H21       -0.2494    1.2717    7.7849 H         1 RES1    0.0000
     44 H22        0.5725    2.6135    7.8132 H         1 RES1    0.0000
     45 H23        1.6775   -0.1702    7.6396 H         1 RES1    0.0000
     46 H24        2.6277    1.2194    7.4040 H         1 RES1    0.0000
     47 H25        2.6964    0.1235    6.3286 H         1 RES1    0.0000
@<TRIPOS>BOND
     1    1    6 1
     2    2    9 1
     3    3    5 1
     4    4   13 2
     5    5   17 1
     6    6   23 1
     7    7    1 1
     8    8    7 ar
     9    9    7 ar
    10   10    8 ar
    11   11    9 ar
    12   12   10 ar
    13   13   11 1
    14   14    4 1
    15   15   14 1
    16   16   14 1
    17   17   15 1
    18   18    5 1
    19   19   17 1
    20   20   17 1
    21   21   18 1
    22   22   18 1
    23   24    6 1
    24   25    6 1
    25   26    8 1
    26   27    2 1
    27   28   10 1
    28   29   12 1
    29   30   13 1
    30   31   14 1
    31   32   15 1
    32   33   15 1
    33   34   16 1
    34   35   16 1
    35   36   19 1
    36   37   19 1
    37   38   19 1
    38   39   20 1
    39   40   20 1
    40   41   20 1
    41   42   21 1
    42   43   21 1
    43   44   21 1
    44   45   22 1
    45   46   22 1
    46   47   22 1
    47   11   12 ar
    48   16   18 1
@<TRIPOS>SUBSTRUCTURE
     1 RES1 1

@<TRIPOS>CRYSIN
  11.2870   11.1260   13.8230  90.0000 103.1700  90.0000  14 2

