# MOL2 file generated by ConQuest
# Please check atom types

@<TRIPOS>MOLECULE
HALJUZ02
    45    40     2
SMALL
NO_CHARGES
****
Generated from CSD

@<TRIPOS>ATOM
      1 C1         4.1392    3.8685    3.4757 C.ar      1 RES1    0.0000
      2 C2         4.6040    4.5039    2.3352 C.ar      1 RES1    0.0000
      3 C3         4.1482    2.4839    3.4402 C.ar      1 RES1    0.0000
      4 C4         4.6040    1.7866    2.3352 C.ar      1 RES1    0.0000
      5 C5         3.6119    4.6248    4.6938 C.3       1 RES1    0.0000
      6 C6         4.2800    4.1848    5.9688 C.3       1 RES1    0.0000
      7 C7         2.1324    4.4954    4.8012 C.3       1 RES1    0.0000
      8 C8         4.6040    0.2727    2.3352 C.3       1 RES1    0.0000
      9 C9         5.8832   -0.2980    2.5463 C.3       1 RES1    0.0000
     10 C10        3.9949   -0.3683    1.2498 Du        2 SUP2    0.0000
     11 N1         4.6040    5.9883    2.3352 N.pl3     1 RES1    0.0000
     12 O1         5.6254    6.5507    2.6463 O.2       1 RES1    0.0000
     13 H1         3.8200    2.0242    4.2688 H         1 RES1    0.0000
     14 H2         3.8293    5.5961    4.5770 H         1 RES1    0.0000
     15 H3         4.0598    3.2092    6.0903 H         1 RES1    0.0000
     16 H4         5.2676    4.2733    6.0435 H         1 RES1    0.0000
     17 H5         3.9320    4.6810    6.7721 H         1 RES1    0.0000
     18 H6         1.8151    5.0043    5.5952 H         1 RES1    0.0000
     19 H7         1.6073    4.5826    3.9605 H         1 RES1    0.0000
     20 H8         1.9723    3.5171    4.9040 H         1 RES1    0.0000
     21 H9         4.0393   -0.1002    3.0728 Du        2 SUP2    0.0000
     22 H10        6.5688    0.1151    1.9674 H         1 RES1    0.0000
     23 H11        6.1491   -0.1781    3.5174 H         1 RES1    0.0000
     24 H12        5.8564   -1.2782    2.3244 H         1 RES1    0.0000
     25 H13        5.5873   -1.2435    3.1630 Du        2 SUP2    0.0000
     26 H14        3.3467    0.1983    0.7512 Du        2 SUP2    0.0000
     27 H15        4.4749   -0.0240    0.4147 Du        2 SUP2    0.0000
     28 C1E        5.0688    3.8685    1.1947 C.ar      1 RES1    0.0000
     29 C3E        5.0598    2.4839    1.2302 C.ar      1 RES1    0.0000
     30 C9E        3.3248   -0.2980    2.1241 C.3       1 RES1    0.0000
     31 H10E       2.6392    0.1151    2.7031 H         1 RES1    0.0000
     32 H11E       3.0589   -0.1781    1.1530 H         1 RES1    0.0000
     33 H12E       3.3516   -1.2782    2.3461 H         1 RES1    0.0000
     34 H1E        5.3880    2.0242    0.4017 H         1 RES1    0.0000
     35 C5E        5.5961    4.6248   -0.0234 C.3       1 RES1    0.0000
     36 C6E        4.9280    4.1848   -1.2984 C.3       1 RES1    0.0000
     37 H3E        5.1482    3.2092   -1.4198 H         1 RES1    0.0000
     38 H4E        3.9404    4.2733   -1.3731 H         1 RES1    0.0000
     39 H5E        5.2760    4.6810   -2.1017 H         1 RES1    0.0000
     40 C7E        7.0756    4.4954   -0.1308 C.3       1 RES1    0.0000
     41 H6E        7.3929    5.0043   -0.9247 H         1 RES1    0.0000
     42 H7E        7.6008    4.5826    0.7099 H         1 RES1    0.0000
     43 H8E        7.2357    3.5171   -0.2335 H         1 RES1    0.0000
     44 H2E        5.3787    5.5961    0.0934 H         1 RES1    0.0000
     45 O1E        3.5826    6.5507    2.0242 O.2       1 RES1    0.0000
@<TRIPOS>BOND
     1    1    2 ar
     2    2   11 1
     3    3    1 ar
     4    4    3 ar
     5    5    1 1
     6    6    5 1
     7    7    5 1
     8    8    4 1
     9    9    8 1
    10   11   12 2
    11   13    3 1
    12   14    5 1
    13   15    6 1
    14   16    6 1
    15   17    6 1
    16   18    7 1
    17   19    7 1
    18   20    7 1
    19   22    9 1
    20   23    9 1
    21   24    9 1
    22   28    2 ar
    23   29    4 ar
    24   30    8 1
    25   31   30 1
    26   32   30 1
    27   33   30 1
    28   34   29 1
    29   35   28 1
    30   36   35 1
    31   37   36 1
    32   38   36 1
    33   39   36 1
    34   40   35 1
    35   41   40 1
    36   42   40 1
    37   43   40 1
    38   44   35 1
    39   45   11 2
    40   28   29 ar
@<TRIPOS>SUBSTRUCTURE
     1 RES1 1
     2 SUP2 10

@<TRIPOS>CRYSIN
  11.9690   14.0570   10.8510  90.0000 120.5900  90.0000  15 1

