# MOL2 file generated by ConQuest
# Please check atom types

@<TRIPOS>MOLECULE
HALROB
    47    48     1
SMALL
NO_CHARGES
****
Generated from CSD

@<TRIPOS>ATOM
      1 C1         2.2747   -0.9131   14.8681 C.2       1 RES1    0.0000
      2 O1         1.3506   -0.1246   14.9283 O.2       1 RES1    0.0000
      3 C2         2.9732   -1.4311   16.1083 C.3       1 RES1    0.0000
      4 C3         2.2869   -0.9205   17.3605 C.2       1 RES1    0.0000
      5 O2         2.4843    0.2151   17.7880 O.2       1 RES1    0.0000
      6 N1         1.4455   -1.7857   17.9264 N.am      1 RES1    0.0000
      7 C4         0.6436   -1.4505   19.0864 C.3       1 RES1    0.0000
      8 C5         4.4560   -0.9972   16.0501 C.3       1 RES1    0.0000
      9 C6         5.1048   -1.5170   14.7437 C.3       1 RES1    0.0000
     10 C7         6.5408   -1.0359   14.6895 C.2       1 RES1    0.0000
     11 O3         6.7921    0.1588   14.4287 O.2       1 RES1    0.0000
     12 N2         7.5080   -1.8872   14.9344 N.am      1 RES1    0.0000
     13 C8         8.8963   -1.4708   14.9905 C.3       1 RES1    0.0000
     14 C9         4.3403   -1.0276   13.4835 C.3       1 RES1    0.0000
     15 O4         4.3588    0.4127   13.4574 O.3       1 RES1    0.0000
     16 C10        4.9512   -1.5899   12.2092 C.3       1 RES1    0.0000
     17 C11        2.8623   -1.3960   13.5818 C.3       1 RES1    0.0000
     18 C12        5.2146   -1.4320   17.2883 C.ar      1 RES1    0.0000
     19 C13        5.3963   -2.7644   17.5993 C.ar      1 RES1    0.0000
     20 C14        6.1300   -3.0847   18.7292 C.ar      1 RES1    0.0000
     21 N3         6.3292   -4.5260   19.0302 N.pl3     1 RES1    0.0000
     22 O5         7.1306   -4.7947   19.9172 O.2       1 RES1    0.0000
     23 O6         5.7485   -5.3422   18.4161 O.2       1 RES1    0.0000
     24 C15        6.6554   -2.1107   19.5660 C.ar      1 RES1    0.0000
     25 C16        6.4421   -0.8282   19.2509 C.ar      1 RES1    0.0000
     26 C17        5.7430   -0.4681   18.1311 C.ar      1 RES1    0.0000
     27 H1         2.9375   -2.3903   16.1081 H         1 RES1    0.0000
     28 H2         1.3776   -2.6157   17.5869 H         1 RES1    0.0000
     29 H3         0.1072   -2.2011   19.3523 H         1 RES1    0.0000
     30 H4         1.2207   -1.1972   19.8106 H         1 RES1    0.0000
     31 H5         0.0720   -0.7132   18.8598 H         1 RES1    0.0000
     32 H6         4.4725   -0.0379   16.0192 H         1 RES1    0.0000
     33 H7         5.0911   -2.4772   14.7578 H         1 RES1    0.0000
     34 H8         7.3044   -2.7551   15.0566 H         1 RES1    0.0000
     35 H9         9.0020   -0.8257   15.6945 H         1 RES1    0.0000
     36 H10        9.1526   -1.0767   14.1545 H         1 RES1    0.0000
     37 H11        9.4529   -2.2325   15.1700 H         1 RES1    0.0000
     38 H12        5.1088    0.6851   13.7502 H         1 RES1    0.0000
     39 H13        4.9086   -2.5488   12.2232 H         1 RES1    0.0000
     40 H14        5.8675   -1.3111   12.1435 H         1 RES1    0.0000
     41 H15        4.4604   -1.2583   11.4542 H         1 RES1    0.0000
     42 H16        2.3836   -1.0081   12.8453 H         1 RES1    0.0000
     43 H17        2.7713   -2.3501   13.5282 H         1 RES1    0.0000
     44 H18        5.0244   -3.4623   17.0547 H         1 RES1    0.0000
     45 H19        7.1444   -2.3465   20.3574 H         1 RES1    0.0000
     46 H20        6.7799   -0.1241   19.8088 H         1 RES1    0.0000
     47 H21        5.6010    0.4496   17.8877 H         1 RES1    0.0000
@<TRIPOS>BOND
     1    1    2 2
     2    3    1 1
     3    4    3 1
     4    5    4 2
     5    6    4 1
     6    7    6 1
     7    8    3 1
     8    9    8 1
     9   10    9 1
    10   11   10 2
    11   12   10 1
    12   13   12 1
    13   14    9 1
    14   15   14 1
    15   16   14 1
    16   17    1 1
    17   18    8 1
    18   19   18 ar
    19   20   19 ar
    20   21   20 1
    21   22   21 2
    22   23   21 2
    23   24   20 ar
    24   25   24 ar
    25   26   18 ar
    26   27    3 1
    27   28    6 1
    28   29    7 1
    29   30    7 1
    30   31    7 1
    31   32    8 1
    32   33    9 1
    33   34   12 1
    34   35   13 1
    35   36   13 1
    36   37   13 1
    37   38   15 1
    38   39   16 1
    39   40   16 1
    40   41   16 1
    41   42   17 1
    42   43   17 1
    43   44   19 1
    44   45   24 1
    45   46   25 1
    46   47   26 1
    47   14   17 1
    48   25   26 ar
@<TRIPOS>SUBSTRUCTURE
     1 RES1 1

@<TRIPOS>CRYSIN
  10.1960    9.2330   20.0680  90.0000  90.3300  90.0000 231 1

