# MOL2 file generated by ConQuest
# Please check atom types

@<TRIPOS>MOLECULE
HALSIW
    31    32     1
SMALL
NO_CHARGES
****
Generated from CSD

@<TRIPOS>ATOM
      1 N1        13.6480    0.5910    0.8667 N.2       1 RES1    0.0000
      2 C1        12.8574    1.3379    1.6071 C.2       1 RES1    0.0000
      3 C2        13.5451    1.9537    2.6622 C.2       1 RES1    0.0000
      4 C3        14.8212    1.5460    2.5072 C.2       1 RES1    0.0000
      5 O1        14.9146    0.7135    1.4390 O.3       1 RES1    0.0000
      6 N2        11.5187    1.3918    1.2446 N.am      1 RES1    0.0000
      7 C4        10.6019    2.2723    1.7895 C.2       1 RES1    0.0000
      8 C5         9.2335    2.2055    1.1874 C.ar      1 RES1    0.0000
      9 C6         8.3955    1.0963    1.5344 C.ar      1 RES1    0.0000
     10 C7         7.1100    1.0955    1.0348 C.ar      1 RES1    0.0000
     11 C8         6.6899    2.0642    0.1800 C.ar      1 RES1    0.0000
     12 C9         7.5305    3.1237   -0.1741 C.ar      1 RES1    0.0000
     13 C10        8.8103    3.1879    0.3481 C.ar      1 RES1    0.0000
     14 C11        9.7079    4.3442   -0.0012 C.3       1 RES1    0.0000
     15 O2        10.8813    3.0423    2.6717 O.2       1 RES1    0.0000
     16 C12       16.0874    1.8226    3.2296 C.3       1 RES1    0.0000
     17 C13        8.8543   -0.0171    2.4345 C.3       1 RES1    0.0000
     18 H1        13.1568    2.5010    3.3143 H         1 RES1    0.0000
     19 H2        11.1319    0.8565    0.5246 H         1 RES1    0.0000
     20 H3         6.4925    0.3426    1.2518 H         1 RES1    0.0000
     21 H4         5.7986    2.0556   -0.1788 H         1 RES1    0.0000
     22 H5         7.1759    3.8200   -0.8107 H         1 RES1    0.0000
     23 H6         9.2013    4.8735   -0.5961 H         1 RES1    0.0000
     24 H7        10.7752    4.1369   -0.2146 H         1 RES1    0.0000
     25 H8         9.7628    4.9763    0.7272 H         1 RES1    0.0000
     26 H9        15.8235    2.4068    4.0892 H         1 RES1    0.0000
     27 H10       16.7269    2.5095    2.6705 H         1 RES1    0.0000
     28 H11       16.5586    0.9935    3.3739 H         1 RES1    0.0000
     29 H12        9.4655   -0.6766    1.9910 H         1 RES1    0.0000
     30 H13        7.9955   -0.4454    2.7778 H         1 RES1    0.0000
     31 H14        9.4005    0.2741    3.2547 H         1 RES1    0.0000
@<TRIPOS>BOND
     1    1    2 2
     2    2    3 1
     3    3    4 2
     4    4    5 1
     5    5    1 1
     6    6    2 1
     7    7    6 1
     8    8    7 1
     9    9    8 ar
    10   10    9 ar
    11   11   10 ar
    12   12   11 ar
    13   13    8 ar
    14   14   13 1
    15   15    7 2
    16   16    4 1
    17   17    9 1
    18   18    3 1
    19   19    6 1
    20   20   10 1
    21   21   11 1
    22   22   12 1
    23   23   14 1
    24   24   14 1
    25   25   14 1
    26   26   16 1
    27   27   16 1
    28   28   16 1
    29   29   17 1
    30   30   17 1
    31   31   17 1
    32   12   13 ar
@<TRIPOS>SUBSTRUCTURE
     1 RES1 1

@<TRIPOS>CRYSIN
  12.2260    8.5650   12.6750  90.0000 109.8500  90.0000 231 1

