# MOL2 file generated by ConQuest
# Please check atom types

@<TRIPOS>MOLECULE
HALYAW
    33    31     2
SMALL
NO_CHARGES
****
Generated from CSD

@<TRIPOS>ATOM
      1 O1         0.5419    1.8729   14.4338 O.2       1 RES1    0.0000
      2 O2         3.2588    1.3512   11.4206 O.3       1 RES1    0.0000
      3 O3        -0.4253    3.4511   13.2886 O.2       1 RES1    0.0000
      4 C1         1.3600    2.4271   12.3616 C.2       1 RES1    0.0000
      5 N1         0.4728    2.5814   13.3931 N.pl3     1 RES1    0.0000
      6 C2         2.9811    1.9256   10.1733 C.ar      1 RES1    0.0000
      7 C3         1.9942    2.8636   10.0200 C.ar      1 RES1    0.0000
      8 C4         2.3840    1.4643   12.4266 C.2       1 RES1    0.0000
      9 N2         2.5992    0.6046   13.3927 N.3       1 RES1    0.0000
     10 H1         2.0915    0.6488   14.0852 H         1 RES1    0.0000
     11 C5         1.2143    3.3729   11.2103 C.3       1 RES1    0.0000
     12 H2         0.2665    3.4132   10.9633 H         1 RES1    0.0000
     13 C6         3.5388    2.0039    7.8723 C.ar      1 RES1    0.0000
     14 H3         4.0616    1.7325    7.1527 H         1 RES1    0.0000
     15 C7         1.7659    3.3403    8.7279 C.ar      1 RES1    0.0000
     16 H4         1.0835    3.9550    8.5800 H         1 RES1    0.0000
     17 C8         2.5274    2.9194    7.6814 C.ar      1 RES1    0.0000
     18 H5         2.3635    3.2527    6.8282 H         1 RES1    0.0000
     19 C9         3.7781    1.4868    9.1367 C.ar      1 RES1    0.0000
     20 H6         4.4539    0.8643    9.2805 H         1 RES1    0.0000
     21 C10        3.6370   -0.4194   13.3789 C.3       1 RES1    0.0000
     22 H7         4.4473   -0.0589   13.7460 H         1 RES1    0.0000
     23 H8         3.7942   -0.7039   12.4758 H         1 RES1    0.0000
     24 H9         3.3530   -1.1698   13.9060 H         1 RES1    0.0000
     25 C11        1.6639    4.7806   11.6251 C.3       1 RES1    0.0000
     26 H10        1.4424    4.9349   12.5566 H         1 RES1    0.0000
     27 H11        2.6258    4.8604   11.5243 H         1 RES1    0.0000
     28 N3         0.9834    5.7899   10.7724 N.pl3     1 RES1    0.0000
     29 O4        -0.1320    5.5759   10.3466 O.2       1 RES1    0.0000
     30 O5         1.5617    6.8364   10.5668 O.2       1 RES1    0.0000
     31 N4         1.2684    5.9139   10.7504 Du        2 SUP2    0.0000
     32 O6         0.1105    5.9969   10.3994 Du        2 SUP2    0.0000
     33 O7         2.2304    6.4069   10.2012 Du        2 SUP2    0.0000
@<TRIPOS>BOND
     1    1    5 2
     2    2    6 1
     3    3    5 2
     4    4    5 1
     5    6    7 ar
     6    7   11 1
     7    8    2 1
     8    9    8 1
     9   10    9 1
    10   11    4 1
    11   12   11 1
    12   13   14 1
    13   15    7 ar
    14   16   15 1
    15   17   13 ar
    16   18   17 1
    17   19    6 ar
    18   20   19 1
    19   21    9 1
    20   22   21 1
    21   23   21 1
    22   24   21 1
    23   25   11 1
    24   26   25 1
    25   27   25 1
    26   28   25 1
    27   29   28 2
    28   30   28 2
    29    4    8 2
    30   13   19 ar
    31   15   17 ar
@<TRIPOS>SUBSTRUCTURE
     1 RES1 1
     2 SUP2 31

@<TRIPOS>CRYSIN
   5.1041    7.7519   14.7974  90.0000  97.0880  90.0000   4 1

