# MOL2 file generated by ConQuest
# Please check atom types

@<TRIPOS>MOLECULE
HAMGUY
    32    34     1
SMALL
NO_CHARGES
****
Generated from CSD

@<TRIPOS>ATOM
      1 O1         4.6125    7.4438   -2.0153 O.3       1 RES1    0.0000
      2 O2         3.1834    5.8379   -1.5310 O.2       1 RES1    0.0000
      3 O3         5.8843    5.6789    2.2001 O.3       1 RES1    0.0000
      4 N1         4.8076    6.2815   -0.0051 N.am      1 RES1    0.0000
      5 H1         4.4326    5.6654    0.5212 H         1 RES1    0.0000
      6 N2         6.5268    6.7663    1.5381 N.2       1 RES1    0.0000
      7 C1         4.1551    6.4659   -1.1864 C.2       1 RES1    0.0000
      8 C2         5.9436    6.9664    0.4064 C.2       1 RES1    0.0000
      9 C3         6.4323    7.9920   -0.5084 C.ar      1 RES1    0.0000
     10 C4         7.5608    8.7792   -0.2604 C.ar      1 RES1    0.0000
     11 H2         8.0831    8.6284    0.5191 H         1 RES1    0.0000
     12 C5         7.9181    9.7784   -1.1507 C.ar      1 RES1    0.0000
     13 H3         8.6945   10.3007   -0.9870 H         1 RES1    0.0000
     14 C6         7.1444   10.0236   -2.2870 C.ar      1 RES1    0.0000
     15 H4         7.3802   10.7266   -2.8804 H         1 RES1    0.0000
     16 C7         6.0337    9.2403   -2.5484 C.ar      1 RES1    0.0000
     17 H5         5.5008    9.4014   -3.3180 H         1 RES1    0.0000
     18 C8         5.7096    8.2172   -1.6708 C.ar      1 RES1    0.0000
     19 C9         5.9483    5.9087    3.6157 C.3       1 RES1    0.0000
     20 H6         6.8852    6.1025    3.8705 H         1 RES1    0.0000
     21 H7         5.6686    5.0864    4.0898 H         1 RES1    0.0000
     22 C10        5.0712    7.0540    4.0556 C.ar      1 RES1    0.0000
     23 C11        3.8582    7.3056    3.4086 C.ar      1 RES1    0.0000
     24 H8         3.5855    6.7519    2.6862 H         1 RES1    0.0000
     25 C12        3.0489    8.3584    3.8141 C.ar      1 RES1    0.0000
     26 H9         2.2317    8.5311    3.3619 H         1 RES1    0.0000
     27 C13        3.4363    9.1614    4.8848 C.ar      1 RES1    0.0000
     28 H10        2.8881    9.8880    5.1562 H         1 RES1    0.0000
     29 C14        4.6261    8.9000    5.5560 C.ar      1 RES1    0.0000
     30 H11        4.8794    9.4325    6.3008 H         1 RES1    0.0000
     31 C15        5.4443    7.8565    5.1333 C.ar      1 RES1    0.0000
     32 H12        6.2637    7.6894    5.5833 H         1 RES1    0.0000
@<TRIPOS>BOND
     1    1    7 1
     2    2    7 2
     3    3    6 1
     4    4    5 1
     5    6    8 2
     6    7    4 1
     7    8    4 1
     8    9    8 1
     9   10    9 ar
    10   11   10 1
    11   12   10 ar
    12   13   12 1
    13   14   12 ar
    14   15   14 1
    15   16   14 ar
    16   17   16 1
    17   18    1 1
    18   19    3 1
    19   20   19 1
    20   21   19 1
    21   22   19 1
    22   23   22 ar
    23   24   23 1
    24   25   23 ar
    25   26   25 1
    26   27   25 ar
    27   28   27 1
    28   29   27 ar
    29   30   29 1
    30   31   22 ar
    31   32   31 1
    32    9   18 ar
    33   16   18 ar
    34   29   31 ar
@<TRIPOS>SUBSTRUCTURE
     1 RES1 1

@<TRIPOS>CRYSIN
   5.7539   10.2628   10.7686  81.2460  78.4530  86.1330   2 1

