# MOL2 file generated by ConQuest
# Please check atom types

@<TRIPOS>MOLECULE
HAMQIW
    61    65     1
SMALL
NO_CHARGES
****
Generated from CSD

@<TRIPOS>ATOM
      1 C1         5.2002   -1.4991   13.6040 C.3       1 RES1    0.0000
      2 H1         5.3961   -2.0686   12.8307 H         1 RES1    0.0000
      3 H2         5.6808   -1.8357   14.3879 H         1 RES1    0.0000
      4 H3         5.4873   -0.5818   13.4141 H         1 RES1    0.0000
      5 C2         3.2149   -2.9359   14.1868 C.3       1 RES1    0.0000
      6 H4         2.2534   -2.9221   14.3721 H         1 RES1    0.0000
      7 H5         3.6929   -3.2826   14.9684 H         1 RES1    0.0000
      8 H6         3.3909   -3.5133   13.4141 H         1 RES1    0.0000
      9 C3         3.6963   -1.5163   13.8823 C.3       1 RES1    0.0000
     10 C4         2.9147   -0.9729   12.6946 C.3       1 RES1    0.0000
     11 H7         3.1385   -1.4973   11.8857 H         1 RES1    0.0000
     12 H8         1.9445   -1.0712   12.8653 H         1 RES1    0.0000
     13 C5         3.0047    1.2579   13.5890 C.3       1 RES1    0.0000
     14 C6         3.3502   -0.6076   15.0576 C.3       1 RES1    0.0000
     15 H9         2.3892   -0.7036   15.2753 H         1 RES1    0.0000
     16 H10        3.8720   -0.8850   15.8515 H         1 RES1    0.0000
     17 C7         3.6841    2.5618   13.2385 C.3       1 RES1    0.0000
     18 H11        3.5692    3.1984   13.9745 H         1 RES1    0.0000
     19 H12        3.2843    2.9303   12.4230 H         1 RES1    0.0000
     20 H13        4.6392    2.4023   13.0900 H         1 RES1    0.0000
     21 C8         1.5074    1.4308   13.7953 C.2       1 RES1    0.0000
     22 C9         0.5528    1.4839   12.7404 C.2       1 RES1    0.0000
     23 C10        0.8442    1.4343   11.2747 C.2       1 RES1    0.0000
     24 C11        0.6337    0.1665    9.2844 C.3       1 RES1    0.0000
     25 H14        1.5887   -0.0644    9.1617 H         1 RES1    0.0000
     26 H15        0.4456    1.0009    8.7872 H         1 RES1    0.0000
     27 C12       -0.2367   -0.9442    8.7826 C.3       1 RES1    0.0000
     28 H16       -0.1020   -1.7408    9.3375 H         1 RES1    0.0000
     29 H17       -0.0006   -1.1496    7.8537 H         1 RES1    0.0000
     30 H18       -1.1758   -0.6685    8.8275 H         1 RES1    0.0000
     31 C13        0.7537    1.5898   14.9118 C.2       1 RES1    0.0000
     32 C14        1.0344    1.6391   16.3725 C.3       1 RES1    0.0000
     33 H19        1.8002    1.0419   16.5674 H         1 RES1    0.0000
     34 H20        0.2482    1.2843   16.8570 H         1 RES1    0.0000
     35 C15        1.3550    3.0426   16.9169 C.3       1 RES1    0.0000
     36 C16        0.2523    4.0646   16.7666 C.ar      1 RES1    0.0000
     37 C17       -1.0746    4.0135   17.1492 C.ar      1 RES1    0.0000
     38 H21       -1.4410    3.2311   17.5441 H         1 RES1    0.0000
     39 C18       -1.8573    5.1449   16.9371 C.ar      1 RES1    0.0000
     40 H22       -2.7687    5.1370   17.2041 H         1 RES1    0.0000
     41 C19       -1.3306    6.2838   16.3433 C.ar      1 RES1    0.0000
     42 H23       -1.8832    7.0476   16.2231 H         1 RES1    0.0000
     43 C20       -0.0104    6.3213   15.9245 C.ar      1 RES1    0.0000
     44 H24        0.3498    7.0921   15.5000 H         1 RES1    0.0000
     45 C21        0.7685    5.1939   16.1465 C.ar      1 RES1    0.0000
     46 C22        2.2090    4.9782   15.8858 C.2       1 RES1    0.0000
     47 C23        3.7223    3.3133   16.9430 C.3       1 RES1    0.0000
     48 H25        4.2535    4.1209   17.1595 H         1 RES1    0.0000
     49 H26        4.2779    2.6914   16.4090 H         1 RES1    0.0000
     50 C24        3.1944    2.6351   18.2175 C.3       1 RES1    0.0000
     51 H27        3.3429    1.6577   18.1779 H         1 RES1    0.0000
     52 H28        3.6550    2.9935   19.0177 H         1 RES1    0.0000
     53 N1        -0.6746    1.6461   13.1653 N.2       1 RES1    0.0000
     54 N2         2.4875    3.6628   16.2362 N.am      1 RES1    0.0000
     55 O1         3.2219    0.4142   12.4657 O.3       1 RES1    0.0000
     56 O2         3.6367    0.7725   14.7558 O.3       1 RES1    0.0000
     57 O3         0.3345    0.3455   10.7070 O.3       1 RES1    0.0000
     58 O4         1.4697    2.2884   10.7068 O.2       1 RES1    0.0000
     59 O5         1.7797    2.9307   18.2724 O.3       1 RES1    0.0000
     60 O6         3.0383    5.7684   15.4777 O.2       1 RES1    0.0000
     61 O7        -0.5551    1.7214   14.5674 O.3       1 RES1    0.0000
@<TRIPOS>BOND
     1    1    2 1
     2    3    1 1
     3    4    1 1
     4    5    6 1
     5    7    5 1
     6    8    5 1
     7    9    1 1
     8   10    9 1
     9   11   10 1
    10   12   10 1
    11   13   17 1
    12   14    9 1
    13   15   14 1
    14   16   14 1
    15   17   18 1
    16   19   17 1
    17   20   17 1
    18   21   13 1
    19   22   21 1
    20   23   22 1
    21   24   25 1
    22   26   24 1
    23   27   24 1
    24   28   27 1
    25   29   27 1
    26   30   27 1
    27   31   21 2
    28   32   31 1
    29   33   32 1
    30   34   32 1
    31   35   32 1
    32   36   35 1
    33   37   36 ar
    34   38   37 1
    35   39   37 ar
    36   40   39 1
    37   41   39 ar
    38   42   41 1
    39   43   41 ar
    40   44   43 1
    41   45   36 ar
    42   46   45 1
    43   47   48 1
    44   49   47 1
    45   50   47 1
    46   51   50 1
    47   52   50 1
    48   53   22 2
    49   54   35 1
    50   55   10 1
    51   56   13 1
    52   57   23 1
    53   58   23 2
    54   59   35 1
    55   60   46 2
    56   61   31 1
    57    5    9 1
    58   13   55 1
    59   14   56 1
    60   24   57 1
    61   43   45 ar
    62   46   54 1
    63   47   54 1
    64   50   59 1
    65   53   61 1
@<TRIPOS>SUBSTRUCTURE
     1 RES1 1

@<TRIPOS>CRYSIN
  13.3020   11.7070   14.4120  90.0000  91.7600  90.0000 231 1

