# MOL2 file generated by ConQuest
# Please check atom types

@<TRIPOS>MOLECULE
HAMQOC
    32    34     1
SMALL
USER_CHARGES
****
Generated from CSD

@<TRIPOS>ATOM
      1 O1         6.7597    0.6684    0.7056 O.2       1 RES1   -1.0000
      2 O2         7.3890    2.4790    3.2003 O.2       1 RES1   -1.0000
      3 N1         7.4509    1.6714    0.2322 N.pl3     1 RES1    1.0000
      4 N2         8.2998    1.5682    3.2003 N.pl3     1 RES1    1.0000
      5 C1         7.0310    2.3186   -0.8849 C.ar      1 RES1    0.0000
      6 H1         6.1774    1.9933   -1.2635 H         1 RES1    0.0000
      7 C2         7.7622    3.3581   -1.4039 C.ar      1 RES1    0.0000
      8 H2         7.4109    3.7400   -2.1839 H         1 RES1    0.0000
      9 C3         8.9325    3.7696   -0.7946 C.ar      1 RES1    0.0000
     10 H3         9.4338    4.4801   -1.1393 H         1 RES1    0.0000
     11 C4         9.3506    3.1055    0.3458 C.ar      1 RES1    0.0000
     12 H4        10.1936    3.3453    0.7450 H         1 RES1    0.0000
     13 C5         8.6059    2.0621    0.8547 C.ar      1 RES1    0.0000
     14 C6         8.9943    1.2911    2.0516 C.ar      1 RES1    0.0000
     15 C7        10.0012    0.3464    2.0603 C.ar      1 RES1    0.0000
     16 H5        10.4996    0.2072    1.2852 H         1 RES1    0.0000
     17 C8        10.2627   -0.3947    3.2003 C.ar      1 RES1    0.0000
     18 H6        10.9732   -1.1052    3.2003 H         1 RES1    0.0000
     19 C6G        8.5769    0.8737    4.3489 C.ar      1 RES1    0.0000
     20 C5G        7.8059    1.2621    5.5458 C.ar      1 RES1    0.0000
     21 N1G        8.1966    2.4171    6.1683 N.pl3     1 RES1    1.0000
     22 O1G        9.1996    3.1083    5.6949 O.2       1 RES1   -1.0000
     23 C1G        7.5494    2.8371    7.2854 C.ar      1 RES1    0.0000
     24 H1G        7.8747    3.6906    7.6640 H         1 RES1    0.0000
     25 C2G        6.5099    2.1058    7.8044 C.ar      1 RES1    0.0000
     26 H2G        6.1280    2.4571    8.5844 H         1 RES1    0.0000
     27 C3G        6.0984    0.9355    7.1951 C.ar      1 RES1    0.0000
     28 H3G        5.3879    0.4342    7.5398 H         1 RES1    0.0000
     29 C4G        6.7625    0.5174    6.0547 C.ar      1 RES1    0.0000
     30 H4G        6.5227   -0.3256    5.6555 H         1 RES1    0.0000
     31 C7G        9.5216   -0.1332    4.3402 C.ar      1 RES1    0.0000
     32 H5G        9.6608   -0.6316    5.1153 H         1 RES1    0.0000
@<TRIPOS>BOND
     1    1    3 1
     2    2    4 1
     3    3    5 ar
     4    4   14 ar
     5    5    6 1
     6    7    5 ar
     7    8    7 1
     8    9    7 ar
     9   10    9 1
    10   11    9 ar
    11   12   11 1
    12   13    3 ar
    13   14   13 1
    14   15   14 ar
    15   16   15 1
    16   17   15 ar
    17   18   17 1
    18   19    4 ar
    19   20   19 1
    20   21   20 ar
    21   22   21 1
    22   23   21 ar
    23   24   23 1
    24   25   23 ar
    25   26   25 1
    26   27   25 ar
    27   28   27 1
    28   29   20 ar
    29   30   29 1
    30   31   17 ar
    31   32   31 1
    32   11   13 ar
    33   19   31 ar
    34   27   29 ar
@<TRIPOS>SUBSTRUCTURE
     1 RES1 1

@<TRIPOS>CRYSIN
   9.8680    9.8680   12.8010  90.0000  90.0000  90.0000  96 1

