# MOL2 file generated by ConQuest
# Please check atom types

@<TRIPOS>MOLECULE
HAMTIZ
    26    26     1
SMALL
NO_CHARGES
****
Generated from CSD

@<TRIPOS>ATOM
      1 C1        -1.9289    2.5581    2.9924 C.ar      1 RES1    0.0000
      2 C2        -1.2917    1.9524    1.9083 C.ar      1 RES1    0.0000
      3 C3        -0.2847    1.0332    2.1285 C.ar      1 RES1    0.0000
      4 C4         0.1216    0.7095    3.4245 C.ar      1 RES1    0.0000
      5 C5        -0.5126    1.3482    4.4981 C.ar      1 RES1    0.0000
      6 C6        -1.5345    2.2751    4.2762 C.ar      1 RES1    0.0000
      7 N1        -0.1480    1.0235    5.8183 N.am      1 RES1    0.0000
      8 C7        -0.0325    1.9301    6.8307 C.2       1 RES1    0.0000
      9 O1        -0.1277    3.1327    6.6358 O.2       1 RES1    0.0000
     10 C8         0.2096    1.3492    8.1921 C.3       1 RES1    0.0000
     11 C9         1.2341   -0.2795    3.6306 C.3       1 RES1    0.0000
     12 N2        -1.5777    2.3504    0.5332 N.pl3     1 RES1    0.0000
     13 O2        -1.2989    1.5588   -0.3677 O.2       1 RES1    0.0000
     14 O3        -2.0392    3.4714    0.3433 O.2       1 RES1    0.0000
     15 N3        -3.1133    3.4151    2.8242 N.pl3     1 RES1    0.0000
     16 O4        -3.0997    4.5017    3.3823 O.2       1 RES1    0.0000
     17 O5        -4.0517    2.9657    2.1867 O.2       1 RES1    0.0000
     18 H1        -0.0588    0.1844    6.0224 H         1 RES1    0.0000
     19 H2         0.1643    0.6503    1.3739 H         1 RES1    0.0000
     20 H3        -1.9947    2.6838    5.0030 H         1 RES1    0.0000
     21 H4         0.5527    0.4513    8.1378 H         1 RES1    0.0000
     22 H5        -0.6513    1.3200    8.6594 H         1 RES1    0.0000
     23 H6         0.7782    1.9121    8.7190 H         1 RES1    0.0000
     24 H7         1.7569   -0.4174    2.8620 H         1 RES1    0.0000
     25 H8         1.8295    0.0194    4.3212 H         1 RES1    0.0000
     26 H9         0.9198   -1.1308    3.9291 H         1 RES1    0.0000
@<TRIPOS>BOND
     1    1    2 ar
     2    2    3 ar
     3    3    4 ar
     4    4    5 ar
     5    5    6 ar
     6    6    1 ar
     7    7    5 1
     8    8    7 1
     9    9    8 2
    10   10    8 1
    11   11    4 1
    12   12    2 1
    13   13   12 2
    14   14   12 2
    15   15    1 1
    16   16   15 2
    17   17   15 2
    18   18    7 1
    19   19    3 1
    20   20    6 1
    21   21   10 1
    22   22   10 1
    23   23   10 1
    24   24   11 1
    25   25   11 1
    26   26   11 1
@<TRIPOS>SUBSTRUCTURE
     1 RES1 1

@<TRIPOS>CRYSIN
  12.5693    4.8531   17.2663  90.0000  99.1624  90.0000 231 1

