# MOL2 file generated by ConQuest
# Please check atom types

@<TRIPOS>MOLECULE
HAMTIZ01
    26    26     1
SMALL
NO_CHARGES
****
Generated from CSD

@<TRIPOS>ATOM
      1 C1        -1.9278    2.5576    2.9934 C.ar      1 RES1    0.0000
      2 C2        -1.2913    1.9519    1.9086 C.ar      1 RES1    0.0000
      3 C3        -0.2862    1.0337    2.1299 C.ar      1 RES1    0.0000
      4 C4         0.1210    0.7105    3.4244 C.ar      1 RES1    0.0000
      5 C5        -0.5141    1.3496    4.4979 C.ar      1 RES1    0.0000
      6 C6        -1.5338    2.2742    4.2748 C.ar      1 RES1    0.0000
      7 N1        -0.1484    1.0245    5.8176 N.am      1 RES1    0.0000
      8 C7        -0.0321    1.9296    6.8314 C.2       1 RES1    0.0000
      9 O1        -0.1274    3.1322    6.6358 O.2       1 RES1    0.0000
     10 C8         0.2105    1.3501    8.1906 C.3       1 RES1    0.0000
     11 C9         1.2341   -0.2776    3.6305 C.3       1 RES1    0.0000
     12 N2        -1.5782    2.3499    0.5339 N.pl3     1 RES1    0.0000
     13 O2        -1.2995    1.5583   -0.3675 O.2       1 RES1    0.0000
     14 O3        -2.0388    3.4714    0.3435 O.2       1 RES1    0.0000
     15 N3        -3.1141    3.4146    2.8252 N.pl3     1 RES1    0.0000
     16 O4        -3.0999    4.5022    3.3823 O.2       1 RES1    0.0000
     17 O5        -4.0519    2.9652    2.1865 O.2       1 RES1    0.0000
     18 H1        -0.0452    0.2087    6.0002 H         1 RES1    0.0000
     19 H2         0.1655    0.6746    1.3978 H         1 RES1    0.0000
     20 H3        -1.9934    2.6644    4.9945 H         1 RES1    0.0000
     21 H4         0.5297    0.4562    8.1326 H         1 RES1    0.0000
     22 H5        -0.6609    1.3346    8.6645 H         1 RES1    0.0000
     23 H6         0.7603    1.9218    8.7054 H         1 RES1    0.0000
     24 H7         1.7604   -0.3882    2.8791 H         1 RES1    0.0000
     25 H8         1.8366    0.0097    4.3314 H         1 RES1    0.0000
     26 H9         0.9262   -1.1114    3.9444 H         1 RES1    0.0000
@<TRIPOS>BOND
     1    1    2 ar
     2    2    3 ar
     3    3    4 ar
     4    4    5 ar
     5    5    6 ar
     6    6    1 ar
     7    7    5 1
     8    8    7 1
     9    9    8 2
    10   10    8 1
    11   11    4 1
    12   12    2 1
    13   13   12 2
    14   14   12 2
    15   15    1 1
    16   16   15 2
    17   17   15 2
    18   18    7 1
    19   19    3 1
    20   20    6 1
    21   21   10 1
    22   22   10 1
    23   23   10 1
    24   24   11 1
    25   25   11 1
    26   26   11 1
@<TRIPOS>SUBSTRUCTURE
     1 RES1 1

@<TRIPOS>CRYSIN
  12.5693    4.8531   17.2663  90.0000  99.1624  90.0000 231 1

