# MOL2 file generated by ConQuest
# Please check atom types

@<TRIPOS>MOLECULE
HAMXIF
    30    30     1
SMALL
NO_CHARGES
****
Generated from CSD

@<TRIPOS>ATOM
      1 O1         1.6457   -0.0274    1.7539 O.2       1 RES1    0.0000
      2 O2         3.3649   -1.3290    1.7690 O.2       1 RES1    0.0000
      3 O3         7.5833    4.0973    1.6821 O.2       1 RES1    0.0000
      4 N1         2.8614   -0.2139    1.7585 N.pl3     1 RES1    0.0000
      5 N2         5.7145    5.5162    1.7170 N.2       1 RES1    0.0000
      6 N3         5.5632    7.7641    1.7190 N.3       1 RES1    0.0000
      7 C1         4.0374    3.3167    1.7242 C.ar      1 RES1    0.0000
      8 H1         3.6739    4.1948    1.7163 H         1 RES1    0.0000
      9 C2         3.1854    2.2219    1.7414 C.ar      1 RES1    0.0000
     10 H2         2.2422    2.3371    1.7539 H         1 RES1    0.0000
     11 C3         3.7501    0.9584    1.7414 C.ar      1 RES1    0.0000
     12 C4         5.1165    0.7517    1.7374 C.ar      1 RES1    0.0000
     13 H3         5.4745   -0.1288    1.7387 H         1 RES1    0.0000
     14 C5         5.9482    1.8530    1.7308 C.ar      1 RES1    0.0000
     15 H4         6.8900    1.7290    1.7354 H         1 RES1    0.0000
     16 C6         5.4223    3.1453    1.7183 C.ar      1 RES1    0.0000
     17 C7         6.3710    4.3238    1.7170 C.2       1 RES1    0.0000
     18 C8         6.3354    6.6898    1.8145 C.2       1 RES1    0.0000
     19 C9         7.8011    6.9068    2.0595 C.3       1 RES1    0.0000
     20 H5         8.2557    6.0406    2.1095 H         1 RES1    0.0000
     21 H6         8.1806    7.4333    1.3258 H         1 RES1    0.0000
     22 H7         7.9232    7.3880    2.9045 H         1 RES1    0.0000
     23 C10        6.0894    9.1270    1.8606 C.3       1 RES1    0.0000
     24 H8         6.3872    9.2672    2.7839 H         1 RES1    0.0000
     25 H9         5.3860    9.7728    1.6426 H         1 RES1    0.0000
     26 H10        6.8462    9.2505    1.2514 H         1 RES1    0.0000
     27 C11        4.1173    7.6160    1.5365 C.3       1 RES1    0.0000
     28 H11        3.9383    7.2092    0.6626 H         1 RES1    0.0000
     29 H12        3.6907    8.4969    1.5807 H         1 RES1    0.0000
     30 H13        3.7560    7.0422    2.2439 H         1 RES1    0.0000
@<TRIPOS>BOND
     1    1    4 2
     2    2    4 2
     3    3   17 2
     4    4   11 1
     5    5   17 1
     6    6   18 1
     7    7    8 1
     8    9    7 ar
     9   10    9 1
    10   11    9 ar
    11   12   11 ar
    12   13   12 1
    13   14   12 ar
    14   15   14 1
    15   16    7 ar
    16   17   16 1
    17   18    5 2
    18   19   18 1
    19   20   19 1
    20   21   19 1
    21   22   19 1
    22   23    6 1
    23   24   23 1
    24   25   23 1
    25   26   23 1
    26   27    6 1
    27   28   27 1
    28   29   27 1
    29   30   27 1
    30   14   16 ar
@<TRIPOS>SUBSTRUCTURE
     1 RES1 1

@<TRIPOS>CRYSIN
   7.0594   23.8477    7.2274  90.0000 114.3190  90.0000  14 1

