# MOL2 file generated by ConQuest
# Please check atom types

@<TRIPOS>MOLECULE
HANGAF
    42    43     1
SMALL
NO_CHARGES
****
Generated from CSD

@<TRIPOS>ATOM
      1 N1        12.0290    1.8658    4.5742 N.2       1 RES1    0.0000
      2 O1        10.5668    0.4091    1.6518 O.3       1 RES1    0.0000
      3 O2        11.3622    1.0701    5.4822 O.3       1 RES1    0.0000
      4 O3        13.5212    3.1734    2.7679 O.2       1 RES1    0.0000
      5 O4        13.9978    1.2285    1.8119 O.3       1 RES1    0.0000
      6 C1         8.8235    2.5335   -0.6534 C.ar      1 RES1    0.0000
      7 C2         7.5699    2.6160   -0.1038 C.ar      1 RES1    0.0000
      8 C3         7.3075    1.9474    1.0494 C.ar      1 RES1    0.0000
      9 C4         8.2793    1.1884    1.6602 C.ar      1 RES1    0.0000
     10 C5         9.5333    1.1178    1.1112 C.ar      1 RES1    0.0000
     11 C6         9.8305    1.7992   -0.0698 C.ar      1 RES1    0.0000
     12 C7        11.1944    1.7146   -0.6554 C.3       1 RES1    0.0000
     13 C8        10.2903   -0.3466    2.8311 C.3       1 RES1    0.0000
     14 C9        11.5407   -1.0358    3.2486 C.ar      1 RES1    0.0000
     15 C10       12.6675   -0.3260    3.6419 C.ar      1 RES1    0.0000
     16 C11       13.8115   -0.9989    4.0145 C.ar      1 RES1    0.0000
     17 C12       13.8323   -2.3783    4.0282 C.ar      1 RES1    0.0000
     18 C13       12.7326   -3.0816    3.6562 C.ar      1 RES1    0.0000
     19 C14       11.5945   -2.4218    3.2559 C.ar      1 RES1    0.0000
     20 C15       12.6518    1.1593    3.6971 C.2       1 RES1    0.0000
     21 C16       10.6315    1.8797    6.4016 C.3       1 RES1    0.0000
     22 C17       14.7474    1.9257    0.7959 C.3       1 RES1    0.0000
     23 C18       13.4152    1.9824    2.7273 C.2       1 RES1    0.0000
     24 H1         8.9997    2.9876   -1.4459 H         1 RES1    0.0000
     25 H2         6.9085    3.1223   -0.5166 H         1 RES1    0.0000
     26 H3         6.4605    2.0031    1.4309 H         1 RES1    0.0000
     27 H4         8.0863    0.7245    2.4428 H         1 RES1    0.0000
     28 H5        11.2019    2.1440   -1.5147 H         1 RES1    0.0000
     29 H6        11.4418    0.7926   -0.7567 H         1 RES1    0.0000
     30 H7        11.8201    2.1517   -0.0738 H         1 RES1    0.0000
     31 H8         9.5948   -0.9985    2.6530 H         1 RES1    0.0000
     32 H9         9.9825    0.2415    3.5385 H         1 RES1    0.0000
     33 H10       14.5720   -0.5217    4.2578 H         1 RES1    0.0000
     34 H11       14.6016   -2.8282    4.2928 H         1 RES1    0.0000
     35 H12       12.7482   -4.0109    3.6724 H         1 RES1    0.0000
     36 H13       10.8507   -2.9118    2.9857 H         1 RES1    0.0000
     37 H14       11.2420    2.4180    6.9095 H         1 RES1    0.0000
     38 H15       10.1311    1.3158    6.9970 H         1 RES1    0.0000
     39 H16       10.0282    2.4489    5.9176 H         1 RES1    0.0000
     40 H17       14.1917    2.5960    0.3915 H         1 RES1    0.0000
     41 H18       15.0359    1.3019    0.1263 H         1 RES1    0.0000
     42 H19       15.5145    2.3437    1.1945 H         1 RES1    0.0000
@<TRIPOS>BOND
     1    1    3 1
     2    2   10 1
     3    3   21 1
     4    4   23 2
     5    5   22 1
     6    6    7 ar
     7    7    8 ar
     8    8    9 ar
     9    9   10 ar
    10   10   11 ar
    11   11    6 ar
    12   12   11 1
    13   13    2 1
    14   14   13 1
    15   15   14 ar
    16   16   15 ar
    17   17   16 ar
    18   18   17 ar
    19   19   14 ar
    20   20    1 2
    21   21   37 1
    22   22   40 1
    23   23    5 1
    24   24    6 1
    25   25    7 1
    26   26    8 1
    27   27    9 1
    28   28   12 1
    29   29   12 1
    30   30   12 1
    31   31   13 1
    32   32   13 1
    33   33   16 1
    34   34   17 1
    35   35   18 1
    36   36   19 1
    37   38   21 1
    38   39   21 1
    39   41   22 1
    40   42   22 1
    41   15   20 1
    42   18   19 ar
    43   20   23 1
@<TRIPOS>SUBSTRUCTURE
     1 RES1 1

@<TRIPOS>CRYSIN
  16.8430   15.4800   13.7280  90.0000 114.3370  90.0000  15 1

