# MOL2 file generated by ConQuest
# Please check atom types

@<TRIPOS>MOLECULE
HANLEP
    31    31     1
SMALL
NO_CHARGES
****
Generated from CSD

@<TRIPOS>ATOM
      1 C1         0.1129   10.0433    4.1457 C.3       1 RES1    0.0000
      2 H1        -0.3293    9.3343    3.6336 H         1 RES1    0.0000
      3 H2         0.1063   10.8749    3.6265 H         1 RES1    0.0000
      4 H3        -0.3640   10.1823    4.9908 H         1 RES1    0.0000
      5 C2         2.6194    7.9577    5.2453 C.2       1 RES1    0.0000
      6 C3         3.8822    8.7443    5.1229 C.3       1 RES1    0.0000
      7 H4         4.1112    8.8493    4.1757 H         1 RES1    0.0000
      8 H5         4.6072    8.2724    5.5841 H         1 RES1    0.0000
      9 H6         3.7579    9.6277    5.5289 H         1 RES1    0.0000
     10 C4         2.6485    6.5272    5.7900 C.3       1 RES1    0.0000
     11 C5         1.2703    5.8522    5.6210 C.2       1 RES1    0.0000
     12 C6         2.0533    5.0244    3.4612 C.3       1 RES1    0.0000
     13 C7         3.7453    5.7053    5.0931 C.2       1 RES1    0.0000
     14 C8         1.8355    3.6749    2.8273 C.3       1 RES1    0.0000
     15 H7         2.5305    3.5139    2.1557 H         1 RES1    0.0000
     16 H8         0.9552    3.6544    2.3979 H         1 RES1    0.0000
     17 H9         1.8796    2.9792    3.5160 H         1 RES1    0.0000
     18 C9         1.9650    6.1514    2.4676 C.3       1 RES1    0.0000
     19 H10        2.2206    6.9917    2.9029 H         1 RES1    0.0000
     20 H11        1.0461    6.2220    2.1344 H         1 RES1    0.0000
     21 H12        2.5718    5.9746    1.7186 H         1 RES1    0.0000
     22 N1         1.4467    8.3594    4.9375 N.2       1 RES1    0.0000
     23 N2         3.0166    6.6274    7.2001 N.3       1 RES1    0.0000
     24 H13        2.3489    7.0079    7.6167 H         1 RES1    0.0000
     25 O1         1.4722    9.6591    4.4199 O.3       1 RES1    0.0000
     26 O2         3.0306    5.2786    7.7274 O.3       1 RES1    0.0000
     27 H14        3.8216    5.2435    8.0484 H         1 RES1    0.0000
     28 O3         1.0540    5.1462    4.4988 O.3       1 RES1    0.0000
     29 O4         3.3697    4.9432    4.0568 O.3       1 RES1    0.0000
     30 O5         0.4305    5.8908    6.4705 O.2       1 RES1    0.0000
     31 O6         4.8827    5.6876    5.4611 O.2       1 RES1    0.0000
@<TRIPOS>BOND
     1    1    2 1
     2    3    1 1
     3    4    1 1
     4    5    6 1
     5    6    7 1
     6    8    6 1
     7    9    6 1
     8   10    5 1
     9   11   10 1
    10   12   14 1
    11   13   10 1
    12   14   15 1
    13   16   14 1
    14   17   14 1
    15   18   12 1
    16   19   18 1
    17   20   18 1
    18   21   18 1
    19   22    5 2
    20   23   10 1
    21   24   23 1
    22   25    1 1
    23   26   23 1
    24   27   26 1
    25   28   11 1
    26   29   12 1
    27   30   11 2
    28   31   13 2
    29   12   28 1
    30   13   29 1
    31   22   25 1
@<TRIPOS>SUBSTRUCTURE
     1 RES1 1

@<TRIPOS>CRYSIN
  11.4024   12.4341    8.0005  90.0000  99.5100  90.0000  14 1

