# MOL2 file generated by ConQuest
# Please check atom types

@<TRIPOS>MOLECULE
HANLUF
    36    37     1
SMALL
NO_CHARGES
****
Generated from CSD

@<TRIPOS>ATOM
      1 C1         1.6625    2.5079   -1.6451 C.3       1 RES1    0.0000
      2 H1         0.7766    2.6298   -2.0458 H         1 RES1    0.0000
      3 H2         2.2816    2.1596   -2.3198 H         1 RES1    0.0000
      4 H3         1.9920    3.3707   -1.3143 H         1 RES1    0.0000
      5 C2         0.6451    1.3533    1.4353 C.2       1 RES1    0.0000
      6 C3         1.3703    0.0518    1.5923 C.3       1 RES1    0.0000
      7 H4         0.9775   -0.6148    0.9920 H         1 RES1    0.0000
      8 H5         1.2924   -0.2548    2.5194 H         1 RES1    0.0000
      9 H6         2.3165    0.1760    1.3680 H         1 RES1    0.0000
     10 C4        -0.1991    1.9058    2.5694 C.3       1 RES1    0.0000
     11 C5         0.7483    2.3421    3.7081 C.2       1 RES1    0.0000
     12 C6        -0.8737    3.2202    2.2672 C.2       1 RES1    0.0000
     13 C7        -1.9837    3.3951    1.2905 C.3       1 RES1    0.0000
     14 H7        -2.3096    4.3191    1.3287 H         1 RES1    0.0000
     15 H8        -2.7149    2.7822    1.5131 H         1 RES1    0.0000
     16 H9        -1.6577    3.1999    0.3868 H         1 RES1    0.0000
     17 C8         1.0908    4.5380    4.8478 C.ar      1 RES1    0.0000
     18 C9         0.3014    5.5839    5.2914 C.ar      1 RES1    0.0000
     19 H10       -0.5405    5.7536    4.8858 H         1 RES1    0.0000
     20 C10        0.7480    6.3830    6.3326 C.ar      1 RES1    0.0000
     21 H11        0.2079    7.1013    6.6397 H         1 RES1    0.0000
     22 C11        1.9742    6.1421    6.9293 C.ar      1 RES1    0.0000
     23 H12        2.2673    6.6810    7.6559 H         1 RES1    0.0000
     24 C12        2.7669    5.1152    6.4604 C.ar      1 RES1    0.0000
     25 H13        3.6156    4.9602    6.8590 H         1 RES1    0.0000
     26 C13        2.3428    4.3041    5.4128 C.ar      1 RES1    0.0000
     27 H14        2.8963    3.6045    5.0890 H         1 RES1    0.0000
     28 N1         0.7235    2.1304    0.4186 N.2       1 RES1    0.0000
     29 N2        -1.1787    0.9056    2.9940 N.3       1 RES1    0.0000
     30 H15       -0.7292    0.1419    3.2026 H         1 RES1    0.0000
     31 N3         0.5952    3.6828    3.8227 N.am      1 RES1    0.0000
     32 N4        -0.4402    4.1920    2.9769 N.2       1 RES1    0.0000
     33 O1         1.5716    1.5816   -0.5553 O.3       1 RES1    0.0000
     34 O2        -1.6783    1.3832    4.2746 O.3       1 RES1    0.0000
     35 H16       -2.5241    1.3425    4.1990 H         1 RES1    0.0000
     36 O3         1.4773    1.6131    4.3647 O.2       1 RES1    0.0000
@<TRIPOS>BOND
     1    1    2 1
     2    3    1 1
     3    4    1 1
     4    5    6 1
     5    6    7 1
     6    8    6 1
     7    9    6 1
     8   10    5 1
     9   11   10 1
    10   12   10 1
    11   13   12 1
    12   14   13 1
    13   15   13 1
    14   16   13 1
    15   17   18 ar
    16   18   19 1
    17   20   18 ar
    18   21   20 1
    19   22   20 ar
    20   23   22 1
    21   24   22 ar
    22   25   24 1
    23   26   17 ar
    24   27   26 1
    25   28    5 2
    26   29   10 1
    27   30   29 1
    28   31   11 1
    29   32   12 2
    30   33    1 1
    31   34   29 1
    32   35   34 1
    33   36   11 2
    34   17   31 1
    35   24   26 ar
    36   28   33 1
    37   31   32 1
@<TRIPOS>SUBSTRUCTURE
     1 RES1 1

@<TRIPOS>CRYSIN
   5.8807   26.2720    9.1340  90.0000 101.4190  90.0000  14 1

