# MOL2 file generated by ConQuest
# Please check atom types

@<TRIPOS>MOLECULE
HANMAM
    28    28     1
SMALL
NO_CHARGES
****
Generated from CSD

@<TRIPOS>ATOM
      1 C1         1.9915    0.2761    3.1457 C.3       1 RES1    0.0000
      2 H1         1.2474   -0.0310    2.5870 H         1 RES1    0.0000
      3 H2         1.9565   -0.1769    4.0139 H         1 RES1    0.0000
      4 H3         2.8409    0.0684    2.7023 H         1 RES1    0.0000
      5 C2         1.8374    2.5377    2.3163 C.2       1 RES1    0.0000
      6 C3         1.7517    4.0436    2.5832 C.3       1 RES1    0.0000
      7 C4         3.1359    4.6735    2.3716 C.2       1 RES1    0.0000
      8 C5         2.3619    5.3869    4.4081 C.2       1 RES1    0.0000
      9 C6         4.5234    6.3588    3.5814 C.3       1 RES1    0.0000
     10 H4         5.3315    5.8346    3.7619 H         1 RES1    0.0000
     11 H5         4.3705    6.9869    4.3176 H         1 RES1    0.0000
     12 H6         4.6370    6.8565    2.7452 H         1 RES1    0.0000
     13 C7         0.7294    4.6812    1.6315 C.3       1 RES1    0.0000
     14 H7         1.0021    4.4917    0.6993 H         1 RES1    0.0000
     15 H8        -0.1517    4.2538    1.7784 H         1 RES1    0.0000
     16 C8         0.5767    6.1853    1.7998 C.3       1 RES1    0.0000
     17 H9         0.2564    6.3816    2.7052 H         1 RES1    0.0000
     18 H10       -0.0678    6.5238    1.1446 H         1 RES1    0.0000
     19 H11        1.4441    6.6195    1.6593 H         1 RES1    0.0000
     20 N1         1.8875    1.7164    3.3447 N.am      1 RES1    0.0000
     21 H12        1.7557    2.0056    4.1584 H         1 RES1    0.0000
     22 N2         3.3805    5.4630    3.4627 N.am      1 RES1    0.0000
     23 N3         1.5238    4.3661    3.9893 N.am      1 RES1    0.0000
     24 O1         1.8747    2.1577    1.1350 O.2       1 RES1    0.0000
     25 O2         3.8618    4.5185    1.4258 O.2       1 RES1    0.0000
     26 O3         2.2726    6.0406    5.4169 O.2       1 RES1    0.0000
     27 O4         0.1884    4.4638    4.4057 O.3       1 RES1    0.0000
     28 H13        0.2002    3.8472    5.0364 H         1 RES1    0.0000
@<TRIPOS>BOND
     1    1    2 1
     2    3    1 1
     3    4    1 1
     4    5    6 1
     5    6    7 1
     6    7   22 1
     7    8   22 1
     8    9   10 1
     9   11    9 1
    10   12    9 1
    11   13    6 1
    12   14   13 1
    13   15   13 1
    14   16   13 1
    15   17   16 1
    16   18   16 1
    17   19   16 1
    18   20    1 1
    19   21   20 1
    20   22    9 1
    21   23    6 1
    22   24    5 2
    23   25    7 2
    24   26    8 2
    25   27   23 1
    26   28   27 1
    27    5   20 1
    28    8   23 1
@<TRIPOS>SUBSTRUCTURE
     1 RES1 1

@<TRIPOS>CRYSIN
  11.1127    9.1165   10.0702  90.0000 104.1170  90.0000  14 1

