# MOL2 file generated by ConQuest
# Please check atom types

@<TRIPOS>MOLECULE
HANVAV
    42    43     1
SMALL
NO_CHARGES
****
Generated from CSD

@<TRIPOS>ATOM
      1 C1         9.6227    7.0377    0.6423 C.ar      1 RES1    0.0000
      2 C2         9.8616    7.2643    1.9910 C.ar      1 RES1    0.0000
      3 H1        10.7369    7.4604    2.3032 H         1 RES1    0.0000
      4 C3         8.8020    7.1983    2.8635 C.ar      1 RES1    0.0000
      5 H2         8.9409    7.3602    3.7892 H         1 RES1    0.0000
      6 C4         7.5144    6.8921    2.3938 C.ar      1 RES1    0.0000
      7 C5         7.3005    6.7209    1.0336 C.ar      1 RES1    0.0000
      8 H3         6.4230    6.5533    0.7114 H         1 RES1    0.0000
      9 C6         8.3598    6.7927    0.1428 C.ar      1 RES1    0.0000
     10 H4         8.2198    6.6762   -0.7892 H         1 RES1    0.0000
     11 C7         6.4132    6.7550    3.4047 C.2       1 RES1    0.0000
     12 C8         4.9647    6.5753    2.9386 C.3       1 RES1    0.0000
     13 H5         4.9178    6.0922    2.0648 H         1 RES1    0.0000
     14 C9         4.0870    5.8883    4.0165 C.3       1 RES1    0.0000
     15 C10        3.4721    7.0598    4.8230 C.3       1 RES1    0.0000
     16 H6         2.5279    6.8751    5.0575 H         1 RES1    0.0000
     17 H7         3.9847    7.2302    5.6522 H         1 RES1    0.0000
     18 C11        3.5764    8.2049    3.8848 C.2       1 RES1    0.0000
     19 H8         3.1208    9.0268    4.0215 H         1 RES1    0.0000
     20 C12        4.3625    7.9804    2.8370 C.2       1 RES1    0.0000
     21 C13        4.7444    8.9238    1.7483 C.3       1 RES1    0.0000
     22 H9         4.1630    9.7116    1.7791 H         1 RES1    0.0000
     23 H10        4.6455    8.4784    0.8804 H         1 RES1    0.0000
     24 H11        5.6761    9.2016    1.8691 H         1 RES1    0.0000
     25 C14        4.8578    4.9038    4.8983 C.2       1 RES1    0.0000
     26 C15        6.4273    3.1420    4.8369 C.3       1 RES1    0.0000
     27 H12        7.0180    3.6300    5.4479 H         1 RES1    0.0000
     28 H13        6.9675    2.6405    4.1917 H         1 RES1    0.0000
     29 H14        5.8691    2.5204    5.3482 H         1 RES1    0.0000
     30 C16        2.9803    5.0828    3.3103 C.2       1 RES1    0.0000
     31 C17        0.9673    3.9014    3.6847 C.3       1 RES1    0.0000
     32 H15        0.4840    4.4683    3.0486 H         1 RES1    0.0000
     33 H16        0.3693    3.6521    4.4203 H         1 RES1    0.0000
     34 H17        1.2803    3.0923    3.2298 H         1 RES1    0.0000
     35 N1        10.7618    7.0505   -0.2946 N.pl3     1 RES1    0.0000
     36 O1        11.8586    7.3574    0.1406 O.2       1 RES1    0.0000
     37 O2        10.5407    6.7486   -1.4627 O.2       1 RES1    0.0000
     38 O3         6.6637    6.8473    4.5845 O.2       1 RES1    0.0000
     39 O4         4.8096    4.8526    6.0966 O.2       1 RES1    0.0000
     40 O5         5.5807    4.0820    4.1314 O.3       1 RES1    0.0000
     41 O6         2.8961    4.8767    2.1395 O.2       1 RES1    0.0000
     42 O7         2.1039    4.6288    4.2125 O.3       1 RES1    0.0000
@<TRIPOS>BOND
     1    1    2 ar
     2    2    3 1
     3    4    2 ar
     4    5    4 1
     5    6    4 ar
     6    7    6 ar
     7    8    7 1
     8    9    1 ar
     9   10    9 1
    10   11    6 1
    11   12   11 1
    12   13   12 1
    13   14   12 1
    14   15   14 1
    15   16   15 1
    16   17   15 1
    17   18   15 1
    18   19   18 1
    19   20   12 1
    20   21   20 1
    21   22   21 1
    22   23   21 1
    23   24   21 1
    24   25   14 1
    25   26   27 1
    26   28   26 1
    27   29   26 1
    28   30   14 1
    29   31   32 1
    30   33   31 1
    31   34   31 1
    32   35    1 1
    33   36   35 2
    34   37   35 2
    35   38   11 2
    36   39   25 2
    37   40   25 1
    38   41   30 2
    39   42   30 1
    40    7    9 ar
    41   18   20 2
    42   26   40 1
    43   31   42 1
@<TRIPOS>SUBSTRUCTURE
     1 RES1 1

@<TRIPOS>CRYSIN
   9.3322    7.1038   12.7222  90.0000 107.0900  90.0000   4 1

