# MOL2 file generated by ConQuest
# Please check atom types

@<TRIPOS>MOLECULE
HAPQIA03
    37    35     2
SMALL
NO_CHARGES
****
Generated from CSD

@<TRIPOS>ATOM
      1 O1         1.7915    5.7334    7.4958 O.2       1 RES1    0.0000
      2 O2         4.6298    3.5783    4.5591 O.2       1 RES1    0.0000
      3 N1         3.4907    5.9141    3.5630 N.pl3     1 RES1    0.0000
      4 H1         4.3316    5.6771    3.5098 H         1 RES1    0.0000
      5 N2         1.5643    6.4003    4.6123 N.2       1 RES1    0.0000
      6 N3         2.6297    4.8900    7.0032 N.3       1 RES1    0.0000
      7 N4         3.9677    3.8570    5.6199 N.pl3     1 RES1    0.0000
      8 F1         4.1028    6.7781    0.8658 Du        2 SUP2    0.0000
      9 F2         2.2921    8.3291   -0.2367 Du        2 SUP2    0.0000
     10 F3         0.1114    8.9799    0.9872 Du        2 SUP2    0.0000
     11 F4        -0.4104    8.0578    3.4269 Du        2 SUP2    0.0000
     12 C1         2.7875    6.7116    2.7077 C.ar      1 RES1    0.0000
     13 C2         3.0541    7.1701    1.4199 C.ar      1 RES1    0.0000
     14 C3         2.0825    7.9412    0.8268 C.ar      1 RES1    0.0000
     15 C4         0.8961    8.2527    1.4871 C.ar      1 RES1    0.0000
     16 C5         0.6243    7.7988    2.7467 C.ar      1 RES1    0.0000
     17 C6         1.5871    7.0073    3.3722 C.ar      1 RES1    0.0000
     18 C7         2.7252    5.7631    4.6778 C.2       1 RES1    0.0000
     19 C8         3.1093    4.8784    5.7587 C.2       1 RES1    0.0000
     20 C9         3.1567    3.7660    7.8431 C.3       1 RES1    0.0000
     21 C10        4.0738    3.0098    6.8377 C.3       1 RES1    0.0000
     22 C11        1.9554    2.9734    8.3264 C.3       1 RES1    0.0000
     23 H2         1.5091    2.5782    7.5739 H         1 RES1    0.0000
     24 H3         1.3495    3.5600    8.7856 H         1 RES1    0.0000
     25 H4         2.2482    2.2818    8.9252 H         1 RES1    0.0000
     26 C12        3.8713    4.4021    9.0207 C.3       1 RES1    0.0000
     27 H5         4.6228    4.9087    8.7027 H         1 RES1    0.0000
     28 H6         4.1782    3.7152    9.6171 H         1 RES1    0.0000
     29 H7         3.2663    4.9840    9.4856 H         1 RES1    0.0000
     30 C13        3.5688    1.6232    6.4419 C.3       1 RES1    0.0000
     31 H8         2.6402    1.6765    6.2023 H         1 RES1    0.0000
     32 H9         3.6722    1.0209    7.1835 H         1 RES1    0.0000
     33 H10        4.0747    1.2985    5.6926 H         1 RES1    0.0000
     34 C14        5.5487    2.9515    7.2225 C.3       1 RES1    0.0000
     35 H11        5.8521    3.8297    7.4606 H         1 RES1    0.0000
     36 H12        6.0608    2.6269    6.4775 H         1 RES1    0.0000
     37 H13        5.6609    2.3602    7.9704 H         1 RES1    0.0000
@<TRIPOS>BOND
     1    1    6 1
     2    2    7 1
     3    3    4 1
     4    5   17 1
     5    6   19 1
     6    7   19 2
     7   12    3 1
     8   13   12 ar
     9   14   13 ar
    10   15   14 ar
    11   16   15 ar
    12   17   12 ar
    13   18    3 1
    14   19   18 1
    15   20    6 1
    16   21    7 1
    17   22   20 1
    18   23   22 1
    19   24   22 1
    20   25   22 1
    21   26   20 1
    22   27   26 1
    23   28   26 1
    24   29   26 1
    25   30   21 1
    26   31   30 1
    27   32   30 1
    28   33   30 1
    29   34   21 1
    30   35   34 1
    31   36   34 1
    32   37   34 1
    33    5   18 2
    34   16   17 ar
    35   20   21 1
@<TRIPOS>SUBSTRUCTURE
     1 RES1 1
     2 SUP2 8

@<TRIPOS>CRYSIN
   8.7685   15.6827   20.2294  90.0000  90.0000  90.0000  61 1

