# MOL2 file generated by ConQuest
# Please check atom types

@<TRIPOS>MOLECULE
HAPYOO
    60    64     1
SMALL
NO_CHARGES
****
Generated from CSD

@<TRIPOS>ATOM
      1 C1        -0.1879    7.9092    1.3890 C.ar      1 RES1    0.0000
      2 C2         1.0071    7.9982   -0.6484 C.ar      1 RES1    0.0000
      3 C3         1.1913    8.5419   -1.9488 C.ar      1 RES1    0.0000
      4 C4         2.2058    8.0608   -2.7423 C.ar      1 RES1    0.0000
      5 H1         2.3451    8.4425   -3.6013 H         1 RES1    0.0000
      6 C5         3.0251    7.0374   -2.3188 C.ar      1 RES1    0.0000
      7 C6         2.8198    6.4089   -1.0521 C.ar      1 RES1    0.0000
      8 C7         3.2496    4.6620    0.6243 C.ar      1 RES1    0.0000
      9 C8         2.2956    3.6698    0.6578 C.ar      1 RES1    0.0000
     10 H2         1.8438    3.4181   -0.1381 H         1 RES1    0.0000
     11 C9         1.9932    3.0399    1.8528 C.ar      1 RES1    0.0000
     12 H3         1.3462    2.3456    1.8587 H         1 RES1    0.0000
     13 C10        2.6118    3.3983    3.0459 C.ar      1 RES1    0.0000
     14 C11        3.5749    4.3833    2.9661 C.ar      1 RES1    0.0000
     15 C12        3.7490    5.7143    4.8974 C.ar      1 RES1    0.0000
     16 C13        4.3859    6.0346    6.1248 C.ar      1 RES1    0.0000
     17 C14        3.8691    7.0397    6.9168 C.ar      1 RES1    0.0000
     18 H4         4.2925    7.2460    7.7418 H         1 RES1    0.0000
     19 C15        2.7529    7.7488    6.5341 C.ar      1 RES1    0.0000
     20 C16        2.0729    7.4510    5.3123 C.ar      1 RES1    0.0000
     21 C17        0.2493    7.7242    3.7181 C.ar      1 RES1    0.0000
     22 C18       -0.7295    6.7426    3.8069 C.ar      1 RES1    0.0000
     23 H5        -0.9155    6.3316    4.6424 H         1 RES1    0.0000
     24 C19       -1.4342    6.3620    2.6721 C.ar      1 RES1    0.0000
     25 H6        -2.1096    5.6968    2.7443 H         1 RES1    0.0000
     26 C20       -1.1730    6.9347    1.4287 C.ar      1 RES1    0.0000
     27 C21        1.8044    6.9450   -0.2510 C.ar      1 RES1    0.0000
     28 H7         1.6578    6.5650    0.6072 H         1 RES1    0.0000
     29 C22        3.9076    5.0186    1.7818 C.ar      1 RES1    0.0000
     30 H8         4.5802    5.6895    1.7667 H         1 RES1    0.0000
     31 C23        2.6090    6.3975    4.5447 C.ar      1 RES1    0.0000
     32 H9         2.1609    6.1467    3.7460 H         1 RES1    0.0000
     33 C24        0.5251    8.3195    2.4843 C.ar      1 RES1    0.0000
     34 H10        1.1913    8.9921    2.4067 H         1 RES1    0.0000
     35 C25       -1.9364    6.5127    0.1846 C.3       1 RES1    0.0000
     36 H11       -2.5000    7.2545   -0.1206 H         1 RES1    0.0000
     37 H12       -2.5009    5.7394    0.3945 H         1 RES1    0.0000
     38 H13       -1.3022    6.2732   -0.5217 H         1 RES1    0.0000
     39 C26        2.2379    2.7761    4.3704 C.3       1 RES1    0.0000
     40 H14        3.0507    2.5791    4.8814 H         1 RES1    0.0000
     41 H15        1.7421    1.9456    4.2128 H         1 RES1    0.0000
     42 H16        1.6770    3.3999    4.8770 H         1 RES1    0.0000
     43 N1         3.5410    5.3509   -0.6074 N.pl3     1 RES1    0.0000
     44 H17        4.0780    5.0341   -1.0872 H         1 RES1    0.0000
     45 N2         0.9714    8.1009    4.8855 N.pl3     1 RES1    0.0000
     46 H18        0.7881    8.8158    5.3526 H         1 RES1    0.0000
     47 N3         0.3189    9.5546   -2.5205 N.pl3     1 RES1    0.0000
     48 N4         4.0624    6.6166   -3.2317 N.pl3     1 RES1    0.0000
     49 N5         5.5681    5.3275    6.6090 N.pl3     1 RES1    0.0000
     50 N6         2.2727    8.7760    7.4365 N.pl3     1 RES1    0.0000
     51 O1         0.0642    8.5460    0.1506 O.3       1 RES1    0.0000
     52 O2         4.2824    4.7355    4.1324 O.3       1 RES1    0.0000
     53 O3        -0.5517   10.0440   -1.8495 O.2       1 RES1    0.0000
     54 O4         0.4637    9.8263   -3.6841 O.2       1 RES1    0.0000
     55 O5         4.2158    7.2254   -4.2836 O.2       1 RES1    0.0000
     56 O6         4.7562    5.6414   -2.9404 O.2       1 RES1    0.0000
     57 O7         6.2811    4.7374    5.7958 O.2       1 RES1    0.0000
     58 O8         5.8293    5.3904    7.7990 O.2       1 RES1    0.0000
     59 O9         2.9206    8.9954    8.4653 O.2       1 RES1    0.0000
     60 O10        1.2344    9.3773    7.1765 O.2       1 RES1    0.0000
@<TRIPOS>BOND
     1    1   26 ar
     2    2    3 ar
     3    3    4 ar
     4    4    5 1
     5    6    4 ar
     6    7    6 ar
     7    8    9 ar
     8    9   10 1
     9   11    9 ar
    10   12   11 1
    11   13   11 ar
    12   14   13 ar
    13   15   16 ar
    14   16   17 ar
    15   17   18 1
    16   19   17 ar
    17   20   19 ar
    18   21   22 ar
    19   22   23 1
    20   24   22 ar
    21   25   24 1
    22   26   24 ar
    23   27    2 ar
    24   28   27 1
    25   29    8 ar
    26   30   29 1
    27   31   15 ar
    28   32   31 1
    29   33    1 ar
    30   34   33 1
    31   35   26 1
    32   36   35 1
    33   37   35 1
    34   38   35 1
    35   39   13 1
    36   40   39 1
    37   41   39 1
    38   42   39 1
    39   43    7 1
    40   44   43 1
    41   45   20 1
    42   46   45 1
    43   47    3 1
    44   48    6 1
    45   49   16 1
    46   50   19 1
    47   51    1 1
    48   52   14 1
    49   53   47 2
    50   54   47 2
    51   55   48 2
    52   56   48 2
    53   57   49 2
    54   58   49 2
    55   59   50 2
    56   60   50 2
    57    2   51 1
    58    7   27 ar
    59    8   43 1
    60   14   29 ar
    61   15   52 1
    62   20   31 ar
    63   21   33 ar
    64   21   45 1
@<TRIPOS>SUBSTRUCTURE
     1 RES1 1

@<TRIPOS>CRYSIN
   9.1641   12.1597   21.9190  90.0000  90.0000  90.0000  19 1

