# MOL2 file generated by ConQuest
# Please check atom types

@<TRIPOS>MOLECULE
HASFUF
    20    20     1
SMALL
NO_CHARGES
****
Generated from CSD

@<TRIPOS>ATOM
      1 O1         1.9790   -1.4476    5.4886 O.2       1 RES1    0.0000
      2 O2         1.3449   -1.2566    7.5526 O.2       1 RES1    0.0000
      3 N1         1.5516   -0.8128    6.4392 N.pl3     1 RES1    0.0000
      4 C1         1.2875    0.6491    6.1636 C.3       1 RES1    0.0000
      5 H1         2.1451    1.1118    5.9894 H         1 RES1    0.0000
      6 H2         0.7226    0.7362    5.3553 H         1 RES1    0.0000
      7 N2         0.6308    1.2665    7.2715 N.pl3     1 RES1    0.0000
      8 C2        -0.6690    1.1517    7.7137 C.2       1 RES1    0.0000
      9 N3        -1.6202    0.3131    7.1186 N.pl3     1 RES1    0.0000
     10 O3        -1.3067   -0.3583    6.1345 O.2       1 RES1    0.0000
     11 O4        -2.7422    0.3016    7.6442 O.2       1 RES1    0.0000
     12 C3        -0.8499    2.0101    8.7959 C.2       1 RES1    0.0000
     13 N4        -1.9476    2.2311    9.5238 N.3       1 RES1    0.0000
     14 H3        -2.6921    1.8010    9.3387 H         1 RES1    0.0000
     15 H4        -1.9255    2.8065   10.1888 H         1 RES1    0.0000
     16 C4         0.4412    2.5782    8.9037 C.2       1 RES1    0.0000
     17 N5         0.8522    3.5688    9.8529 N.pl3     1 RES1    0.0000
     18 O5         0.0288    3.8756   10.7198 O.2       1 RES1    0.0000
     19 O6         1.9716    4.0557    9.7437 O.2       1 RES1    0.0000
     20 N6         1.3125    2.1404    8.0093 N.2       1 RES1    0.0000
@<TRIPOS>BOND
     1    1    3 2
     2    2    3 2
     3    3    4 1
     4    4    5 1
     5    6    4 1
     6    7    4 1
     7    8    7 1
     8    9    8 1
     9   10    9 2
    10   11    9 2
    11   12    8 2
    12   13   12 1
    13   14   13 1
    14   15   13 1
    15   16   12 1
    16   17   16 1
    17   18   17 2
    18   19   17 2
    19   20    7 1
    20   16   20 2
@<TRIPOS>SUBSTRUCTURE
     1 RES1 1

@<TRIPOS>CRYSIN
   6.7081   13.8115    9.3931  90.0000  99.2820  90.0000 231 1

