# MOL2 file generated by ConQuest
# Please check atom types

@<TRIPOS>MOLECULE
HATYIL
    38    39     1
SMALL
USER_CHARGES
****
Generated from CSD

@<TRIPOS>ATOM
      1 O1         2.4540    2.0793    0.6354 O.2       1 RES1   -1.0000
      2 O2        -1.1154    9.3617    6.0595 O.3       1 RES1    0.0000
      3 N1         1.9492    3.0731    1.3184 N.pl3     1 RES1    1.0000
      4 C1         0.6101    3.2253    1.4191 C.ar      1 RES1    0.0000
      5 H1         0.0405    2.6250    0.9525 H         1 RES1    0.0000
      6 C2         0.0423    4.2345    2.1856 C.ar      1 RES1    0.0000
      7 C3         0.8781    5.1232    2.8782 C.ar      1 RES1    0.0000
      8 C4         2.2700    4.9817    2.7203 C.ar      1 RES1    0.0000
      9 C5         2.7707    3.9561    1.9384 C.ar      1 RES1    0.0000
     10 H2         3.7107    3.8683    1.8334 H         1 RES1    0.0000
     11 C6        -1.4574    4.3362    2.2277 C.3       1 RES1    0.0000
     12 H3        -1.7774    4.7862    1.4177 H         1 RES1    0.0000
     13 H4        -1.7282    4.8513    3.0169 H         1 RES1    0.0000
     14 H5        -1.8444    3.4371    2.2762 H         1 RES1    0.0000
     15 C7         3.2396    5.9050    3.4013 C.3       1 RES1    0.0000
     16 H6         4.1381    5.7594    3.0392 H         1 RES1    0.0000
     17 H7         3.2423    5.7244    4.3645 H         1 RES1    0.0000
     18 H8         2.9719    6.8343    3.2431 H         1 RES1    0.0000
     19 C8         0.3214    6.2136    3.7458 C.ar      1 RES1    0.0000
     20 C9         0.1987    6.0285    5.1270 C.ar      1 RES1    0.0000
     21 C10       -0.2885    7.0686    5.9292 C.ar      1 RES1    0.0000
     22 H9        -0.3797    6.9425    6.8669 H         1 RES1    0.0000
     23 C11       -0.6368    8.2791    5.3567 C.ar      1 RES1    0.0000
     24 C12       -0.5360    8.4576    3.9806 C.ar      1 RES1    0.0000
     25 H10       -0.7904    9.2876    3.5951 H         1 RES1    0.0000
     26 C13       -0.0689    7.4366    3.1665 C.ar      1 RES1    0.0000
     27 C14        0.5900    4.7284    5.7930 C.3       1 RES1    0.0000
     28 H11        1.5628    4.6983    5.9048 H         1 RES1    0.0000
     29 H12        0.3022    3.9757    5.2342 H         1 RES1    0.0000
     30 H13        0.1578    4.6682    6.6710 H         1 RES1    0.0000
     31 C15        0.0188    7.6594    1.6811 C.3       1 RES1    0.0000
     32 H14       -0.4096    8.5113    1.4527 H         1 RES1    0.0000
     33 H15       -0.4388    6.9287    1.2138 H         1 RES1    0.0000
     34 H16        0.9594    7.6821    1.4097 H         1 RES1    0.0000
     35 C16       -1.0642    9.2762    7.4869 C.3       1 RES1    0.0000
     36 H17       -1.6150    8.5235    7.7892 H         1 RES1    0.0000
     37 H18       -1.4052   10.1078    7.8768 H         1 RES1    0.0000
     38 H19       -0.1370    9.1370    7.7733 H         1 RES1    0.0000
@<TRIPOS>BOND
     1    1    3 1
     2    2   23 1
     3    3    4 ar
     4    4    5 1
     5    6    4 ar
     6    7    6 ar
     7    8    7 ar
     8    9    3 ar
     9   10    9 1
    10   11    6 1
    11   12   11 1
    12   13   11 1
    13   14   11 1
    14   15    8 1
    15   16   15 1
    16   17   15 1
    17   18   15 1
    18   19    7 1
    19   20   19 ar
    20   21   20 ar
    21   22   21 1
    22   23   21 ar
    23   24   23 ar
    24   25   24 1
    25   26   19 ar
    26   27   20 1
    27   28   27 1
    28   29   27 1
    29   30   27 1
    30   31   26 1
    31   32   31 1
    32   33   31 1
    33   34   31 1
    34   35    2 1
    35   36   35 1
    36   37   35 1
    37   38   35 1
    38    8    9 ar
    39   24   26 ar
@<TRIPOS>SUBSTRUCTURE
     1 RES1 1

@<TRIPOS>CRYSIN
  21.0180    8.1370   18.2210  90.0000 119.0490  90.0000  15 1

