# MOL2 file generated by ConQuest
# Please check atom types

@<TRIPOS>MOLECULE
HAVCOX
    45    49     1
SMALL
NO_CHARGES
****
Generated from CSD

@<TRIPOS>ATOM
      1 N1         9.9775   -0.6194    9.0313 N.pl3     1 RES1    0.0000
      2 O1        11.1969   -0.6432    9.7134 O.3       1 RES1    0.0000
      3 O2         5.6525   -2.3145    8.5755 O.2       1 RES1    0.0000
      4 O3         6.9690    1.9524    6.5338 O.2       1 RES1    0.0000
      5 O4         4.8817    2.8325   12.7298 O.3       1 RES1    0.0000
      6 O5         3.5030    1.7991   11.1982 O.3       1 RES1    0.0000
      7 C1         9.0625   -1.6123    9.2706 C.2       1 RES1    0.0000
      8 C2         9.5788   -2.8959    9.8228 C.3       1 RES1    0.0000
      9 H1        10.1826   -3.2924    9.1756 H         1 RES1    0.0000
     10 H2        10.0901   -2.7074   10.6245 H         1 RES1    0.0000
     11 C3         8.5357   -3.8633   10.1470 C.3       1 RES1    0.0000
     12 H3         8.2389   -3.6986   11.0551 H         1 RES1    0.0000
     13 H4         8.9265   -4.7514   10.1255 H         1 RES1    0.0000
     14 C4         7.3428   -3.8536    9.2516 C.3       1 RES1    0.0000
     15 H5         7.5661   -4.3162    8.4284 H         1 RES1    0.0000
     16 H6         6.6273   -4.3496    9.6810 H         1 RES1    0.0000
     17 C5         6.8431   -2.4933    8.9135 C.2       1 RES1    0.0000
     18 C6         7.7690   -1.4061    8.9173 C.2       1 RES1    0.0000
     19 C7         7.3025   -0.0229    8.5019 C.3       1 RES1    0.0000
     20 H7         6.5935   -0.1348    7.8344 H         1 RES1    0.0000
     21 C8         8.4343    0.7039    7.8471 C.2       1 RES1    0.0000
     22 C9         8.1273    1.6836    6.8149 C.2       1 RES1    0.0000
     23 C10        9.2908    2.3338    6.0943 C.3       1 RES1    0.0000
     24 H8         9.5318    1.7955    5.3243 H         1 RES1    0.0000
     25 H9         9.0205    3.2096    5.7739 H         1 RES1    0.0000
     26 C11       10.4897    2.4819    6.9935 C.3       1 RES1    0.0000
     27 H10       10.2854    3.1180    7.6964 H         1 RES1    0.0000
     28 H11       11.2330    2.8352    6.4793 H         1 RES1    0.0000
     29 C12       10.8981    1.1709    7.6153 C.3       1 RES1    0.0000
     30 H12       11.3271    0.6167    6.9454 H         1 RES1    0.0000
     31 H13       11.5401    1.3365    8.3233 H         1 RES1    0.0000
     32 C13        9.7226    0.4484    8.1751 C.2       1 RES1    0.0000
     33 C14        6.7128    0.7586    9.6835 C.ar      1 RES1    0.0000
     34 C15        5.3190    0.8370    9.8114 C.ar      1 RES1    0.0000
     35 H14        4.7512    0.4141    9.2073 H         1 RES1    0.0000
     36 C16        4.8286    1.5638   10.8626 C.ar      1 RES1    0.0000
     37 C17        5.6533    2.1797   11.7618 C.ar      1 RES1    0.0000
     38 C18        7.0019    2.0951   11.6769 C.ar      1 RES1    0.0000
     39 H15        7.5587    2.5012   12.3026 H         1 RES1    0.0000
     40 C19        7.5099    1.3735   10.6118 C.ar      1 RES1    0.0000
     41 H16        8.4329    1.3030   10.5219 H         1 RES1    0.0000
     42 C20        3.5553    2.7726   12.2215 C.3       1 RES1    0.0000
     43 H17        2.9383    2.5382   12.9320 H         1 RES1    0.0000
     44 H18        3.2968    3.6378   11.8669 H         1 RES1    0.0000
     45 H19       11.9000   -1.2246    9.1440 H         1 RES1    0.0000
@<TRIPOS>BOND
     1    1    2 1
     2    2   45 1
     3    3   17 2
     4    4   22 2
     5    5   37 1
     6    6   36 1
     7    7    1 1
     8    8    7 1
     9    9    8 1
    10   10    8 1
    11   11    8 1
    12   12   11 1
    13   13   11 1
    14   14   11 1
    15   15   14 1
    16   16   14 1
    17   17   14 1
    18   18    7 2
    19   19   18 1
    20   20   19 1
    21   21   19 1
    22   22   21 1
    23   23   22 1
    24   24   23 1
    25   25   23 1
    26   26   23 1
    27   27   26 1
    28   28   26 1
    29   29   26 1
    30   30   29 1
    31   31   29 1
    32   32    1 1
    33   33   19 1
    34   34   33 ar
    35   35   34 1
    36   36   34 ar
    37   37   36 ar
    38   38   37 ar
    39   39   38 1
    40   40   33 ar
    41   41   40 1
    42   42    5 1
    43   43   42 1
    44   44   42 1
    45    6   42 1
    46   17   18 1
    47   21   32 2
    48   29   32 1
    49   38   40 ar
@<TRIPOS>SUBSTRUCTURE
     1 RES1 1

@<TRIPOS>CRYSIN
  14.6914    8.8103   12.6648  90.0000  90.0000  90.0000  33 1

