# MOL2 file generated by ConQuest
# Please check atom types

@<TRIPOS>MOLECULE
HAVGOD
    61    64     1
SMALL
NO_CHARGES
****
Generated from CSD

@<TRIPOS>ATOM
      1 C1         2.5224    8.8000    6.0072 C.2       1 RES1    0.0000
      2 O1         3.6761    8.4983    5.8159 O.2       1 RES1    0.0000
      3 C2         2.0905    9.5279    7.2332 C.ar      1 RES1    0.0000
      4 C3         3.0738    9.8511    8.1554 C.ar      1 RES1    0.0000
      5 H1         3.9682    9.6171    7.9832 H         1 RES1    0.0000
      6 C4         2.7551   10.5116    9.3227 C.ar      1 RES1    0.0000
      7 H2         3.4292   10.7204    9.9437 H         1 RES1    0.0000
      8 C5         1.4514   10.8662    9.5804 C.ar      1 RES1    0.0000
      9 H3         1.2327   11.3154   10.3768 H         1 RES1    0.0000
     10 C6         0.4664   10.5593    8.6665 C.ar      1 RES1    0.0000
     11 H4        -0.4228   10.8097    8.8388 H         1 RES1    0.0000
     12 C7         0.7768    9.8853    7.4957 C.ar      1 RES1    0.0000
     13 H5         0.0990    9.6708    6.8814 H         1 RES1    0.0000
     14 C8         1.4577    8.4285    4.9510 C.3       1 RES1    0.0000
     15 H6         0.6130    8.1680    5.3966 H         1 RES1    0.0000
     16 N1         1.2412    9.6113    4.1156 N.pl3     1 RES1    0.0000
     17 N2         0.0028   10.1349    4.0021 N.2       1 RES1    0.0000
     18 N3         0.0876   11.1474    3.1793 N.2       1 RES1    0.0000
     19 C9         1.3811   11.2774    2.7500 C.2       1 RES1    0.0000
     20 C10        2.1220   10.2940    3.3527 C.2       1 RES1    0.0000
     21 H7         3.0426   10.1307    3.2568 H         1 RES1    0.0000
     22 C11        1.7580   12.3358    1.8030 C.ar      1 RES1    0.0000
     23 C12        3.0518   12.8342    1.7261 C.ar      1 RES1    0.0000
     24 H8         3.7226   12.4826    2.2827 H         1 RES1    0.0000
     25 C13        3.3578   13.8468    0.8343 C.ar      1 RES1    0.0000
     26 H9         4.2318   14.1901    0.8009 H         1 RES1    0.0000
     27 C14        2.3903   14.3557   -0.0055 C.ar      1 RES1    0.0000
     28 H10        2.6046   15.0400   -0.6140 H         1 RES1    0.0000
     29 C15        1.1097   13.8570    0.0515 C.ar      1 RES1    0.0000
     30 H11        0.4489   14.1950   -0.5258 H         1 RES1    0.0000
     31 C16        0.7902   12.8616    0.9533 C.ar      1 RES1    0.0000
     32 H12       -0.0905   12.5353    0.9939 H         1 RES1    0.0000
     33 O2         1.9464    7.3628    4.1889 O.3       1 RES1    0.0000
     34 N4         0.9454    6.2983    4.0743 N.3       1 RES1    0.0000
     35 C17        1.4080    5.1849    4.9601 C.3       1 RES1    0.0000
     36 C18        0.4323    4.0233    4.7360 C.3       1 RES1    0.0000
     37 H13        0.7380    3.2484    5.2507 H         1 RES1    0.0000
     38 H14       -0.4499    4.2798    5.0775 H         1 RES1    0.0000
     39 C19        0.2971    3.6231    3.2814 C.3       1 RES1    0.0000
     40 H15        1.1580    3.2998    2.9422 H         1 RES1    0.0000
     41 H16       -0.3599    2.9014    3.1930 H         1 RES1    0.0000
     42 C20       -0.1512    4.8286    2.4823 C.3       1 RES1    0.0000
     43 H17       -1.0471    5.0912    2.7811 H         1 RES1    0.0000
     44 H18       -0.2138    4.5770    1.5380 H         1 RES1    0.0000
     45 C21        0.7872    6.0349    2.6129 C.3       1 RES1    0.0000
     46 C22        1.2354    5.6665    6.4027 C.3       1 RES1    0.0000
     47 H19        1.9238    6.3168    6.6109 H         1 RES1    0.0000
     48 H20        1.3097    4.9113    7.0075 H         1 RES1    0.0000
     49 H21        0.3619    6.0763    6.5045 H         1 RES1    0.0000
     50 C23        2.8629    4.7493    4.7721 C.3       1 RES1    0.0000
     51 H22        2.9437    4.2356    3.9528 H         1 RES1    0.0000
     52 H23        3.1370    4.2030    5.5258 H         1 RES1    0.0000
     53 H24        3.4309    5.5342    4.7188 H         1 RES1    0.0000
     54 C24        2.0898    5.8052    1.8360 C.3       1 RES1    0.0000
     55 H25        2.7442    6.4719    2.0972 H         1 RES1    0.0000
     56 H26        1.9161    5.8789    0.8845 H         1 RES1    0.0000
     57 H27        2.4327    4.9196    2.0349 H         1 RES1    0.0000
     58 C25        0.0797    7.2598    2.0293 C.3       1 RES1    0.0000
     59 H28       -0.6785    7.4920    2.5881 H         1 RES1    0.0000
     60 H29       -0.2304    7.0580    1.1322 H         1 RES1    0.0000
     61 H30        0.6984    8.0063    1.9969 H         1 RES1    0.0000
@<TRIPOS>BOND
     1    1    2 2
     2    3    1 1
     3    4    3 ar
     4    5    4 1
     5    6    4 ar
     6    7    6 1
     7    8    6 ar
     8    9    8 1
     9   10    8 ar
    10   11   10 1
    11   12    3 ar
    12   13   12 1
    13   14    1 1
    14   15   14 1
    15   16   14 1
    16   17   16 1
    17   18   17 2
    18   19   18 1
    19   20   16 1
    20   21   20 1
    21   22   19 1
    22   23   22 ar
    23   24   23 1
    24   25   23 ar
    25   26   25 1
    26   27   25 ar
    27   28   27 1
    28   29   27 ar
    29   30   29 1
    30   31   22 ar
    31   32   31 1
    32   33   14 1
    33   34   33 1
    34   35   34 1
    35   36   35 1
    36   37   36 1
    37   38   36 1
    38   39   36 1
    39   40   39 1
    40   41   39 1
    41   42   39 1
    42   43   42 1
    43   44   42 1
    44   45   34 1
    45   46   35 1
    46   47   46 1
    47   48   46 1
    48   49   46 1
    49   50   35 1
    50   51   50 1
    51   52   50 1
    52   53   50 1
    53   54   45 1
    54   55   54 1
    55   56   54 1
    56   57   54 1
    57   58   45 1
    58   59   58 1
    59   60   58 1
    60   61   58 1
    61   10   12 ar
    62   19   20 2
    63   29   31 ar
    64   42   45 1
@<TRIPOS>SUBSTRUCTURE
     1 RES1 1

@<TRIPOS>CRYSIN
   6.1835   11.8453   15.2024  91.1655  90.8648  91.3856   2 1

