# MOL2 file generated by ConQuest
# Please check atom types

@<TRIPOS>MOLECULE
HAVMUM
    49    52     1
SMALL
NO_CHARGES
****
Generated from CSD

@<TRIPOS>ATOM
      1 O1         3.1502   -0.0594   -4.7008 O.2       1 RES1    0.0000
      2 O2         4.8245    0.9151   -3.7251 O.2       1 RES1    0.0000
      3 O3        -0.0409   -1.7243   -0.1382 O.3       1 RES1    0.0000
      4 N1         8.7812   -2.9324   -6.6372 N.1       1 RES1    0.0000
      5 N2         4.2691   -0.0592   -4.2126 N.pl3     1 RES1    0.0000
      6 C1         6.7913   -2.6662   -4.9986 C.ar      1 RES1    0.0000
      7 C2         6.1234   -1.4433   -5.0193 C.ar      1 RES1    0.0000
      8 C3         5.0023   -1.3465   -4.2027 C.ar      1 RES1    0.0000
      9 C4         4.5178   -2.3693   -3.4021 C.ar      1 RES1    0.0000
     10 C5         5.2304   -3.5570   -3.4235 C.ar      1 RES1    0.0000
     11 C6         6.3776   -3.7425   -4.1969 C.ar      1 RES1    0.0000
     12 C7         6.5339   -0.3301   -5.9146 C.ar      1 RES1    0.0000
     13 C8         7.7716    0.2811   -5.7743 C.ar      1 RES1    0.0000
     14 C9         8.1374    1.3272   -6.6057 C.ar      1 RES1    0.0000
     15 C10        7.2646    1.7463   -7.5774 C.ar      1 RES1    0.0000
     16 C11        6.0455    1.1569   -7.7472 C.ar      1 RES1    0.0000
     17 C12        5.6734    0.1132   -6.9060 C.ar      1 RES1    0.0000
     18 C13        3.3124   -2.2129   -2.5367 C.ar      1 RES1    0.0000
     19 C14        3.1573   -1.1173   -1.6894 C.ar      1 RES1    0.0000
     20 C15        2.0224   -0.9858   -0.9155 C.ar      1 RES1    0.0000
     21 C16        1.0383   -1.9486   -0.9588 C.ar      1 RES1    0.0000
     22 C17        1.1728   -3.0449   -1.7794 C.ar      1 RES1    0.0000
     23 C18        2.3194   -3.1607   -2.5641 C.ar      1 RES1    0.0000
     24 C19        7.0941   -5.0439   -4.1680 C.ar      1 RES1    0.0000
     25 C20        6.3870   -6.2312   -4.1798 C.ar      1 RES1    0.0000
     26 C21        7.0453   -7.4542   -4.2069 C.ar      1 RES1    0.0000
     27 C22        8.4180   -7.4843   -4.2172 C.ar      1 RES1    0.0000
     28 C23        9.1375   -6.3309   -4.1736 C.ar      1 RES1    0.0000
     29 C24        8.4858   -5.0988   -4.1386 C.ar      1 RES1    0.0000
     30 C25       -1.0327   -2.7351   -0.0677 C.3       1 RES1    0.0000
     31 C26        7.9127   -2.8264   -5.9183 C.1       1 RES1    0.0000
     32 H1         4.9708   -4.2720   -2.8710 H         1 RES1    0.0000
     33 H2         8.4351   -0.0900   -5.0744 H         1 RES1    0.0000
     34 H3         9.1128    1.7223   -6.4281 H         1 RES1    0.0000
     35 H4         7.5408    2.5047   -8.0544 H         1 RES1    0.0000
     36 H5         5.3756    1.4264   -8.4284 H         1 RES1    0.0000
     37 H6         4.7917   -0.3291   -7.0202 H         1 RES1    0.0000
     38 H7         3.8830   -0.4285   -1.6015 H         1 RES1    0.0000
     39 H8         1.8976   -0.1882   -0.4124 H         1 RES1    0.0000
     40 H9         0.4793   -3.7606   -1.8752 H         1 RES1    0.0000
     41 H10        2.3783   -3.9749   -3.1658 H         1 RES1    0.0000
     42 H11        5.3794   -6.1825   -4.2024 H         1 RES1    0.0000
     43 H12        6.5189   -8.3155   -4.2718 H         1 RES1    0.0000
     44 H13        8.8808   -8.3498   -4.2606 H         1 RES1    0.0000
     45 H14       10.1305   -6.2582   -4.1863 H         1 RES1    0.0000
     46 H15        9.0301   -4.2696   -4.0736 H         1 RES1    0.0000
     47 H16       -0.6142   -3.6233    0.2589 H         1 RES1    0.0000
     48 H17       -1.7293   -2.3745    0.5090 H         1 RES1    0.0000
     49 H18       -1.5184   -2.8989   -1.0317 H         1 RES1    0.0000
@<TRIPOS>BOND
     1    1    5 2
     2    2    5 2
     3    3   21 1
     4    4   31 3
     5    5    8 1
     6    6    7 ar
     7    7    8 ar
     8    8    9 ar
     9    9   10 ar
    10   10   11 ar
    11   11    6 ar
    12   12    7 1
    13   13   12 ar
    14   14   13 ar
    15   15   14 ar
    16   16   15 ar
    17   17   12 ar
    18   18    9 1
    19   19   18 ar
    20   20   19 ar
    21   21   20 ar
    22   22   21 ar
    23   23   18 ar
    24   24   11 1
    25   25   24 ar
    26   26   25 ar
    27   27   26 ar
    28   28   27 ar
    29   29   24 ar
    30   30    3 1
    31   31    6 1
    32   32   10 1
    33   33   13 1
    34   34   14 1
    35   35   15 1
    36   36   16 1
    37   37   17 1
    38   38   19 1
    39   39   20 1
    40   40   22 1
    41   41   23 1
    42   42   25 1
    43   43   26 1
    44   44   27 1
    45   45   28 1
    46   46   29 1
    47   47   30 1
    48   48   30 1
    49   49   30 1
    50   16   17 ar
    51   22   23 ar
    52   28   29 ar
@<TRIPOS>SUBSTRUCTURE
     1 RES1 1

@<TRIPOS>CRYSIN
  14.5020   11.8370   13.5030  90.0000 113.4730  90.0000  14 1

