# MOL2 file generated by ConQuest
# Please check atom types

@<TRIPOS>MOLECULE
HAVWIL
    47    49     1
SMALL
NO_CHARGES
****
Generated from CSD

@<TRIPOS>ATOM
      1 O1         5.0007   10.4745   11.7182 O.3       1 RES1    0.0000
      2 O2         5.2717   11.6449    9.3338 O.2       1 RES1    0.0000
      3 O3         8.5500   10.5171    9.7867 O.3       1 RES1    0.0000
      4 H1         9.3658   10.8757    9.8095 H         1 RES1    0.0000
      5 N1         4.9276    9.2427   12.5241 N.3       1 RES1    0.0000
      6 C1         6.2431   10.2901   11.0396 C.3       1 RES1    0.0000
      7 H2         7.0046   10.5083   11.6497 H         1 RES1    0.0000
      8 C2         6.2753    8.7839   10.6619 C.3       1 RES1    0.0000
      9 H3         6.1469    8.6544    9.6888 H         1 RES1    0.0000
     10 H4         7.1276    8.3623   10.9365 H         1 RES1    0.0000
     11 C3         5.0901    8.2202   11.4617 C.3       1 RES1    0.0000
     12 H5         4.2749    8.2161   10.8818 H         1 RES1    0.0000
     13 C4         3.5804    9.2227   13.0881 C.3       1 RES1    0.0000
     14 H6         3.3788    8.3015   13.3901 H         1 RES1    0.0000
     15 H7         2.9358    9.4499   12.3726 H         1 RES1    0.0000
     16 C5         3.3666   10.1654   14.2447 C.ar      1 RES1    0.0000
     17 C6         2.1499   10.1269   14.9209 C.ar      1 RES1    0.0000
     18 H8         1.4744    9.5206   14.6395 H         1 RES1    0.0000
     19 C7         1.9133   10.9649   16.0028 C.ar      1 RES1    0.0000
     20 H9         1.0839   10.9231   16.4635 H         1 RES1    0.0000
     21 C8         2.8854   11.8612   16.4095 C.ar      1 RES1    0.0000
     22 H10        2.7205   12.4434   17.1413 H         1 RES1    0.0000
     23 C9         4.0982   11.9069   15.7458 C.ar      1 RES1    0.0000
     24 H11        4.7686   12.5202   16.0256 H         1 RES1    0.0000
     25 C10        4.3391   11.0590   14.6734 C.ar      1 RES1    0.0000
     26 H12        5.1777   11.0902   14.2289 H         1 RES1    0.0000
     27 C11        6.2818   11.1827    9.8211 C.2       1 RES1    0.0000
     28 C12        7.6566   11.4701    9.2188 C.3       1 RES1    0.0000
     29 C13        7.6130   11.3038    7.7105 C.3       1 RES1    0.0000
     30 H13        7.4231   10.3676    7.4912 H         1 RES1    0.0000
     31 H14        8.4785   11.5595    7.3286 H         1 RES1    0.0000
     32 H15        6.9097   11.8763    7.3382 H         1 RES1    0.0000
     33 C14        8.0411   12.8964    9.6091 C.3       1 RES1    0.0000
     34 H16        8.9340   13.1008    9.2605 H         1 RES1    0.0000
     35 H17        8.0444   12.9786   10.5855 H         1 RES1    0.0000
     36 H18        7.3913   13.5252    9.2300 H         1 RES1    0.0000
     37 C15        5.2789    6.8475   12.0641 C.ar      1 RES1    0.0000
     38 C16        6.4071    6.5306   12.8097 C.ar      1 RES1    0.0000
     39 H19        7.0864    7.1836   12.9329 H         1 RES1    0.0000
     40 C17        6.5546    5.2739   13.3748 C.ar      1 RES1    0.0000
     41 H20        7.3355    5.0659   13.8747 H         1 RES1    0.0000
     42 C18        5.5613    4.3212   13.2111 C.ar      1 RES1    0.0000
     43 H21        5.6599    3.4591   13.5978 H         1 RES1    0.0000
     44 C19        4.4268    4.6260   12.4837 C.ar      1 RES1    0.0000
     45 H22        3.7421    3.9763   12.3742 H         1 RES1    0.0000
     46 C20        4.2881    5.8822   11.9123 C.ar      1 RES1    0.0000
     47 H23        3.5076    6.0864   11.4115 H         1 RES1    0.0000
@<TRIPOS>BOND
     1    1    5 1
     2    2   27 2
     3    3    4 1
     4    5   11 1
     5    6    1 1
     6    7    6 1
     7    8    6 1
     8    9    8 1
     9   10    8 1
    10   11    8 1
    11   12   11 1
    12   13    5 1
    13   14   13 1
    14   15   13 1
    15   16   13 1
    16   17   16 ar
    17   18   17 1
    18   19   17 ar
    19   20   19 1
    20   21   19 ar
    21   22   21 1
    22   23   21 ar
    23   24   23 1
    24   25   16 ar
    25   26   25 1
    26   27    6 1
    27   28    3 1
    28   29   28 1
    29   30   29 1
    30   31   29 1
    31   32   29 1
    32   33   28 1
    33   34   33 1
    34   35   33 1
    35   36   33 1
    36   37   11 1
    37   38   37 ar
    38   39   38 1
    39   40   38 ar
    40   41   40 1
    41   42   40 ar
    42   43   42 1
    43   44   42 ar
    44   45   44 1
    45   46   37 ar
    46   47   46 1
    47   23   25 ar
    48   27   28 1
    49   44   46 ar
@<TRIPOS>SUBSTRUCTURE
     1 RES1 1

@<TRIPOS>CRYSIN
   5.9157    9.1301   16.2207  88.0346  83.0576  81.1759   2 1

