# MOL2 file generated by ConQuest
# Please check atom types

@<TRIPOS>MOLECULE
HAVYUY
    52    56     1
SMALL
NO_CHARGES
****
Generated from CSD

@<TRIPOS>ATOM
      1 O1        -4.2710   -2.0960   -3.7853 O.3       1 RES1    0.0000
      2 C1        -3.7309   -1.7154   -5.0313 C.3       1 RES1    0.0000
      3 C2        -4.4186   -2.6624   -6.0243 C.3       1 RES1    0.0000
      4 C3        -5.1926   -3.1798   -3.9484 C.3       1 RES1    0.0000
      5 C4        -6.5881   -2.6607   -3.9168 C.3       1 RES1    0.0000
      6 C5        -4.9058   -4.2047   -2.8805 C.3       1 RES1    0.0000
      7 O2        -4.8647   -3.7334   -5.2141 O.3       1 RES1    0.0000
      8 C6        -3.4858   -3.2255   -7.0805 C.3       1 RES1    0.0000
      9 C7        -2.1484   -3.6939   -6.5407 C.3       1 RES1    0.0000
     10 O3        -1.2266   -3.2394   -7.4900 O.3       1 RES1    0.0000
     11 C8        -1.8466   -2.3775   -8.4500 C.3       1 RES1    0.0000
     12 C9        -1.9053   -3.0841   -9.7495 C.3       1 RES1    0.0000
     13 C10       -1.0839   -1.1139   -8.5150 C.3       1 RES1    0.0000
     14 O4        -3.1470   -2.1260   -7.9312 O.3       1 RES1    0.0000
     15 C11       -1.8546   -3.1392   -5.1480 C.3       1 RES1    0.0000
     16 O5        -2.3287   -1.8038   -5.0185 O.3       1 RES1    0.0000
     17 C12       -0.3815   -3.0763   -4.8347 C.3       1 RES1    0.0000
     18 C13       -0.0622   -2.6663   -3.3937 C.3       1 RES1    0.0000
     19 C14        0.7085   -3.8108   -2.9322 C.2       1 RES1    0.0000
     20 N1         0.8301   -4.7778   -3.7902 N.2       1 RES1    0.0000
     21 O6         0.1737   -4.4039   -4.9777 O.3       1 RES1    0.0000
     22 C15        1.3746   -3.9465   -1.6144 C.ar      1 RES1    0.0000
     23 C16        2.2106   -5.0026   -1.3328 C.ar      1 RES1    0.0000
     24 C17        2.8308   -5.0671   -0.0916 C.ar      1 RES1    0.0000
     25 C18        2.6245   -4.0806    0.8547 C.ar      1 RES1    0.0000
     26 C19        1.7980   -3.0602    0.5731 C.ar      1 RES1    0.0000
     27 C20        1.1588   -2.9634   -0.6514 C.ar      1 RES1    0.0000
     28 H1        -3.9137   -0.6849   -5.2996 H         1 RES1    0.0000
     29 H2        -5.1896   -2.1332   -6.5641 H         1 RES1    0.0000
     30 H3        -7.2797   -3.4808   -4.0401 H         1 RES1    0.0000
     31 H4        -6.7257   -1.9502   -4.7181 H         1 RES1    0.0000
     32 H5        -6.7702   -2.1750   -2.9705 H         1 RES1    0.0000
     33 H6        -5.1527   -3.7946   -1.9126 H         1 RES1    0.0000
     34 H7        -3.8594   -4.4668   -2.9055 H         1 RES1    0.0000
     35 H8        -5.5020   -5.0872   -3.0605 H         1 RES1    0.0000
     36 H9        -3.9935   -4.0606   -7.5403 H         1 RES1    0.0000
     37 H10       -2.1154   -4.7656   -6.4108 H         1 RES1    0.0000
     38 H11       -2.3715   -2.4459  -10.4842 H         1 RES1    0.0000
     39 H12       -2.4849   -3.9894   -9.6395 H         1 RES1    0.0000
     40 H13       -0.9048   -3.3339  -10.0693 H         1 RES1    0.0000
     41 H14       -1.5424   -0.4546   -9.2380 H         1 RES1    0.0000
     42 H15       -0.0658   -1.3215   -8.8115 H         1 RES1    0.0000
     43 H16       -1.0858   -0.6410   -7.5437 H         1 RES1    0.0000
     44 H17       -2.3525   -3.8186   -4.4716 H         1 RES1    0.0000
     45 H18        0.0276   -2.3397   -5.5095 H         1 RES1    0.0000
     46 H19       -0.9620   -2.5344   -2.8122 H         1 RES1    0.0000
     47 H20        0.5232   -1.7593   -3.3620 H         1 RES1    0.0000
     48 H21        2.3837   -5.7738   -2.0692 H         1 RES1    0.0000
     49 H22        3.4799   -5.8984    0.1383 H         1 RES1    0.0000
     50 H23        3.1253   -4.1302    1.8109 H         1 RES1    0.0000
     51 H24        1.6275   -2.2974    1.3195 H         1 RES1    0.0000
     52 H25        0.4978   -2.1344   -0.8597 H         1 RES1    0.0000
@<TRIPOS>BOND
     1    1    2 1
     2    2    3 1
     3    3    7 1
     4    4    1 1
     5    5    4 1
     6    6    4 1
     7    7    4 1
     8    8    3 1
     9    9    8 1
    10   10    9 1
    11   11   10 1
    12   12   11 1
    13   13   11 1
    14   14    8 1
    15   15    9 1
    16   16    2 1
    17   17   15 1
    18   18   17 1
    19   19   18 1
    20   20   19 2
    21   21   17 1
    22   22   19 1
    23   23   22 ar
    24   24   23 ar
    25   25   24 ar
    26   26   25 ar
    27   27   22 ar
    28   28    2 1
    29   29    3 1
    30   30    5 1
    31   31    5 1
    32   32    5 1
    33   33    6 1
    34   34    6 1
    35   35    6 1
    36   36    8 1
    37   37    9 1
    38   38   12 1
    39   39   12 1
    40   40   12 1
    41   41   13 1
    42   42   13 1
    43   43   13 1
    44   44   15 1
    45   45   17 1
    46   46   18 1
    47   47   18 1
    48   48   23 1
    49   49   24 1
    50   50   25 1
    51   51   26 1
    52   52   27 1
    53   11   14 1
    54   15   16 1
    55   20   21 1
    56   26   27 ar
@<TRIPOS>SUBSTRUCTURE
     1 RES1 1

@<TRIPOS>CRYSIN
  10.5650    5.5640   16.6930  90.0000  93.6000  90.0000   4 1

