# MOL2 file generated by ConQuest
# Please check atom types

@<TRIPOS>MOLECULE
HAWLUN
    39    40     1
SMALL
NO_CHARGES
****
Generated from CSD

@<TRIPOS>ATOM
      1 C1         3.8978    2.8060    1.6755 C.2       1 RES1    0.0000
      2 C2         3.8596    1.9454    0.6583 C.2       1 RES1    0.0000
      3 H1         3.3996    1.1580    0.8413 H         1 RES1    0.0000
      4 C3         4.4065    2.0166   -0.6832 C.ar      1 RES1    0.0000
      5 C4         5.3089    2.9771   -1.1413 C.ar      1 RES1    0.0000
      6 H2         5.6169    3.6306   -0.5559 H         1 RES1    0.0000
      7 C5         5.7521    2.9753   -2.4441 C.ar      1 RES1    0.0000
      8 H3         6.3506    3.6275   -2.7282 H         1 RES1    0.0000
      9 C6         5.3200    2.0206   -3.3295 C.ar      1 RES1    0.0000
     10 C7         4.4463    1.0357   -2.8941 C.ar      1 RES1    0.0000
     11 H4         4.1616    0.3723   -3.4800 H         1 RES1    0.0000
     12 C8         4.0052    1.0428   -1.6012 C.ar      1 RES1    0.0000
     13 H5         3.4185    0.3769   -1.3226 H         1 RES1    0.0000
     14 C9         6.5918    2.9368   -5.1281 C.3       1 RES1    0.0000
     15 H6         6.2004    3.8068   -5.0241 H         1 RES1    0.0000
     16 H7         6.7670    2.7735   -6.0571 H         1 RES1    0.0000
     17 H8         7.4148    2.8950   -4.6365 H         1 RES1    0.0000
     18 C10        4.5578    4.1553    1.7396 C.2       1 RES1    0.0000
     19 C11        4.2335    6.5619    1.7854 C.3       1 RES1    0.0000
     20 H9         4.4815    6.8706    0.8988 H         1 RES1    0.0000
     21 H10        5.0292    6.5788    2.3406 H         1 RES1    0.0000
     22 C12        3.2099    7.4964    2.3632 C.ar      1 RES1    0.0000
     23 C13        2.8507    7.3938    3.6928 C.ar      1 RES1    0.0000
     24 H11        3.2420    6.7444    4.2319 H         1 RES1    0.0000
     25 C14        1.9016    8.2641    4.2289 C.ar      1 RES1    0.0000
     26 H12        1.6624    8.1942    5.1242 H         1 RES1    0.0000
     27 C15        1.3220    9.2205    3.4381 C.ar      1 RES1    0.0000
     28 H13        0.6852    9.7960    3.7953 H         1 RES1    0.0000
     29 C16        1.6793    9.3293    2.1236 C.ar      1 RES1    0.0000
     30 H14        1.2862    9.9799    1.5888 H         1 RES1    0.0000
     31 C17        2.6220    8.4751    1.5903 C.ar      1 RES1    0.0000
     32 H15        2.8644    8.5605    0.6964 H         1 RES1    0.0000
     33 H16        2.8864    5.0332    1.7145 H         1 RES1    0.0000
     34 N1         3.2393    2.4171    2.9178 N.pl3     1 RES1    0.0000
     35 N2         3.7433    5.1928    1.6951 N.am      1 RES1    0.0000
     36 O1         2.5603    1.4062    2.9502 O.2       1 RES1    0.0000
     37 O2         3.4264    3.1400    3.8879 O.2       1 RES1    0.0000
     38 O3         5.7852    4.2504    1.7845 O.2       1 RES1    0.0000
     39 O4         5.6902    1.9475   -4.6323 O.3       1 RES1    0.0000
@<TRIPOS>BOND
     1    1    2 2
     2    2    3 1
     3    4    2 1
     4    5    4 ar
     5    6    5 1
     6    7    5 ar
     7    8    7 1
     8    9    7 ar
     9   10    9 ar
    10   11   10 1
    11   12    4 ar
    12   13   12 1
    13   14   15 1
    14   16   14 1
    15   17   14 1
    16   18    1 1
    17   19   20 1
    18   21   19 1
    19   22   19 1
    20   23   22 ar
    21   24   23 1
    22   25   23 ar
    23   26   25 1
    24   27   25 ar
    25   28   27 1
    26   29   27 ar
    27   30   29 1
    28   31   22 ar
    29   32   31 1
    30   33   35 1
    31   34    1 1
    32   35   18 1
    33   36   34 2
    34   37   34 2
    35   38   18 2
    36   39    9 1
    37   10   12 ar
    38   14   39 1
    39   19   35 1
    40   29   31 ar
@<TRIPOS>SUBSTRUCTURE
     1 RES1 1

@<TRIPOS>CRYSIN
   4.7423   15.1970   21.3500  90.0000  94.0100  90.0000  14 1

