# MOL2 file generated by ConQuest
# Please check atom types

@<TRIPOS>MOLECULE
HAWNAV
    63    66     1
SMALL
NO_CHARGES
****
Generated from CSD

@<TRIPOS>ATOM
      1 O1         1.5816   14.6653    7.1793 O.2       1 RES1    0.0000
      2 O2         1.0564   16.0601    5.6603 O.2       1 RES1    0.0000
      3 O3         4.0336   13.8560    0.7391 O.2       1 RES1    0.0000
      4 O4         3.0394   15.6866    1.3098 O.2       1 RES1    0.0000
      5 O5         4.3202   10.7240    6.1406 O.2       1 RES1    0.0000
      6 O6         4.5971   10.2927    3.9357 O.3       1 RES1    0.0000
      7 O7         7.2222   10.4064    4.7478 O.3       1 RES1    0.0000
      8 N1         1.6086   15.0653    6.0342 N.pl3     1 RES1    0.0000
      9 N2         3.4845   14.5722    1.5513 N.pl3     1 RES1    0.0000
     10 C1         5.0503    5.8116    2.2557 C.3       1 RES1    0.0000
     11 H1         5.8119    5.6054    1.6911 H         1 RES1    0.0000
     12 H2         4.6041    4.9844    2.4971 H         1 RES1    0.0000
     13 C2         5.4896    6.5890    3.5111 C.3       1 RES1    0.0000
     14 H3         6.4537    6.6975    3.5371 H         1 RES1    0.0000
     15 H4         5.1995    6.1407    4.3207 H         1 RES1    0.0000
     16 C3         4.7735    7.9619    3.3402 C.3       1 RES1    0.0000
     17 C4         3.3025    7.6752    3.5878 C.2       1 RES1    0.0000
     18 C5         2.7963    6.9247    2.3510 C.3       1 RES1    0.0000
     19 C6         4.0878    6.7667    1.5488 C.3       1 RES1    0.0000
     20 H5         3.9454    6.5609    0.6004 H         1 RES1    0.0000
     21 C7         4.7844    8.1081    1.7976 C.3       1 RES1    0.0000
     22 H6         4.2649    8.8661    1.4881 H         1 RES1    0.0000
     23 H7         5.6816    8.1416    1.4299 H         1 RES1    0.0000
     24 C8         2.0982    5.6115    2.7311 C.3       1 RES1    0.0000
     25 H8         1.3011    5.8058    3.2300 H         1 RES1    0.0000
     26 H9         2.6893    5.0788    3.2672 H         1 RES1    0.0000
     27 H10        1.8675    5.1294    1.9338 H         1 RES1    0.0000
     28 C9         1.7667    7.7749    1.5810 C.3       1 RES1    0.0000
     29 H11        0.9660    7.8591    2.1034 H         1 RES1    0.0000
     30 H12        1.5593    7.3473    0.7453 H         1 RES1    0.0000
     31 H13        2.1329    8.6456    1.4126 H         1 RES1    0.0000
     32 C10        2.6187    7.9549    4.6649 C.2       1 RES1    0.0000
     33 H14        3.0336    8.3748    5.3830 H         1 RES1    0.0000
     34 H15        1.7165    7.7352    4.7132 H         1 RES1    0.0000
     35 C11        5.3747    9.0723    4.1833 C.3       1 RES1    0.0000
     36 H16        5.3166    8.8321    5.1316 H         1 RES1    0.0000
     37 C12        6.7804    9.4202    3.8428 C.3       1 RES1    0.0000
     38 H17        7.3431    8.6330    3.9085 H         1 RES1    0.0000
     39 H18        6.8288    9.7574    2.9354 H         1 RES1    0.0000
     40 C13        8.4330   11.0325    4.3641 C.3       1 RES1    0.0000
     41 H19        9.0689   10.3528    4.0929 H         1 RES1    0.0000
     42 H20        8.8048   11.4959    5.1316 H         1 RES1    0.0000
     43 C14        8.2576   12.0134    3.2412 C.ar      1 RES1    0.0000
     44 C15        8.8794   11.8589    2.0168 C.ar      1 RES1    0.0000
     45 H21        9.4147   11.1122    1.8707 H         1 RES1    0.0000
     46 C16        8.7268   12.7780    1.0090 C.ar      1 RES1    0.0000
     47 H22        9.1492   12.6504    0.1907 H         1 RES1    0.0000
     48 C17        7.9447   13.8885    1.2182 C.ar      1 RES1    0.0000
     49 H23        7.8480   14.5258    0.5484 H         1 RES1    0.0000
     50 C18        7.3106   14.0496    2.4117 C.ar      1 RES1    0.0000
     51 H24        6.7626   14.7886    2.5491 H         1 RES1    0.0000
     52 C19        7.4763   13.1319    3.4120 C.ar      1 RES1    0.0000
     53 H25        7.0508   13.2676    4.2266 H         1 RES1    0.0000
     54 C20        4.2491   11.0319    4.9756 C.2       1 RES1    0.0000
     55 C21        3.6741   12.3530    4.5411 C.ar      1 RES1    0.0000
     56 C22        3.8508   12.8388    3.2585 C.ar      1 RES1    0.0000
     57 H26        4.3364   12.3512    2.6321 H         1 RES1    0.0000
     58 C23        3.2983   14.0555    2.9180 C.ar      1 RES1    0.0000
     59 C24        2.5589   14.8055    3.7983 C.ar      1 RES1    0.0000
     60 H27        2.1889   15.6213    3.5507 H         1 RES1    0.0000
     61 C25        2.3915   14.2877    5.0673 C.ar      1 RES1    0.0000
     62 C26        2.9587   13.0999    5.4597 C.ar      1 RES1    0.0000
     63 H28        2.8615   12.8004    6.3350 H         1 RES1    0.0000
@<TRIPOS>BOND
     1    1    8 2
     2    2    8 2
     3    3    9 2
     4    4    9 2
     5    5   54 2
     6    6   35 1
     7    7   37 1
     8    8   61 1
     9    9   58 1
    10   10   11 1
    11   12   10 1
    12   13   10 1
    13   14   13 1
    14   15   13 1
    15   16   13 1
    16   17   16 1
    17   18   17 1
    18   19   10 1
    19   20   19 1
    20   21   16 1
    21   22   21 1
    22   23   21 1
    23   24   18 1
    24   25   24 1
    25   26   24 1
    26   27   24 1
    27   28   18 1
    28   29   28 1
    29   30   28 1
    30   31   28 1
    31   32   17 2
    32   33   32 1
    33   34   32 1
    34   35   16 1
    35   36   35 1
    36   37   35 1
    37   38   37 1
    38   39   37 1
    39   40    7 1
    40   41   40 1
    41   42   40 1
    42   43   40 1
    43   44   43 ar
    44   45   44 1
    45   46   44 ar
    46   47   46 1
    47   48   46 ar
    48   49   48 1
    49   50   48 ar
    50   51   50 1
    51   52   43 ar
    52   53   52 1
    53   54    6 1
    54   55   54 1
    55   56   55 ar
    56   57   56 1
    57   58   56 ar
    58   59   58 ar
    59   60   59 1
    60   61   59 ar
    61   62   55 ar
    62   63   62 1
    63   18   19 1
    64   19   21 1
    65   50   52 ar
    66   61   62 ar
@<TRIPOS>SUBSTRUCTURE
     1 RES1 1

@<TRIPOS>CRYSIN
   8.0710   12.6810   13.6390  65.6400  87.9300  74.4900   2 1

