# MOL2 file generated by ConQuest
# Please check atom types

@<TRIPOS>MOLECULE
HAXVUX
    36    33     2
SMALL
NO_CHARGES
****
Generated from CSD

@<TRIPOS>ATOM
      1 O1        12.9279    2.0028    9.9441 O.2       1 RES1    0.0000
      2 N1         8.1406   -0.0075    8.6300 N.pl3     1 RES1    0.0000
      3 O2         7.2856   -0.9309    8.8657 O.2       1 RES1    0.0000
      4 O3         8.1850    0.6497    7.6445 O.2       1 RES1    0.0000
      5 N2        10.7421   -0.4749    8.0460 N.pl3     1 RES1    0.0000
      6 O4        10.4192   -1.4264    7.3869 O.2       1 RES1    0.0000
      7 O5        11.3683    0.4880    7.6299 O.2       1 RES1    0.0000
      8 N3        11.4245    0.0404   11.8557 N.pl3     1 RES1    0.0000
      9 O6        11.3343   -1.0447   12.4387 O.2       1 RES1    0.0000
     10 O7        11.3238    1.0522   12.4397 O.2       1 RES1    0.0000
     11 C1        11.7879    1.5553    9.9420 C.2       1 RES1    0.0000
     12 C2        10.6074    2.3526    9.8022 C.2       1 RES1    0.0000
     13 C3         9.3943    1.8167    9.7052 C.2       1 RES1    0.0000
     14 C4         9.1001    0.3366    9.7866 C.3       1 RES1    0.0000
     15 C5        10.3734   -0.5679    9.6729 C.3       1 RES1    0.0000
     16 C6        11.6415    0.0310   10.3039 C.3       1 RES1    0.0000
     17 C7        10.8048    3.8609    9.6792 C.3       1 RES1    0.0000
     18 C8         8.2530    0.1044   11.0954 C.3       1 RES1    0.0000
     19 C9        10.0950   -2.0386    9.9274 C.3       1 RES1    0.0000
     20 C10       12.9057   -0.7814    9.9722 C.3       1 RES1    0.0000
     21 H1         8.6609    2.4062    9.5759 H         1 RES1    0.0000
     22 H2        11.3369    4.0565    8.8803 H         1 RES1    0.0000
     23 H3        11.2728    4.1947   10.4728 H         1 RES1    0.0000
     24 H4         9.9316    4.3000    9.6051 H         1 RES1    0.0000
     25 H5         7.8438   -0.7804   11.0652 H         1 RES1    0.0000
     26 H6         7.5562    0.7899   11.1590 H         1 RES1    0.0000
     27 H7         8.8400    0.1599   11.8786 H         1 RES1    0.0000
     28 H8        10.8689   -2.5708    9.6468 H         1 RES1    0.0000
     29 H9         9.3054   -2.3150    9.4153 H         1 RES1    0.0000
     30 H10        9.9303   -2.1796   10.8827 H         1 RES1    0.0000
     31 H11       13.6770   -0.3855   10.4290 H         1 RES1    0.0000
     32 H12       13.0586   -0.7692    9.0044 H         1 RES1    0.0000
     33 H13       12.7880   -1.7066   10.2726 H         1 RES1    0.0000
     34 H14        8.3144    0.8933   11.6701 Du        2 SUP2    0.0000
     35 H15        8.6020   -0.6770   11.5762 Du        2 SUP2    0.0000
     36 H16        7.3157   -0.0470   10.8555 Du        2 SUP2    0.0000
@<TRIPOS>BOND
     1    1   11 2
     2    2    3 2
     3    4    2 2
     4    5    6 2
     5    7    5 2
     6    8    9 2
     7   10    8 2
     8   11   12 1
     9   12   13 2
    10   13   14 1
    11   14    2 1
    12   15    5 1
    13   16    8 1
    14   17   12 1
    15   18   14 1
    16   19   15 1
    17   20   16 1
    18   21   13 1
    19   22   17 1
    20   23   17 1
    21   24   17 1
    22   25   18 1
    23   26   18 1
    24   27   18 1
    25   28   19 1
    26   29   19 1
    27   30   19 1
    28   31   20 1
    29   32   20 1
    30   33   20 1
    31   11   16 1
    32   14   15 1
    33   15   16 1
@<TRIPOS>SUBSTRUCTURE
     1 RES1 1
     2 SUP2 34

@<TRIPOS>CRYSIN
  13.0730    9.4030   10.4290  90.0000  90.0000  90.0000  33 1

