# MOL2 file generated by ConQuest
# Please check atom types

@<TRIPOS>MOLECULE
HAXWEK
    32    33     1
SMALL
NO_CHARGES
****
Generated from CSD

@<TRIPOS>ATOM
      1 N1         1.2563    2.3948    4.7221 N.ar      1 RES1    0.0000
      2 C1         2.2503    1.5704    4.2312 C.ar      1 RES1    0.0000
      3 N2         3.3641    1.9235    3.5915 N.ar      1 RES1    0.0000
      4 C2         3.5429    3.2219    3.3649 C.ar      1 RES1    0.0000
      5 C3         2.5714    4.2059    3.8322 C.ar      1 RES1    0.0000
      6 C4         1.4391    3.6665    4.5085 C.ar      1 RES1    0.0000
      7 N3         2.0587    0.2754    4.4530 N.3       1 RES1    0.0000
      8 H1         1.1453    0.0047    4.8331 H         1 RES1    0.0000
      9 H2         2.7228   -0.4353    4.1875 H         1 RES1    0.0000
     10 N4         4.6057    3.6730    2.6992 N.pl3     1 RES1    0.0000
     11 H3         4.6798    4.5497    2.6414 H         1 RES1    0.0000
     12 C5         5.7292    2.9881    2.1563 C.ar      1 RES1    0.0000
     13 C6         6.7413    3.7722    1.6488 C.ar      1 RES1    0.0000
     14 H4         6.6620    4.7180    1.6748 H         1 RES1    0.0000
     15 C7         7.8777    3.1917    1.0988 C.ar      1 RES1    0.0000
     16 H5         8.5651    3.7499    0.7542 H         1 RES1    0.0000
     17 C8         8.0297    1.8036    1.0410 C.ar      1 RES1    0.0000
     18 C9         6.9884    1.0497    1.5508 C.ar      1 RES1    0.0000
     19 H6         7.0648    0.1026    1.5213 H         1 RES1    0.0000
     20 C10        5.8459    1.5933    2.1020 C.ar      1 RES1    0.0000
     21 H7         5.1534    1.0350    2.4348 H         1 RES1    0.0000
     22 C11        9.2568    1.1618    0.4568 C.3       1 RES1    0.0000
     23 H8         9.3181    0.2335    0.7648 H         1 RES1    0.0000
     24 H9        10.0527    1.6549    0.7459 H         1 RES1    0.0000
     25 H10        9.1991    1.1782   -0.5217 H         1 RES1    0.0000
     26 N5         2.6512    5.5456    3.7095 N.2       1 RES1    0.0000
     27 O1         3.6655    6.0425    3.1206 O.2       1 RES1    0.0000
     28 O2         0.5306    4.5463    4.9405 O.3       1 RES1    0.0000
     29 C12       -0.5747    4.0153    5.7112 C.3       1 RES1    0.0000
     30 H11       -1.0255    3.3143    5.1954 H         1 RES1    0.0000
     31 H12       -1.2095    4.7344    5.9095 H         1 RES1    0.0000
     32 H13       -0.2363    3.6373    6.5491 H         1 RES1    0.0000
@<TRIPOS>BOND
     1    1    2 ar
     2    2    3 ar
     3    3    4 ar
     4    4    5 ar
     5    5    6 ar
     6    6    1 ar
     7    7    2 1
     8    8    7 1
     9    9    7 1
    10   10    4 1
    11   11   10 1
    12   12   10 1
    13   13   12 ar
    14   14   13 1
    15   15   13 ar
    16   16   15 1
    17   17   15 ar
    18   18   17 ar
    19   19   18 1
    20   20   12 ar
    21   21   20 1
    22   22   17 1
    23   23   22 1
    24   24   22 1
    25   25   22 1
    26   26    5 1
    27   27   26 2
    28   28    6 1
    29   29   28 1
    30   30   29 1
    31   31   29 1
    32   32   29 1
    33   18   20 ar
@<TRIPOS>SUBSTRUCTURE
     1 RES1 1

@<TRIPOS>CRYSIN
   6.9750    7.4704   12.1610 102.9000  92.6400 101.1440   2 1

