# MOL2 file generated by ConQuest
# Please check atom types

@<TRIPOS>MOLECULE
HAXWIO
    66    59     2
SMALL
NO_CHARGES
****
Generated from CSD

@<TRIPOS>ATOM
      1 N1         3.4661    5.1223    7.1978 N.ar      1 RES1    0.0000
      2 C1         2.9863    4.9473    5.9263 C.ar      1 RES1    0.0000
      3 N2         2.2120    3.9542    5.4496 N.ar      1 RES1    0.0000
      4 C2         1.8826    2.9862    6.3084 C.ar      1 RES1    0.0000
      5 C3         2.3629    2.9993    7.6843 C.ar      1 RES1    0.0000
      6 C4         3.1333    4.1704    8.0660 C.ar      1 RES1    0.0000
      7 N3         3.3113    5.8988    5.0530 N.3       1 RES1    0.0000
      8 H1         3.1577    5.7769    4.1228 H         1 RES1    0.0000
      9 H2         3.9650    6.5531    5.3099 H         1 RES1    0.0000
     10 N4         1.0973    1.9807    5.9264 N.3       1 RES1    0.0000
     11 H3         0.9216    1.3712    6.6204 H         1 RES1    0.0000
     12 C5         0.4368    1.8000    4.6106 C.3       1 RES1    0.0000
     13 C6         1.4713    1.6118    3.4936 C.3       1 RES1    0.0000
     14 H4         2.0385    2.4197    3.4223 H         1 RES1    0.0000
     15 H5         2.0558    0.8410    3.7038 H         1 RES1    0.0000
     16 C7         0.7464    1.3659    2.1639 C.3       1 RES1    0.0000
     17 H6         1.4212    1.2535    1.4341 H         1 RES1    0.0000
     18 C8        -0.1495    2.5652    1.8481 C.3       1 RES1    0.0000
     19 H7        -0.5991    2.4250    0.9769 H         1 RES1    0.0000
     20 H8         0.4001    3.3850    1.7831 H         1 RES1    0.0000
     21 C9        -1.2019    2.7331    2.9510 C.3       1 RES1    0.0000
     22 H9        -1.7930    3.5093    2.7333 H         1 RES1    0.0000
     23 C10       -0.4803    2.9936    4.2909 C.3       1 RES1    0.0000
     24 H10        0.0571    3.8226    4.2285 H         1 RES1    0.0000
     25 H11       -1.1460    3.1086    5.0156 H         1 RES1    0.0000
     26 C11       -0.1039    0.0965    2.2709 C.3       1 RES1    0.0000
     27 H12        0.4767   -0.6810    2.4722 H         1 RES1    0.0000
     28 H13       -0.5630   -0.0740    1.4112 H         1 RES1    0.0000
     29 C12       -1.1381    0.2750    3.3866 C.3       1 RES1    0.0000
     30 H14       -1.6915   -0.5553    3.4643 H         1 RES1    0.0000
     31 C13       -0.4187    0.5315    4.7151 C.3       1 RES1    0.0000
     32 H15        0.1590   -0.2420    4.9354 H         1 RES1    0.0000
     33 H16       -1.0832    0.6373    5.4398 H         1 RES1    0.0000
     34 C14       -2.0467    1.4651    3.0708 C.3       1 RES1    0.0000
     35 H17       -2.5289    1.3024    2.2212 H         1 RES1    0.0000
     36 H18       -2.7174    1.5748    3.7917 H         1 RES1    0.0000
     37 N5         2.1340    2.1194    8.6590 N.2       1 RES1    0.0000
     38 O1         1.4000    1.0872    8.4163 O.2       1 RES1    0.0000
     39 N6         3.4890    4.2943    9.3446 N.3       1 RES1    0.0000
     40 H19        3.3380    3.5793    9.8937 H         1 RES1    0.0000
     41 C15        4.0900    5.4900    9.9001 C.3       1 RES1    0.0000
     42 H20        3.7838    6.2767    9.3843 H         1 RES1    0.0000
     43 H21        5.0739    5.4305    9.8097 H         1 RES1    0.0000
     44 C16        3.7286    5.6817   11.3750 C.3       1 RES1    0.0000
     45 H22        3.9244    6.6192   11.6259 H         1 RES1    0.0000
     46 H23        2.7542    5.5429   11.4807 H         1 RES1    0.0000
     47 C17        4.4392    4.7799   12.3264 C.2       1 RES1    0.0000
     48 O2         4.7334    5.0960   13.4714 O.2       1 RES1    0.0000
     49 O3         4.7152    3.5947   11.8118 O.3       1 RES1    0.0000
     50 C18        5.4547    2.6617   12.6372 C.3       1 RES1    0.0000
     51 H24        4.8609    2.2505   13.3135 H         1 RES1    0.0000
     52 H25        6.1954    3.1245   13.1046 H         1 RES1    0.0000
     53 C19        5.9876    1.6277   11.7099 C.3       1 RES1    0.0000
     54 H26        5.2421    1.1728   11.2654 H         1 RES1    0.0000
     55 H27        6.5127    0.9745   12.2181 H         1 RES1    0.0000
     56 H28        6.5585    2.0548   11.0375 H         1 RES1    0.0000
     57 C20        4.4392    4.7799   12.3264 Du        2 SUP2    0.0000
     58 C21        5.0610    2.4951   12.1506 Du        2 SUP2    0.0000
     59 C22        5.5705    2.0230   10.8388 Du        2 SUP2    0.0000
     60 H29        4.6132    1.7546   12.6308 Du        2 SUP2    0.0000
     61 H30        5.8080    2.8270   12.7149 Du        2 SUP2    0.0000
     62 H31        4.8276    1.9331   10.2109 Du        2 SUP2    0.0000
     63 H32        6.0205    1.1623   10.9483 Du        2 SUP2    0.0000
     64 H33        6.2148    2.6815   10.4847 Du        2 SUP2    0.0000
     65 O4         5.5618    4.9465   12.8129 Du        2 SUP2    0.0000
     66 O5         4.1239    3.5635   11.8704 Du        2 SUP2    0.0000
@<TRIPOS>BOND
     1    1    2 ar
     2    2    3 ar
     3    3    4 ar
     4    4    5 ar
     5    5    6 ar
     6    6    1 ar
     7    7    2 1
     8    8    7 1
     9    9    7 1
    10   10    4 1
    11   11   10 1
    12   12   10 1
    13   13   12 1
    14   14   13 1
    15   15   13 1
    16   16   13 1
    17   17   16 1
    18   18   16 1
    19   19   18 1
    20   20   18 1
    21   21   18 1
    22   22   21 1
    23   23   12 1
    24   24   23 1
    25   25   23 1
    26   26   16 1
    27   27   26 1
    28   28   26 1
    29   29   26 1
    30   30   29 1
    31   31   12 1
    32   32   31 1
    33   33   31 1
    34   34   21 1
    35   35   34 1
    36   36   34 1
    37   37    5 1
    38   38   37 2
    39   39    6 1
    40   40   39 1
    41   41   39 1
    42   42   41 1
    43   43   41 1
    44   44   41 1
    45   45   44 1
    46   46   44 1
    47   47   44 1
    48   48   47 2
    49   49   47 1
    50   50   49 1
    51   51   50 1
    52   52   50 1
    53   53   50 1
    54   54   53 1
    55   55   53 1
    56   56   53 1
    57   21   23 1
    58   29   31 1
    59   29   34 1
@<TRIPOS>SUBSTRUCTURE
     1 RES1 1
     2 SUP2 57

@<TRIPOS>CRYSIN
  11.6250   13.2225   13.0172  90.0000 101.9200  90.0000  14 1

