# MOL2 file generated by ConQuest
# Please check atom types

@<TRIPOS>MOLECULE
HAYCOA
    40    39     2
SMALL
NO_CHARGES
****
Generated from CSD

@<TRIPOS>ATOM
      1 N1        -0.6637    2.3448    7.4035 N.2       1 RES1    0.0000
      2 N2         2.5557    5.7966    4.3627 N.2       1 RES1    0.0000
      3 O1         3.1492    5.3382    3.3850 O.2       1 RES1    0.0000
      4 O2         2.6556    6.9720    4.7257 O.2       1 RES1    0.0000
      5 C1         1.3191    3.6868    4.5920 C.2       1 RES1    0.0000
      6 C2         0.1332    3.2059    6.6356 C.2       1 RES1    0.0000
      7 C3         1.6995    4.9048    5.1409 C.2       1 RES1    0.0000
      8 C4         1.3084    5.3021    6.4090 C.2       1 RES1    0.0000
      9 C5         0.5252    4.4419    7.1650 C.2       1 RES1    0.0000
     10 C6         0.5245    2.8388    5.3408 C.2       1 RES1    0.0000
     11 C7        -1.0422    1.0933    7.3466 C.3       1 RES1    0.0000
     12 H1        -1.5865    0.7845    8.0953 H         1 RES1    0.0000
     13 O3        -0.6982    0.3550    6.4358 O.3       1 RES1    0.0000
     14 H2        -0.8902    2.7457    8.2376 H         1 RES1    0.0000
     15 C8        -1.0893    2.3666    8.5725 Du        2 SUP2    0.0000
     16 H3        -1.5654    1.5187    8.7160 Du        2 SUP2    0.0000
     17 O4        -0.9466    3.2948    9.3538 Du        2 SUP2    0.0000
     18 H4        -0.7733    1.5790    6.8668 Du        2 SUP2    0.0000
     19 H5         1.5914    3.4568    3.7528 H         1 RES1    0.0000
     20 H6         0.2551    4.6808    8.0488 H         1 RES1    0.0000
     21 H7         1.5939    6.1402    6.7465 H         1 RES1    0.0000
     22 H8         0.2619    1.9964    4.9632 H         1 RES1    0.0000
     23 N1D       -0.9581   -2.3448    5.5283 N.2       1 RES1    0.0000
     24 N2D       -4.1775   -5.7966    8.5691 N.2       1 RES1    0.0000
     25 O1D       -4.7710   -5.3382    9.5468 O.2       1 RES1    0.0000
     26 O2D       -4.2773   -6.9720    8.2061 O.2       1 RES1    0.0000
     27 C1D       -2.9408   -3.6868    8.3399 C.2       1 RES1    0.0000
     28 C2D       -1.7549   -3.2059    6.2962 C.2       1 RES1    0.0000
     29 C3D       -3.3212   -4.9048    7.7909 C.2       1 RES1    0.0000
     30 C4D       -2.9302   -5.3021    6.5228 C.2       1 RES1    0.0000
     31 C5D       -2.1470   -4.4419    5.7668 C.2       1 RES1    0.0000
     32 C6D       -2.1462   -2.8388    7.5910 C.2       1 RES1    0.0000
     33 C7D       -0.5796   -1.0933    5.5852 C.3       1 RES1    0.0000
     34 H1D       -0.0353   -0.7845    4.8365 H         1 RES1    0.0000
     35 O3D       -0.9235   -0.3550    6.4960 O.3       1 RES1    0.0000
     36 H2D       -0.7315   -2.7457    4.6942 H         1 RES1    0.0000
     37 H5D       -3.2132   -3.4568    9.1790 H         1 RES1    0.0000
     38 H6D       -1.8768   -4.6808    4.8831 H         1 RES1    0.0000
     39 H7D       -3.2156   -6.1402    6.1853 H         1 RES1    0.0000
     40 H8D       -1.8837   -1.9964    7.9686 H         1 RES1    0.0000
@<TRIPOS>BOND
     1    1    6 1
     2    2    3 1
     3    4    2 1
     4    5    7 1
     5    6    9 1
     6    7    2 1
     7    8    7 1
     8    9    8 1
     9   10    5 1
    10   11    1 1
    11   12   11 1
    12   13   11 1
    13   14    1 1
    14   19    5 1
    15   20    9 1
    16   21    8 1
    17   22   10 1
    18   23   28 1
    19   24   25 1
    20   26   24 1
    21   27   29 1
    22   28   31 1
    23   29   24 1
    24   30   29 1
    25   31   30 1
    26   32   27 1
    27   33   13 1
    28   34   33 1
    29   35   11 1
    30   36   23 1
    31   37   27 1
    32   38   31 1
    33   39   30 1
    34   40   32 1
    35    6   10 1
    36   13   35 1
    37   23   33 1
    38   28   32 1
    39   33   35 1
@<TRIPOS>SUBSTRUCTURE
     1 RES1 1
     2 SUP2 15

@<TRIPOS>CRYSIN
  10.9859   10.0576   13.0331  90.0000  97.1480  90.0000  15 1

