# MOL2 file generated by ConQuest
# Please check atom types

@<TRIPOS>MOLECULE
HAYLUP
    53    56     1
SMALL
NO_CHARGES
****
Generated from CSD

@<TRIPOS>ATOM
      1 C1        20.0813   10.7064    3.6671 C.3       1 RES1    0.0000
      2 C2        18.8007    9.9417    3.2336 C.3       1 RES1    0.0000
      3 C3        17.5507   10.8202    3.1471 C.3       1 RES1    0.0000
      4 C4        17.1387   11.3853    4.4940 C.3       1 RES1    0.0000
      5 C5        17.0752   10.3301    5.5728 C.3       1 RES1    0.0000
      6 C6        18.2875    9.4199    5.6135 C.3       1 RES1    0.0000
      7 C7        19.5439   10.2062    6.0547 C.3       1 RES1    0.0000
      8 C8        20.6391   10.0955    4.9744 C.3       1 RES1    0.0000
      9 C9        20.8882    8.6354    4.7239 C.2       1 RES1    0.0000
     10 C10       19.8163    7.9601    4.3411 C.2       1 RES1    0.0000
     11 C11       18.5653    8.7867    4.2302 C.3       1 RES1    0.0000
     12 C12       21.1243   10.7117    2.5670 C.2       1 RES1    0.0000
     13 C13       23.4119   11.0982    2.0437 C.3       1 RES1    0.0000
     14 C14       24.4910   11.9449    2.5721 C.3       1 RES1    0.0000
     15 C15       14.7547    9.8391    5.8471 C.2       1 RES1    0.0000
     16 C16       13.6303    8.9316    5.4629 C.ar      1 RES1    0.0000
     17 C17       13.8138    7.8455    4.6167 C.ar      1 RES1    0.0000
     18 C18       12.7149    7.0850    4.2689 C.ar      1 RES1    0.0000
     19 C19       11.4347    7.3609    4.7141 C.ar      1 RES1    0.0000
     20 C20       11.2954    8.4411    5.5545 C.ar      1 RES1    0.0000
     21 C21       12.3561    9.2297    5.9481 C.ar      1 RES1    0.0000
     22 N1        12.9123    5.9620    3.3391 N.pl3     1 RES1    0.0000
     23 N2         9.9396    8.7853    6.0279 N.pl3     1 RES1    0.0000
     24 O1        22.3179   11.0926    3.0071 O.3       1 RES1    0.0000
     25 O2        20.9058   10.4802    1.4181 O.2       1 RES1    0.0000
     26 O3        15.9138    9.4507    5.3140 O.3       1 RES1    0.0000
     27 O4        14.6091   10.7981    6.5558 O.2       1 RES1    0.0000
     28 O5        14.0410    5.6984    2.9849 O.2       1 RES1    0.0000
     29 O6        11.9192    5.3536    2.9610 O.2       1 RES1    0.0000
     30 O7         9.8248    9.7498    6.7654 O.2       1 RES1    0.0000
     31 O8         9.0118    8.0835    5.6511 O.2       1 RES1    0.0000
     32 H1        19.8579   11.6201    3.8347 H         1 RES1    0.0000
     33 H2        18.9424    9.5581    2.3620 H         1 RES1    0.0000
     34 H3        17.7142   11.5289    2.5159 H         1 RES1    0.0000
     35 H4        16.8273   10.2600    2.7978 H         1 RES1    0.0000
     36 H5        17.7852   12.0483    4.7676 H         1 RES1    0.0000
     37 H6        16.2874   11.8342    4.4192 H         1 RES1    0.0000
     38 H7        16.9251   10.7175    6.4442 H         1 RES1    0.0000
     39 H8        18.1006    8.7260    6.2445 H         1 RES1    0.0000
     40 H9        19.8730    9.8452    6.9122 H         1 RES1    0.0000
     41 H10       19.3478   11.1736    6.1956 H         1 RES1    0.0000
     42 H11       21.4289   10.5800    5.2669 H         1 RES1    0.0000
     43 H12       21.7595    8.2528    4.8540 H         1 RES1    0.0000
     44 H13       19.8221    7.0241    4.1530 H         1 RES1    0.0000
     45 H14       17.7838    8.2613    3.9470 H         1 RES1    0.0000
     46 H15       23.0852   11.4121    1.2065 H         1 RES1    0.0000
     47 H16       23.7268   10.1858    1.9740 H         1 RES1    0.0000
     48 H17       25.2401   11.9340    1.9969 H         1 RES1    0.0000
     49 H18       24.7983   11.6055    3.5154 H         1 RES1    0.0000
     50 H19       24.0910   12.8828    2.7770 H         1 RES1    0.0000
     51 H20       14.6657    7.6421    4.2663 H         1 RES1    0.0000
     52 H21       10.6984    6.8417    4.4317 H         1 RES1    0.0000
     53 H22       12.2158    9.9498    6.5139 H         1 RES1    0.0000
@<TRIPOS>BOND
     1    1    2 1
     2    2    3 1
     3    3    4 1
     4    4    5 1
     5    5    6 1
     6    6    7 1
     7    7    8 1
     8    8    1 1
     9    9    8 1
    10   10    9 2
    11   11    2 1
    12   12    1 1
    13   13   14 1
    14   14   48 1
    15   15   16 1
    16   16   17 ar
    17   17   18 ar
    18   18   19 ar
    19   19   20 ar
    20   20   21 ar
    21   21   16 ar
    22   22   18 1
    23   23   20 1
    24   24   12 1
    25   25   12 2
    26   26    5 1
    27   27   15 2
    28   28   22 2
    29   29   22 2
    30   30   23 2
    31   31   23 2
    32   32    1 1
    33   33    2 1
    34   34    3 1
    35   35    3 1
    36   36    4 1
    37   37    4 1
    38   38    5 1
    39   39    6 1
    40   40    7 1
    41   41    7 1
    42   42    8 1
    43   43    9 1
    44   44   10 1
    45   45   11 1
    46   46   13 1
    47   47   13 1
    48   49   14 1
    49   50   14 1
    50   51   17 1
    51   52   19 1
    52   53   21 1
    53    6   11 1
    54   10   11 1
    55   13   24 1
    56   15   26 1
@<TRIPOS>SUBSTRUCTURE
     1 RES1 1

@<TRIPOS>CRYSIN
  32.7160   12.1651   11.0162  90.0000 109.2450  90.0000  15 1

