# MOL2 file generated by ConQuest
# Please check atom types

@<TRIPOS>MOLECULE
HAYZIR
    31    31     1
SMALL
NO_CHARGES
****
Generated from CSD

@<TRIPOS>ATOM
      1 C1         8.7808    1.1357    4.2191 C.ar      1 RES1    0.0000
      2 C2         8.6136    1.6698    5.4764 C.ar      1 RES1    0.0000
      3 H1         8.1395    2.4614    5.5936 H         1 RES1    0.0000
      4 C3         9.1566    1.0208    6.5557 C.ar      1 RES1    0.0000
      5 C4         9.8621   -0.1542    6.4413 C.ar      1 RES1    0.0000
      6 H2        10.2173   -0.5863    7.1848 H         1 RES1    0.0000
      7 C5        10.0132   -0.6590    5.1637 C.ar      1 RES1    0.0000
      8 C6         9.4870   -0.0504    4.0520 C.ar      1 RES1    0.0000
      9 H3         9.5999   -0.4222    3.2068 H         1 RES1    0.0000
     10 C7         8.2409    1.9067    3.0585 C.2       1 RES1    0.0000
     11 C8         7.8503    1.9659    0.7409 C.3       1 RES1    0.0000
     12 H4         8.3718    2.7633    0.5607 H         1 RES1    0.0000
     13 H5         6.9303    2.2304    0.8975 H         1 RES1    0.0000
     14 C9         7.9232    1.0319   -0.4206 C.3       1 RES1    0.0000
     15 H6         7.6608    1.5127   -1.2211 H         1 RES1    0.0000
     16 H7         8.8445    0.7517   -0.5363 H         1 RES1    0.0000
     17 C10        7.0723   -0.1765   -0.2939 C.3       1 RES1    0.0000
     18 H8         6.1589    0.1008   -0.1219 H         1 RES1    0.0000
     19 H9         7.3731   -0.6924    0.4698 H         1 RES1    0.0000
     20 C11        7.0898   -1.0542   -1.5079 C.3       1 RES1    0.0000
     21 H10        6.8415   -0.5394   -2.2782 H         1 RES1    0.0000
     22 H11        6.4666   -1.7754   -1.3895 H         1 RES1    0.0000
     23 H12        7.9726   -1.4107   -1.6333 H         1 RES1    0.0000
     24 N1         9.0338    1.6435    7.8898 N.pl3     1 RES1    0.0000
     25 N2        10.8144   -1.8704    5.0028 N.pl3     1 RES1    0.0000
     26 O1         8.3804    1.2735    1.9110 O.3       1 RES1    0.0000
     27 O2         7.7521    3.0008    3.1855 O.2       1 RES1    0.0000
     28 O3         8.5004    2.7340    7.9572 O.2       1 RES1    0.0000
     29 O4         9.4800    1.0325    8.8416 O.2       1 RES1    0.0000
     30 O5        11.1798   -2.4661    6.0058 O.2       1 RES1    0.0000
     31 O6        11.0753   -2.2421    3.8748 O.2       1 RES1    0.0000
@<TRIPOS>BOND
     1    1    2 ar
     2    2    3 1
     3    4    2 ar
     4    5    4 ar
     5    6    5 1
     6    7    5 ar
     7    8    1 ar
     8    9    8 1
     9   10    1 1
    10   11   12 1
    11   13   11 1
    12   14   11 1
    13   15   14 1
    14   16   14 1
    15   17   14 1
    16   18   17 1
    17   19   17 1
    18   20   17 1
    19   21   20 1
    20   22   20 1
    21   23   20 1
    22   24    4 1
    23   25    7 1
    24   26   10 1
    25   27   10 2
    26   28   24 2
    27   29   24 2
    28   30   25 2
    29   31   25 2
    30    7    8 ar
    31   11   26 1
@<TRIPOS>SUBSTRUCTURE
     1 RES1 1

@<TRIPOS>CRYSIN
   9.6810    5.8632   22.1640  90.0000  90.8260  90.0000 231 1

