# MOL2 file generated by ConQuest
# Please check atom types

@<TRIPOS>MOLECULE
HDNBPP
    32    34     1
SMALL
NO_CHARGES
****
Generated from CSD

@<TRIPOS>ATOM
      1 O1         6.9990    2.6320    3.3152 O.3       1 RES1    0.0000
      2 C1         5.7540    1.9463    3.4983 C.3       1 RES1    0.0000
      3 C2         5.1820    2.1770    4.8757 C.3       1 RES1    0.0000
      4 C3         6.2085    1.7753    5.9306 C.3       1 RES1    0.0000
      5 C4         7.5103    2.5166    5.6925 C.3       1 RES1    0.0000
      6 C5         8.6368    2.1086    6.6364 C.3       1 RES1    0.0000
      7 C6         9.2055    0.7668    6.2554 C.ar      1 RES1    0.0000
      8 C7         9.8964   -0.0135    7.1725 C.ar      1 RES1    0.0000
      9 C8        10.4107   -1.2376    6.7951 C.ar      1 RES1    0.0000
     10 C9        10.2423   -1.7562    5.5301 C.ar      1 RES1    0.0000
     11 C10        9.5585   -0.9736    4.6290 C.ar      1 RES1    0.0000
     12 C11        9.0367    0.2855    4.9538 C.ar      1 RES1    0.0000
     13 O2         8.3532    0.9537    3.9989 O.3       1 RES1    0.0000
     14 C12        7.9623    2.3432    4.2566 C.3       1 RES1    0.0000
     15 N1        11.1627   -2.0163    7.7781 N.pl3     1 RES1    0.0000
     16 O3        11.2242   -1.5940    8.9247 O.2       1 RES1    0.0000
     17 O4        11.6923   -3.0519    7.4203 O.2       1 RES1    0.0000
     18 N2         9.3893   -1.5224    3.2712 N.pl3     1 RES1    0.0000
     19 O5         9.0968   -2.7083    3.1869 O.2       1 RES1    0.0000
     20 O6         9.5655   -0.7946    2.3176 O.2       1 RES1    0.0000
     21 H1         5.0474    2.3035    2.7632 H         1 RES1    0.0000
     22 H2         5.9144    0.8877    3.3591 H         1 RES1    0.0000
     23 H3         4.9367    3.2222    4.9917 H         1 RES1    0.0000
     24 H4         4.2890    1.5813    4.9978 H         1 RES1    0.0000
     25 H5         6.3862    0.7119    5.8720 H         1 RES1    0.0000
     26 H6         5.8289    2.0235    6.9111 H         1 RES1    0.0000
     27 H7         7.2972    3.5554    5.8977 H         1 RES1    0.0000
     28 H8         8.2506    2.0553    7.6438 H         1 RES1    0.0000
     29 H9         9.4202    2.8499    6.5900 H         1 RES1    0.0000
     30 H10       10.0318    0.3388    8.1847 H         1 RES1    0.0000
     31 H11       10.6267   -2.7282    5.2603 H         1 RES1    0.0000
     32 H12        8.7805    3.0408    4.1577 H         1 RES1    0.0000
@<TRIPOS>BOND
     1    1    2 1
     2    2    3 1
     3    3    4 1
     4    4    5 1
     5    5    6 1
     6    6    7 1
     7    7    8 ar
     8    8    9 ar
     9    9   10 ar
    10   10   11 ar
    11   11   12 ar
    12   12    7 ar
    13   13   12 1
    14   14    1 1
    15   15    9 1
    16   16   15 2
    17   17   15 2
    18   18   11 1
    19   19   18 2
    20   20   18 2
    21   21    2 1
    22   22    2 1
    23   23    3 1
    24   24    3 1
    25   25    4 1
    26   26    4 1
    27   27    5 1
    28   28    6 1
    29   29    6 1
    30   30    8 1
    31   31   10 1
    32   32   14 1
    33    5   14 1
    34   13   14 1
@<TRIPOS>SUBSTRUCTURE
     1 RES1 1

@<TRIPOS>CRYSIN
  12.7770    7.9540   12.4480  90.0000 101.2100  90.0000  14 1

