# MOL2 file generated by ConQuest
# Please check atom types

@<TRIPOS>MOLECULE
HEBCHN
    39    41     1
SMALL
NO_CHARGES
****
Generated from CSD

@<TRIPOS>ATOM
      1 C1         0.1787    2.2472   25.3088 C.3       1 RES1    0.0000
      2 C2         0.4890    3.1042   26.4341 C.3       1 RES1    0.0000
      3 C3         0.4158    2.1686   27.6135 C.3       1 RES1    0.0000
      4 C4        -0.7579    1.2704   27.2788 C.3       1 RES1    0.0000
      5 C5        -0.7095    1.1103   25.7595 C.3       1 RES1    0.0000
      6 C6         0.8040    0.7767   25.4518 C.3       1 RES1    0.0000
      7 C7        -0.0469    2.7017   23.9135 C.3       1 RES1    0.0000
      8 C8        -1.1022    3.7134   23.7813 C.3       1 RES1    0.0000
      9 O1         1.1440    3.4215   23.5060 O.3       1 RES1    0.0000
     10 C9         1.8607    2.7893   22.6262 C.2       1 RES1    0.0000
     11 O2         1.7039    1.7280   22.1000 O.2       1 RES1    0.0000
     12 C10        3.2172    3.5496   22.2727 C.ar      1 RES1    0.0000
     13 C11        3.9972    3.0716   21.3362 C.ar      1 RES1    0.0000
     14 C12        5.2035    3.7473   21.0610 C.ar      1 RES1    0.0000
     15 N1         6.0835    3.0758   20.0354 N.pl3     1 RES1    0.0000
     16 O3         5.7308    2.0719   19.5362 O.2       1 RES1    0.0000
     17 O4         7.0464    3.6977   19.7898 O.2       1 RES1    0.0000
     18 C13        5.5456    4.9386   21.6547 C.ar      1 RES1    0.0000
     19 C14        4.7156    5.3828   22.6127 C.ar      1 RES1    0.0000
     20 N2         5.0288    6.5994   23.3387 N.pl3     1 RES1    0.0000
     21 O5         4.2833    7.0328   24.1780 O.2       1 RES1    0.0000
     22 O6         6.1093    7.1603   23.0418 O.2       1 RES1    0.0000
     23 C15        3.4896    4.7905   22.9312 C.ar      1 RES1    0.0000
     24 H1        -0.2146    3.9709   26.5286 H         1 RES1    0.0000
     25 H2         1.5026    3.5237   26.3397 H         1 RES1    0.0000
     26 H3         0.2393    2.7863   28.5796 H         1 RES1    0.0000
     27 H4         1.3723    1.6681   27.7970 H         1 RES1    0.0000
     28 H5        -1.7076    1.6379   27.6621 H         1 RES1    0.0000
     29 H6        -0.5961    0.2659   27.8240 H         1 RES1    0.0000
     30 H7        -1.7271    0.6588   25.5031 H         1 RES1    0.0000
     31 H8         1.5399    0.4835   26.2317 H         1 RES1    0.0000
     32 H9         1.1115    0.1813   24.5585 H         1 RES1    0.0000
     33 H10       -0.3242    1.8072   23.2901 H         1 RES1    0.0000
     34 H11       -2.0923    3.4451   24.2077 H         1 RES1    0.0000
     35 H12       -0.8296    4.6720   24.3696 H         1 RES1    0.0000
     36 H13       -1.2814    4.0857   22.7504 H         1 RES1    0.0000
     37 H14        3.6719    2.2000   20.6993 H         1 RES1    0.0000
     38 H15        6.4352    5.5000   21.3470 H         1 RES1    0.0000
     39 H16        2.7568    5.2764   23.6409 H         1 RES1    0.0000
@<TRIPOS>BOND
     1    1    2 1
     2    2    3 1
     3    3    4 1
     4    4    5 1
     5    5    1 1
     6    6    1 1
     7    7    1 1
     8    8    7 1
     9    9    7 1
    10   10    9 1
    11   11   10 2
    12   12   10 1
    13   13   12 ar
    14   14   13 ar
    15   15   14 1
    16   16   15 2
    17   17   15 2
    18   18   14 ar
    19   19   18 ar
    20   20   19 1
    21   21   20 2
    22   22   20 2
    23   23   12 ar
    24   24    2 1
    25   25    2 1
    26   26    3 1
    27   27    3 1
    28   28    4 1
    29   29    4 1
    30   30    5 1
    31   31    6 1
    32   32    6 1
    33   33    7 1
    34   34    8 1
    35   35    8 1
    36   36    8 1
    37   37   13 1
    38   38   18 1
    39   39   23 1
    40    5    6 1
    41   19   23 ar
@<TRIPOS>SUBSTRUCTURE
     1 RES1 1

@<TRIPOS>CRYSIN
   9.4530    6.0440   27.0800  90.0000  94.7400  90.0000  14 1

