# MOL2 file generated by ConQuest
# Please check atom types

@<TRIPOS>MOLECULE
HEBZOF
    38    40     1
SMALL
USER_CHARGES
****
Generated from CSD

@<TRIPOS>ATOM
      1 C1         5.3914   13.5959    6.3173 C.2       1 RES1    0.0000
      2 C2         6.1026   12.2757    6.3327 C.3       1 RES1    0.0000
      3 H1         7.0105   12.4013    6.0125 H         1 RES1    0.0000
      4 H2         5.6558   11.6692    5.7211 H         1 RES1    0.0000
      5 C3         6.1487   11.6360    7.7293 C.3       1 RES1    0.0000
      6 H3         5.2726   11.7678    8.1480 H         1 RES1    0.0000
      7 C4         7.2013   12.3144    8.6191 C.3       1 RES1    0.0000
      8 H4         8.0942   12.1567    8.2455 H         1 RES1    0.0000
      9 C5         7.1821   11.8989   10.0424 C.2       1 RES1    0.0000
     10 H5         7.3327   11.0322   10.3461 H         1 RES1    0.0000
     11 C6         6.9218   12.9271   10.8110 C.2       1 RES1    0.0000
     12 H6         6.8407   12.9029   11.7366 H         1 RES1    0.0000
     13 C7         6.7796   14.1115    9.9788 C.2       1 RES1    0.0000
     14 C8         6.0240   14.7542    5.5815 C.ar      1 RES1    0.0000
     15 C9         6.4784   15.8841    6.2075 C.ar      1 RES1    0.0000
     16 H7         6.3947   15.9684    7.1300 H         1 RES1    0.0000
     17 C10        7.0574   16.8918    5.4789 C.ar      1 RES1    0.0000
     18 H8         7.3821   17.6561    5.8986 H         1 RES1    0.0000
     19 C11        7.1478   16.7484    4.1161 C.ar      1 RES1    0.0000
     20 H9         7.5369   17.4203    3.6050 H         1 RES1    0.0000
     21 C12        6.6716   15.6288    3.5117 C.ar      1 RES1    0.0000
     22 H10        6.7378   15.5426    2.5881 H         1 RES1    0.0000
     23 C13        6.4198   10.1437    7.6842 C.ar      1 RES1    0.0000
     24 C14        5.6533    9.2638    8.4395 C.ar      1 RES1    0.0000
     25 H11        4.9537    9.5909    8.9587 H         1 RES1    0.0000
     26 C15        5.9219    7.9015    8.4282 C.ar      1 RES1    0.0000
     27 H12        5.3956    7.3225    8.9300 H         1 RES1    0.0000
     28 C16        6.9503    7.4102    7.6852 C.ar      1 RES1    0.0000
     29 H13        7.1294    6.4972    7.6852 H         1 RES1    0.0000
     30 C17        7.7285    8.2630    6.9320 C.ar      1 RES1    0.0000
     31 H14        8.4339    7.9297    6.4261 H         1 RES1    0.0000
     32 C18        7.4499    9.6203    6.9351 C.ar      1 RES1    0.0000
     33 H15        7.9712   10.1910    6.4189 H         1 RES1    0.0000
     34 N1         6.0976   14.6304    4.2392 N.pl3     1 RES1    1.0000
     35 O1         4.3529   13.7780    6.8991 O.2       1 RES1    0.0000
     36 O2         6.9545   13.7326    8.6818 O.3       1 RES1    0.0000
     37 O3         6.5486   15.2508   10.2713 O.2       1 RES1    0.0000
     38 O4         5.5621   13.5966    3.6647 O.2       1 RES1   -1.0000
@<TRIPOS>BOND
     1    1    2 1
     2    2    3 1
     3    4    2 1
     4    5    2 1
     5    6    5 1
     6    7    5 1
     7    8    7 1
     8    9    7 1
     9   10    9 1
    10   11    9 2
    11   12   11 1
    12   13   11 1
    13   14    1 1
    14   15   14 ar
    15   16   15 1
    16   17   15 ar
    17   18   17 1
    18   19   17 ar
    19   20   19 1
    20   21   19 ar
    21   22   21 1
    22   23    5 1
    23   24   23 ar
    24   25   24 1
    25   26   24 ar
    26   27   26 1
    27   28   26 ar
    28   29   28 1
    29   30   28 ar
    30   31   30 1
    31   32   23 ar
    32   33   32 1
    33   34   14 ar
    34   35    1 2
    35   36    7 1
    36   37   13 2
    37   38   34 1
    38   13   36 1
    39   21   34 ar
    40   30   32 ar
@<TRIPOS>SUBSTRUCTURE
     1 RES1 1

@<TRIPOS>CRYSIN
   8.3678   17.5980   10.2620  90.0000  90.0000  90.0000  19 1

