# MOL2 file generated by ConQuest
# Please check atom types

@<TRIPOS>MOLECULE
HECGAX
    26    27     1
SMALL
NO_CHARGES
****
Generated from CSD

@<TRIPOS>ATOM
      1 N1         6.8044    0.7152    2.8953 N.pl3     1 RES1    0.0000
      2 C1         6.9486    0.1591    1.5412 C.3       1 RES1    0.0000
      3 C2         5.6372    0.9449    3.5448 C.2       1 RES1    0.0000
      4 C3         4.3200    0.8869    2.9378 C.ar      1 RES1    0.0000
      5 C4         3.2280    0.4327    3.6837 C.ar      1 RES1    0.0000
      6 C5         1.9577    0.4349    3.1788 C.ar      1 RES1    0.0000
      7 C6         1.7040    0.9032    1.8877 C.ar      1 RES1    0.0000
      8 N2         0.4452    0.8980    1.3645 N.3       1 RES1    0.0000
      9 C7         2.7806    1.3641    1.1258 C.ar      1 RES1    0.0000
     10 C8         4.0559    1.3522    1.6525 C.ar      1 RES1    0.0000
     11 N3         5.8447    1.2497    4.8358 N.2       1 RES1    0.0000
     12 C9         7.1811    1.2236    5.0068 C.2       1 RES1    0.0000
     13 C10        7.7900    0.9040    3.8420 C.2       1 RES1    0.0000
     14 N4         9.1751    0.8557    3.5643 N.pl3     1 RES1    0.0000
     15 O1         9.9573    0.9984    4.4996 O.2       1 RES1    0.0000
     16 O2         9.5421    0.6862    2.4156 O.2       1 RES1    0.0000
     17 H1         7.7143   -0.4906    1.6181 H         1 RES1    0.0000
     18 H2         7.1714    0.8698    0.8951 H         1 RES1    0.0000
     19 H3         6.0757   -0.3345    1.2967 H         1 RES1    0.0000
     20 H4         3.4025    0.1412    4.5903 H         1 RES1    0.0000
     21 H5         1.1715    0.0966    3.6493 H         1 RES1    0.0000
     22 H6        -0.2723    0.6468    1.9164 H         1 RES1    0.0000
     23 H7         0.3161    1.2786    0.5967 H         1 RES1    0.0000
     24 H8         2.5780    1.7470    0.2180 H         1 RES1    0.0000
     25 H9         4.7581    1.7098    1.1361 H         1 RES1    0.0000
     26 H10        7.6393    1.4645    5.8870 H         1 RES1    0.0000
@<TRIPOS>BOND
     1    1    2 1
     2    2   17 1
     3    3    1 1
     4    4    3 1
     5    5    4 ar
     6    6    5 ar
     7    7    6 ar
     8    8    7 1
     9    9    7 ar
    10   10    4 ar
    11   11    3 2
    12   12   11 1
    13   13    1 1
    14   14   13 1
    15   15   14 2
    16   16   14 2
    17   18    2 1
    18   19    2 1
    19   20    5 1
    20   21    6 1
    21   22    8 1
    22   23    8 1
    23   24    9 1
    24   25   10 1
    25   26   12 1
    26    9   10 ar
    27   12   13 2
@<TRIPOS>SUBSTRUCTURE
     1 RES1 1

@<TRIPOS>CRYSIN
  11.8640    7.4340   12.2160  90.0000 110.0500  90.0000  14 1

