# MOL2 file generated by ConQuest
# Please check atom types

@<TRIPOS>MOLECULE
HECLAE
    27    27     1
SMALL
NO_CHARGES
****
Generated from CSD

@<TRIPOS>ATOM
      1 O1        -1.2080   11.0378    7.6827 O.3       1 RES1    0.0000
      2 N1        -1.5089   11.9093    8.8118 N.3       1 RES1    0.0000
      3 C1        -3.0012   12.0043    8.9144 C.3       1 RES1    0.0000
      4 C2        -0.8389   13.1431    8.5416 C.2       1 RES1    0.0000
      5 N2         0.3491   15.0287    8.9099 N.2       1 RES1    0.0000
      6 N3         0.1148   14.8663    7.5925 N.pl3     1 RES1    0.0000
      7 C3        -0.2298   13.9642    9.4777 C.2       1 RES1    0.0000
      8 H1        -0.1891   13.8850   10.4387 H         1 RES1    0.0000
      9 C4         0.6279   15.8142    6.6214 C.3       1 RES1    0.0000
     10 H2         0.8301   16.6728    7.0580 H         1 RES1    0.0000
     11 H3         1.5076   15.4777    6.3072 H         1 RES1    0.0000
     12 H4         0.0349   16.0360    6.0013 H         1 RES1    0.0000
     13 C5        -0.5984   13.7533    7.3384 C.2       1 RES1    0.0000
     14 H5        -0.8074   13.5099    6.4343 H         1 RES1    0.0000
     15 C6        -3.6497   12.5279    7.6438 C.3       1 RES1    0.0000
     16 H6        -4.6084   12.5217    7.7040 H         1 RES1    0.0000
     17 H7        -3.4636   11.9098    6.8685 H         1 RES1    0.0000
     18 H8        -3.3464   13.5050    7.4357 H         1 RES1    0.0000
     19 C7        -3.5176   10.6108    9.2420 C.3       1 RES1    0.0000
     20 H9        -3.3434   10.0505    8.5360 H         1 RES1    0.0000
     21 H10       -4.5649   10.6512    9.3432 H         1 RES1    0.0000
     22 H11       -3.1386   10.2748   10.0998 H         1 RES1    0.0000
     23 C8        -3.3030   12.9303   10.0788 C.3       1 RES1    0.0000
     24 H12       -3.0350   13.8639    9.8798 H         1 RES1    0.0000
     25 H13       -2.8423   12.6002   10.8541 H         1 RES1    0.0000
     26 H14       -4.2793   12.8993   10.2469 H         1 RES1    0.0000
     27 H15       -0.7525   10.2636    8.1288 H         1 RES1    0.0000
@<TRIPOS>BOND
     1    1    2 1
     2    2    3 1
     3    3   15 1
     4    4    2 1
     5    5    6 1
     6    6    9 1
     7    7    4 1
     8    8    7 1
     9    9   10 1
    10   11    9 1
    11   12    9 1
    12   13    4 2
    13   14   13 1
    14   15   16 1
    15   17   15 1
    16   18   15 1
    17   19    3 1
    18   20   19 1
    19   21   19 1
    20   22   19 1
    21   23    3 1
    22   24   23 1
    23   25   23 1
    24   26   23 1
    25   27    1 1
    26    5    7 2
    27    6   13 1
@<TRIPOS>SUBSTRUCTURE
     1 RES1 1

@<TRIPOS>CRYSIN
   6.7677   12.4619   11.9232  90.0000  99.2770  90.0000 231 1

