# MOL2 file generated by ConQuest
# Please check atom types

@<TRIPOS>MOLECULE
HECLEI
    30    30     1
SMALL
NO_CHARGES
****
Generated from CSD

@<TRIPOS>ATOM
      1 O1        -0.6608    0.9734    3.8149 O.3       1 RES1    0.0000
      2 H1        -1.0044    1.5678    3.1075 H         1 RES1    0.0000
      3 N1         0.7102    1.3965    3.9949 N.3       1 RES1    0.0000
      4 C1         0.8525    1.6603    5.3965 C.2       1 RES1    0.0000
      5 N2         0.5405    1.7908    7.5608 N.3       1 RES1    0.0000
      6 C2         0.0597    1.2411    6.4254 C.2       1 RES1    0.0000
      7 H2        -0.6782    0.6659    6.4130 H         1 RES1    0.0000
      8 N3         1.6228    2.5503    7.3269 N.2       1 RES1    0.0000
      9 C3         1.7990    2.4829    6.0068 C.2       1 RES1    0.0000
     10 H3         2.5454    2.9596    5.6092 H         1 RES1    0.0000
     11 C4         1.5740    0.2946    3.4680 C.3       1 RES1    0.0000
     12 C5         0.0324    1.6481    8.9285 C.3       1 RES1    0.0000
     13 H4        -0.1413    2.4706    9.3555 H         1 RES1    0.0000
     14 H5        -0.8249    1.2302    8.9355 H         1 RES1    0.0000
     15 C6         0.9317    0.8489    9.7976 C.3       1 RES1    0.0000
     16 H6         0.9116    0.0102    9.3468 H         1 RES1    0.0000
     17 H7         1.9224    1.3522    9.9230 H         1 RES1    0.0000
     18 H8         0.5301    0.8845   10.6993 H         1 RES1    0.0000
     19 C7         1.2504    0.1362    1.9893 C.3       1 RES1    0.0000
     20 H9         1.3185    1.0370    1.4845 H         1 RES1    0.0000
     21 H10        0.3257   -0.2186    1.9144 H         1 RES1    0.0000
     22 H11        1.8713   -0.5389    1.5867 H         1 RES1    0.0000
     23 C8         1.3530   -1.0234    4.2022 C.3       1 RES1    0.0000
     24 H12        0.3705   -1.3126    4.0983 H         1 RES1    0.0000
     25 H13        1.5443   -0.9557    5.1682 H         1 RES1    0.0000
     26 H14        1.9269   -1.7131    3.8377 H         1 RES1    0.0000
     27 C9         3.0199    0.7442    3.6131 C.3       1 RES1    0.0000
     28 H15        3.2956    0.8500    4.5942 H         1 RES1    0.0000
     29 H16        3.6025    0.1068    3.2021 H         1 RES1    0.0000
     30 H17        3.1525    1.6338    3.1548 H         1 RES1    0.0000
@<TRIPOS>BOND
     1    1    2 1
     2    3    1 1
     3    4    3 1
     4    5    6 1
     5    6    4 2
     6    7    6 1
     7    8    5 1
     8    9    4 1
     9   10    9 1
    10   11    3 1
    11   12    5 1
    12   13   12 1
    13   14   12 1
    14   15   12 1
    15   16   15 1
    16   17   15 1
    17   18   15 1
    18   19   11 1
    19   20   19 1
    20   21   19 1
    21   22   19 1
    22   23   11 1
    23   24   23 1
    24   25   23 1
    25   26   23 1
    26   27   11 1
    27   28   27 1
    28   29   27 1
    29   30   27 1
    30    8    9 2
@<TRIPOS>SUBSTRUCTURE
     1 RES1 1

@<TRIPOS>CRYSIN
   9.7548   10.1670   11.3630  90.0000 104.5980  90.0000 231 1

