# MOL2 file generated by ConQuest
# Please check atom types

@<TRIPOS>MOLECULE
HECTIU
    29    29     1
SMALL
NO_CHARGES
****
Generated from CSD

@<TRIPOS>ATOM
      1 O1         2.6283    0.5443    2.9154 O.2       1 RES1    0.0000
      2 C1         1.4113   -0.4829    4.5071 C.2       1 RES1    0.0000
      3 N1         0.6389   -1.5680    6.3027 N.2       1 RES1    0.0000
      4 N2         2.0075   -1.7282    6.2387 N.am      1 RES1    0.0000
      5 C2         0.2754   -0.8599    5.2949 C.2       1 RES1    0.0000
      6 H1        -0.6038   -0.6238    5.1030 H         1 RES1    0.0000
      7 N3         1.4995    0.2830    3.4126 N.pl3     1 RES1    0.0000
      8 C3         2.7120   -2.4098    7.3092 C.3       1 RES1    0.0000
      9 H2         2.5476   -1.9474    8.1463 H         1 RES1    0.0000
     10 H3         3.6654   -2.3809    7.1345 H         1 RES1    0.0000
     11 C4         2.2763   -3.8369    7.4385 C.3       1 RES1    0.0000
     12 H4         2.7267   -4.2440    8.1823 H         1 RES1    0.0000
     13 H5         2.4948   -4.3126    6.6333 H         1 RES1    0.0000
     14 H6         1.3273   -3.8706    7.5811 H         1 RES1    0.0000
     15 C5         0.2917    0.8888    2.7194 C.3       1 RES1    0.0000
     16 C6        -0.3308    1.9028    3.6579 C.3       1 RES1    0.0000
     17 H7        -1.0838    2.3159    3.2287 H         1 RES1    0.0000
     18 H8         0.3191    2.5748    3.8792 H         1 RES1    0.0000
     19 H9        -0.6209    1.4620    4.4591 H         1 RES1    0.0000
     20 C7         0.7986    1.5945    1.4650 C.3       1 RES1    0.0000
     21 H10        0.0589    1.9943    1.0011 H         1 RES1    0.0000
     22 H11        1.2286    0.9562    0.8905 H         1 RES1    0.0000
     23 H12        1.4278    2.2761    1.7130 H         1 RES1    0.0000
     24 C8        -0.6692   -0.2011    2.3329 C.3       1 RES1    0.0000
     25 H13       -1.4223    0.1831    1.8783 H         1 RES1    0.0000
     26 H14       -0.9698   -0.6575    3.1234 H         1 RES1    0.0000
     27 H15       -0.2280   -0.8249    1.7516 H         1 RES1    0.0000
     28 O2         3.7527   -1.0562    4.9350 O.2       1 RES1    0.0000
     29 C9         2.5720   -1.0658    5.1803 C.2       1 RES1    0.0000
@<TRIPOS>BOND
     1    1    7 1
     2    2    5 1
     3    3    4 1
     4    4    8 1
     5    5    3 2
     6    6    5 1
     7    7    2 2
     8    8    9 1
     9   10    8 1
    10   11    8 1
    11   12   11 1
    12   13   11 1
    13   14   11 1
    14   15    7 1
    15   16   15 1
    16   17   16 1
    17   18   16 1
    18   19   16 1
    19   20   15 1
    20   21   20 1
    21   22   20 1
    22   23   20 1
    23   24   15 1
    24   25   24 1
    25   26   24 1
    26   27   24 1
    27   28   29 2
    28   29    2 1
    29    4   29 1
@<TRIPOS>SUBSTRUCTURE
     1 RES1 1

@<TRIPOS>CRYSIN
   6.6620   12.0430   13.3700  90.0000  94.4000  90.0000  14 1

