# MOL2 file generated by ConQuest
# Please check atom types

@<TRIPOS>MOLECULE
HEDCUR
    47    50     1
SMALL
NO_CHARGES
****
Generated from CSD

@<TRIPOS>ATOM
      1 C1         8.0529    3.8644    5.5433 C.2       1 RES1    0.0000
      2 C2         8.7194    5.1238    5.0470 C.3       1 RES1    0.0000
      3 C3         6.3785    5.3676    5.0510 C.3       1 RES1    0.0000
      4 C4         5.8360    5.9403    6.3994 C.2       1 RES1    0.0000
      5 C5         4.5869    6.5926    6.0869 C.ar      1 RES1    0.0000
      6 C6         3.7081    7.3000    6.9108 C.ar      1 RES1    0.0000
      7 H1         3.8797    7.4099    7.8181 H         1 RES1    0.0000
      8 C7         2.5840    7.8274    6.3321 C.ar      1 RES1    0.0000
      9 C8         2.3466    7.6462    4.9646 C.ar      1 RES1    0.0000
     10 H2         1.5837    8.0213    4.5898 H         1 RES1    0.0000
     11 C9         3.1983    6.9355    4.1547 C.ar      1 RES1    0.0000
     12 H3         3.0162    6.8149    3.2514 H         1 RES1    0.0000
     13 C10        4.3426    6.4042    4.7375 C.ar      1 RES1    0.0000
     14 C11        9.5855    4.8631    3.8292 C.3       1 RES1    0.0000
     15 H4         9.0597    4.4368    3.1479 H         1 RES1    0.0000
     16 H5        10.3160    4.2908    4.0733 H         1 RES1    0.0000
     17 H6         9.9275    5.6961    3.4956 H         1 RES1    0.0000
     18 C12        9.4952    5.8142    6.1623 C.3       1 RES1    0.0000
     19 H7         9.7876    6.6780    5.8618 H         1 RES1    0.0000
     20 H8        10.2576    5.2818    6.3994 H         1 RES1    0.0000
     21 H9         8.9270    5.9188    6.9299 H         1 RES1    0.0000
     22 C13        1.8262    8.7508    8.3838 C.3       1 RES1    0.0000
     23 H10        1.8724    7.9026    8.8319 H         1 RES1    0.0000
     24 H11        1.0997    9.2642    8.7435 H         1 RES1    0.0000
     25 H12        2.6497    9.2258    8.5144 H         1 RES1    0.0000
     26 C14        5.1037    2.2919    5.0138 C.3       1 RES1    0.0000
     27 H13        5.6963    1.5842    4.7174 H         1 RES1    0.0000
     28 H14        4.7699    2.7650    4.2351 H         1 RES1    0.0000
     29 C15        3.9764    1.7322    5.8066 C.ar      1 RES1    0.0000
     30 C16        4.1727    0.6970    6.7068 C.ar      1 RES1    0.0000
     31 H15        5.0180    0.3194    6.7953 H         1 RES1    0.0000
     32 C17        3.1302    0.2190    7.4715 C.ar      1 RES1    0.0000
     33 H16        3.2776   -0.4745    8.0743 H         1 RES1    0.0000
     34 C18        1.8881    0.7558    7.3489 C.ar      1 RES1    0.0000
     35 H17        1.1869    0.4398    7.8734 H         1 RES1    0.0000
     36 C19        1.6727    1.7639    6.4506 C.ar      1 RES1    0.0000
     37 H18        0.8198    2.1208    6.3542 H         1 RES1    0.0000
     38 C20        2.7091    2.2551    5.6860 C.ar      1 RES1    0.0000
     39 H19        2.5515    2.9457    5.0831 H         1 RES1    0.0000
     40 N1         6.7415    3.9701    5.2055 N.am      1 RES1    0.0000
     41 N2         5.3173    5.6112    4.1258 N.pl3     1 RES1    0.0000
     42 H20        5.5342    5.7417    3.3037 H         1 RES1    0.0000
     43 O1         7.5923    5.9584    4.6419 O.3       1 RES1    0.0000
     44 O2         8.5842    2.9222    6.1018 O.2       1 RES1    0.0000
     45 O3         6.4286    5.7987    7.4502 O.2       1 RES1    0.0000
     46 O4         1.6165    8.5411    6.9974 O.3       1 RES1    0.0000
     47 O5         5.8027    3.2060    5.9072 O.3       1 RES1    0.0000
@<TRIPOS>BOND
     1    1    2 1
     2    2   14 1
     3    3    4 1
     4    4    5 1
     5    5    6 ar
     6    6    7 1
     7    8    6 ar
     8    9    8 ar
     9   10    9 1
    10   11    9 ar
    11   12   11 1
    12   13    5 ar
    13   14   15 1
    14   16   14 1
    15   17   14 1
    16   18    2 1
    17   19   18 1
    18   20   18 1
    19   21   18 1
    20   22   23 1
    21   24   22 1
    22   25   22 1
    23   26   27 1
    24   28   26 1
    25   29   26 1
    26   30   29 ar
    27   31   30 1
    28   32   30 ar
    29   33   32 1
    30   34   32 ar
    31   35   34 1
    32   36   34 ar
    33   37   36 1
    34   38   29 ar
    35   39   38 1
    36   40    1 1
    37   41    3 1
    38   42   41 1
    39   43    2 1
    40   44    1 2
    41   45    4 2
    42   46    8 1
    43   47   26 1
    44    3   40 1
    45    3   43 1
    46   11   13 ar
    47   13   41 1
    48   22   46 1
    49   36   38 ar
    50   40   47 1
@<TRIPOS>SUBSTRUCTURE
     1 RES1 1

@<TRIPOS>CRYSIN
  10.2211   18.2509   10.5603  90.0000 107.9250  90.0000 231 1

