# MOL2 file generated by ConQuest
# Please check atom types

@<TRIPOS>MOLECULE
HEDFOO
    29    31     1
SMALL
NO_CHARGES
****
Generated from CSD

@<TRIPOS>ATOM
      1 N1         5.4904    8.1585    1.5237 N.pl3     1 RES1    0.0000
      2 O1         6.1219    8.4611    0.5226 O.2       1 RES1    0.0000
      3 O2         4.5573    8.8306    1.9488 O.2       1 RES1    0.0000
      4 C1         6.8119    5.0868    3.0080 C.ar      1 RES1    0.0000
      5 C2         5.7306    5.3237    3.8625 C.ar      1 RES1    0.0000
      6 C3         8.8220    7.2018    0.8374 C.ar      1 RES1    0.0000
      7 H1         8.7667    7.9285    1.4155 H         1 RES1    0.0000
      8 C4         5.8363    6.9823    2.2558 C.2       1 RES1    0.0000
      9 C5         8.9977    5.0701   -0.8760 C.ar      1 RES1    0.0000
     10 H2         9.0542    4.3508   -1.4633 H         1 RES1    0.0000
     11 C6         6.8636    6.1458    1.9898 C.2       1 RES1    0.0000
     12 C7         7.6609    4.0154    3.2127 C.ar      1 RES1    0.0000
     13 H3         8.3883    3.8690    2.6505 H         1 RES1    0.0000
     14 C8         9.8160    7.1571   -0.1106 C.ar      1 RES1    0.0000
     15 H4        10.4267    7.8559   -0.1712 H         1 RES1    0.0000
     16 C9         7.9005    6.1694    0.9389 C.ar      1 RES1    0.0000
     17 C10        8.0098    5.0942    0.0634 C.ar      1 RES1    0.0000
     18 H5         7.4053    4.3893    0.1187 H         1 RES1    0.0000
     19 C11        5.4898    4.4767    4.9262 C.ar      1 RES1    0.0000
     20 H6         4.7796    4.6329    5.5046 H         1 RES1    0.0000
     21 C12        6.3265    3.3929    5.1156 C.ar      1 RES1    0.0000
     22 H7         6.1631    2.8057    5.8176 H         1 RES1    0.0000
     23 C13        7.4041    3.1678    4.2729 C.ar      1 RES1    0.0000
     24 H8         7.9595    2.4380    4.4237 H         1 RES1    0.0000
     25 C14        5.0192    6.5644    3.4246 C.3       1 RES1    0.0000
     26 H9         4.1038    6.3759    3.1671 H         1 RES1    0.0000
     27 H10        5.0241    7.2402    4.1200 H         1 RES1    0.0000
     28 C15        9.9131    6.0919   -0.9683 C.ar      1 RES1    0.0000
     29 H11       10.5901    6.0609   -1.6051 H         1 RES1    0.0000
@<TRIPOS>BOND
     1    1    2 2
     2    3    1 2
     3    4    5 ar
     4    5   19 ar
     5    6    7 1
     6    8    1 1
     7    9   10 1
     8   11    4 1
     9   12    4 ar
    10   13   12 1
    11   14    6 ar
    12   15   14 1
    13   16    6 ar
    14   17    9 ar
    15   18   17 1
    16   19   20 1
    17   21   19 ar
    18   22   21 1
    19   23   12 ar
    20   24   23 1
    21   25    5 1
    22   26   25 1
    23   27   25 1
    24   28    9 ar
    25   29   28 1
    26    8   11 2
    27    8   25 1
    28   11   16 1
    29   14   28 ar
    30   16   17 ar
    31   21   23 ar
@<TRIPOS>SUBSTRUCTURE
     1 RES1 1

@<TRIPOS>CRYSIN
  12.2869    6.2004   15.4191  90.0000  90.0000  90.0000  29 1

