# MOL2 file generated by ConQuest
# Please check atom types

@<TRIPOS>MOLECULE
HEDGUV
    39    34     2
SMALL
NO_CHARGES
****
Generated from CSD

@<TRIPOS>ATOM
      1 N1         4.5005    7.8067    4.3301 N.pl3     1 RES1    0.0000
      2 O1         4.4798    9.0502    4.9801 O.3       1 RES1    0.0000
      3 C1         4.3989    8.8110    6.3595 C.2       1 RES1    0.0000
      4 C2         4.2607    6.5493    7.6360 C.ar      1 RES1    0.0000
      5 C3         4.2397    5.2106    7.3498 C.ar      1 RES1    0.0000
      6 H1         4.1885    4.6014    8.0509 H         1 RES1    0.0000
      7 C4         4.2921    4.7301    6.0433 C.ar      1 RES1    0.0000
      8 N2         4.3820    5.5277    4.9623 N.ar      1 RES1    0.0000
      9 C5         4.4069    6.8163    5.2689 C.ar      1 RES1    0.0000
     10 C6         4.3532    7.3846    6.5259 C.ar      1 RES1    0.0000
     11 O2         4.3891    9.7424    7.0986 O.2       1 RES1    0.0000
     12 C7         4.1874    7.0678    9.0361 C.3       1 RES1    0.0000
     13 H2         3.4045    6.7156    9.4668 H         1 RES1    0.0000
     14 H3         4.1401    8.0261    9.0208 H         1 RES1    0.0000
     15 H4         4.9693    6.7931    9.5203 H         1 RES1    0.0000
     16 C8         4.2752    3.2641    5.7764 C.3       1 RES1    0.0000
     17 H5         5.0873    2.8704    6.1042 H         1 RES1    0.0000
     18 H6         4.2046    3.1119    4.8314 H         1 RES1    0.0000
     19 H7         3.5240    2.8664    6.2221 H         1 RES1    0.0000
     20 C9         4.4608    7.7817    2.9694 C.2       1 RES1    0.0000
     21 H8         4.4709    6.9485    2.5568 H         1 RES1    0.0000
     22 C10        4.4101    8.8512    2.1832 C.2       1 RES1    0.0000
     23 H9         4.4009    9.6948    2.5743 H         1 RES1    0.0000
     24 C11        4.3687    8.7506    0.7394 C.2       1 RES1    0.0000
     25 O3         4.3002    9.6922   -0.0029 O.2       1 RES1    0.0000
     26 O4         4.4162    7.4924    0.2994 O.3       1 RES1    0.0000
     27 C12        4.3502    7.3035   -1.1242 C.3       1 RES1    0.0000
     28 H10        3.4274    7.3548   -1.4180 H         1 RES1    0.0000
     29 H11        4.8489    8.0063   -1.5705 H         1 RES1    0.0000
     30 C13        4.8868    6.0527   -1.4682 C.3       1 RES1    0.0000
     31 H12        4.8358    5.9334   -2.4193 H         1 RES1    0.0000
     32 H13        4.3870    5.3595   -1.0313 H         1 RES1    0.0000
     33 H14        5.8043    6.0105   -1.1890 H         1 RES1    0.0000
     34 H15        4.9381    7.6410    9.2051 Du        2 SUP2    0.0000
     35 H16        4.2025    6.3304    9.6511 Du        2 SUP2    0.0000
     36 H17        3.3733    7.5634    9.1516 Du        2 SUP2    0.0000
     37 H18        3.4567    3.0287    5.3343 Du        2 SUP2    0.0000
     38 H19        4.3394    2.7872    6.6071 Du        2 SUP2    0.0000
     39 H20        5.0199    3.0327    5.2164 Du        2 SUP2    0.0000
@<TRIPOS>BOND
     1    1    2 1
     2    2    3 1
     3    3   10 1
     4    4    5 ar
     5    5    6 1
     6    7    5 ar
     7    8    7 ar
     8    9    1 1
     9   10    4 ar
    10   11    3 2
    11   12    4 1
    12   13   12 1
    13   14   12 1
    14   15   12 1
    15   16    7 1
    16   17   16 1
    17   18   16 1
    18   19   16 1
    19   20    1 1
    20   21   20 1
    21   22   20 2
    22   23   22 1
    23   24   22 1
    24   25   24 2
    25   26   24 1
    26   27   26 1
    27   28   27 1
    28   29   27 1
    29   30   27 1
    30   31   30 1
    31   32   30 1
    32   33   30 1
    33    8    9 ar
    34    9   10 ar
@<TRIPOS>SUBSTRUCTURE
     1 RES1 1
     2 SUP2 34

@<TRIPOS>CRYSIN
   6.7758    9.5853   11.3689  69.1070  76.0890  74.0280   2 1

