# MOL2 file generated by ConQuest
# Please check atom types

@<TRIPOS>MOLECULE
HEDHIK
    29    31     1
SMALL
NO_CHARGES
****
Generated from CSD

@<TRIPOS>ATOM
      1 N1         1.5065    5.6720   19.9160 N.pl3     1 RES1    0.0000
      2 O1         0.9645    6.5847   18.9638 O.3       1 RES1    0.0000
      3 C1         0.8362    5.9258   17.7435 C.2       1 RES1    0.0000
      4 C2         1.3908    4.5990   17.9252 C.ar      1 RES1    0.0000
      5 C3         1.5791    3.5412   17.0803 C.ar      1 RES1    0.0000
      6 H1         1.3140    3.5791   16.1897 H         1 RES1    0.0000
      7 C4         2.1914    2.3932   17.6142 C.ar      1 RES1    0.0000
      8 C5         2.4529    1.2454   16.8251 C.ar      1 RES1    0.0000
      9 H2         2.2314    1.2470   15.9219 H         1 RES1    0.0000
     10 C6         3.0248    0.1432   17.3758 C.ar      1 RES1    0.0000
     11 H3         3.1988   -0.6020   16.8473 H         1 RES1    0.0000
     12 C7         3.3536    0.1255   18.7421 C.ar      1 RES1    0.0000
     13 H4         3.7277   -0.6414   19.1121 H         1 RES1    0.0000
     14 C8         3.1343    1.2117   19.5340 C.ar      1 RES1    0.0000
     15 H5         3.3650    1.1809   20.4344 H         1 RES1    0.0000
     16 C9         2.5589    2.3842   18.9970 C.ar      1 RES1    0.0000
     17 N2         2.3802    3.4597   19.8332 N.ar      1 RES1    0.0000
     18 C10        1.8121    4.4877   19.2612 C.ar      1 RES1    0.0000
     19 C11        2.0420    6.2215   21.0535 C.2       1 RES1    0.0000
     20 H6         2.4540    5.6469   21.6576 H         1 RES1    0.0000
     21 C12        2.0135    7.5166   21.3549 C.2       1 RES1    0.0000
     22 H7         1.6302    8.0971   20.7375 H         1 RES1    0.0000
     23 C13        2.5448    8.0903   22.5923 C.2       1 RES1    0.0000
     24 O2         2.5345    9.3018   22.7253 O.2       1 RES1    0.0000
     25 C14        3.0670    7.2150   23.6793 C.3       1 RES1    0.0000
     26 H8         3.5303    7.7509   24.3270 H         1 RES1    0.0000
     27 H9         3.6716    6.5688   23.3071 H         1 RES1    0.0000
     28 H10        2.3352    6.7611   24.1038 H         1 RES1    0.0000
     29 O3         0.3255    6.4953   16.8202 O.2       1 RES1    0.0000
@<TRIPOS>BOND
     1    1    2 1
     2    2    3 1
     3    3    4 1
     4    4    5 ar
     5    5    6 1
     6    7    5 ar
     7    8    7 ar
     8    9    8 1
     9   10    8 ar
    10   11   10 1
    11   12   10 ar
    12   13   12 1
    13   14   12 ar
    14   15   14 1
    15   16    7 ar
    16   17   16 ar
    17   18    1 1
    18   19    1 1
    19   20   19 1
    20   21   19 2
    21   22   21 1
    22   23   21 1
    23   24   23 2
    24   25   23 1
    25   26   25 1
    26   27   25 1
    27   28   25 1
    28   29    3 2
    29    4   18 ar
    30   14   16 ar
    31   17   18 ar
@<TRIPOS>SUBSTRUCTURE
     1 RES1 1

@<TRIPOS>CRYSIN
   3.8358    9.6756   31.0045  90.0000  90.1572  90.0000  14 1

