# MOL2 file generated by ConQuest
# Please check atom types

@<TRIPOS>MOLECULE
HEDJEI
    35    30     2
SMALL
NO_CHARGES
****
Generated from CSD

@<TRIPOS>ATOM
      1 N1         1.9919    9.1336    9.2643 N.pl3     1 RES1    0.0000
      2 O1         2.6960    8.2093    8.4608 O.3       1 RES1    0.0000
      3 C1         2.1456    6.9331    8.7040 C.2       1 RES1    0.0000
      4 C2         0.2012    6.2350   10.2846 C.ar      1 RES1    0.0000
      5 C3        -0.6811    6.8271   11.1779 C.ar      1 RES1    0.0000
      6 H1        -1.3236    6.2853   11.6209 H         1 RES1    0.0000
      7 C4        -0.6501    8.2021   11.4431 C.ar      1 RES1    0.0000
      8 N2         0.1997    9.0632   10.8400 N.ar      1 RES1    0.0000
      9 C5         1.0175    8.4679    9.9754 C.ar      1 RES1    0.0000
     10 C6         1.0829    7.1182    9.6616 C.ar      1 RES1    0.0000
     11 O2         2.6037    5.9835    8.1258 O.2       1 RES1    0.0000
     12 C7         0.2180    4.7606   10.0155 C.3       1 RES1    0.0000
     13 H2         0.9140    4.5567    9.3565 H         1 RES1    0.0000
     14 H3         0.4051    4.2787   10.8481 H         1 RES1    0.0000
     15 H4        -0.6544    4.4825    9.6661 H         1 RES1    0.0000
     16 C8        -1.5806    8.7883   12.4625 C.3       1 RES1    0.0000
     17 H5        -1.1070    8.8949   13.3139 H         1 RES1    0.0000
     18 H6        -2.3468    8.1904   12.5874 H         1 RES1    0.0000
     19 H7        -1.8957    9.6629   12.1523 H         1 RES1    0.0000
     20 C9         2.2817   10.4508    9.1165 C.2       1 RES1    0.0000
     21 H8         1.7450   11.0704    9.5967 H         1 RES1    0.0000
     22 C10        3.2601   10.9519    8.3516 C.2       1 RES1    0.0000
     23 H9         3.8287   10.3692    7.8621 H         1 RES1    0.0000
     24 C11        3.4493   12.4003    8.2731 C.2       1 RES1    0.0000
     25 O3         2.7216   13.1961    8.8535 O.2       1 RES1    0.0000
     26 C12        4.5933   12.8855    7.4265 C.3       1 RES1    0.0000
     27 H10        5.0637   12.1168    7.0416 H         1 RES1    0.0000
     28 H11        4.2484   13.4521    6.7050 H         1 RES1    0.0000
     29 H12        5.2132   13.4037    7.9809 H         1 RES1    0.0000
     30 H13       -0.4708    4.3219   10.5573 Du        2 SUP2    0.0000
     31 H14        0.0380    4.5998    9.0657 Du        2 SUP2    0.0000
     32 H15        1.0975    4.3961   10.2476 Du        2 SUP2    0.0000
     33 H16        4.6198   13.8650    7.4434 Du        2 SUP2    0.0000
     34 H17        5.4351   12.5296    7.7800 Du        2 SUP2    0.0000
     35 H18        4.4703   12.5780    6.5041 Du        2 SUP2    0.0000
@<TRIPOS>BOND
     1    1    2 1
     2    2    3 1
     3    3   10 1
     4    4    5 ar
     5    5    6 1
     6    7    5 ar
     7    8    7 ar
     8    9    1 1
     9   10    4 ar
    10   11    3 2
    11   12    4 1
    12   13   12 1
    13   14   12 1
    14   15   12 1
    15   16    7 1
    16   17   16 1
    17   18   16 1
    18   19   16 1
    19   20    1 1
    20   21   20 1
    21   22   20 2
    22   23   22 1
    23   24   22 1
    24   25   24 2
    25   26   24 1
    26   27   26 1
    27   28   26 1
    28   29   26 1
    29    8    9 ar
    30    9   10 ar
@<TRIPOS>SUBSTRUCTURE
     1 RES1 1
     2 SUP2 30

@<TRIPOS>CRYSIN
   4.9863   15.4076   14.7032  90.0000  97.3610  90.0000 231 1

