# MOL2 file generated by ConQuest
# Please check atom types

@<TRIPOS>MOLECULE
HEDMOT
    29    29     1
SMALL
NO_CHARGES
****
Generated from CSD

@<TRIPOS>ATOM
      1 O1        -1.9438    2.0734    6.7782 O.2       1 RES1    0.0000
      2 O2        -1.0619    1.8511    8.7213 O.2       1 RES1    0.0000
      3 O3         2.0744    4.1816   10.7866 O.2       1 RES1    0.0000
      4 N1        -1.0471    2.2896    7.5745 N.pl3     1 RES1    0.0000
      5 C1         3.5759    2.3683   10.8792 C.3       1 RES1    0.0000
      6 H1         3.7955    2.7317   11.7404 H         1 RES1    0.0000
      7 H2         4.3503    2.4003   10.3126 H         1 RES1    0.0000
      8 H3         3.2896    1.4579   10.9800 H         1 RES1    0.0000
      9 C2         2.4860    3.1635   10.2715 C.2       1 RES1    0.0000
     10 C3         1.9040    2.6435    8.9827 C.3       1 RES1    0.0000
     11 H4         1.4587    1.7990    9.1549 H         1 RES1    0.0000
     12 H5         2.6247    2.4763    8.3554 H         1 RES1    0.0000
     13 C4         0.9097    3.6090    8.3495 C.3       1 RES1    0.0000
     14 H6         0.2818    3.8879    9.0345 H         1 RES1    0.0000
     15 H7         1.3953    4.3984    8.0657 H         1 RES1    0.0000
     16 C5         0.1311    3.0988    7.1869 C.2       1 RES1    0.0000
     17 C6         0.2927    3.2932    5.8815 C.2       1 RES1    0.0000
     18 H8        -0.3784    2.9444    5.3403 H         1 RES1    0.0000
     19 C7         1.3750    3.9769    5.1788 C.ar      1 RES1    0.0000
     20 C8         2.6646    4.1395    5.6857 C.ar      1 RES1    0.0000
     21 H9         2.8714    3.8115    6.5313 H         1 RES1    0.0000
     22 C9         3.6334    4.7782    4.9479 C.ar      1 RES1    0.0000
     23 H10        4.4894    4.8774    5.2982 H         1 RES1    0.0000
     24 C10        3.3457    5.2714    3.6972 C.ar      1 RES1    0.0000
     25 H11        3.9978    5.7217    3.2108 H         1 RES1    0.0000
     26 C11        2.0940    5.0977    3.1717 C.ar      1 RES1    0.0000
     27 H12        1.8996    5.4175    2.3203 H         1 RES1    0.0000
     28 C12        1.1246    4.4517    3.9007 C.ar      1 RES1    0.0000
     29 H13        0.2808    4.3310    3.5279 H         1 RES1    0.0000
@<TRIPOS>BOND
     1    1    4 2
     2    2    4 2
     3    3    9 2
     4    4   16 1
     5    5    6 1
     6    7    5 1
     7    8    5 1
     8    9    5 1
     9   10    9 1
    10   11   10 1
    11   12   10 1
    12   13   10 1
    13   14   13 1
    14   15   13 1
    15   16   13 1
    16   17   16 2
    17   18   17 1
    18   19   17 1
    19   20   19 ar
    20   21   20 1
    21   22   20 ar
    22   23   22 1
    23   24   22 ar
    24   25   24 1
    25   26   24 ar
    26   27   26 1
    27   28   19 ar
    28   29   28 1
    29   26   28 ar
@<TRIPOS>SUBSTRUCTURE
     1 RES1 1

@<TRIPOS>CRYSIN
   7.2530    7.9810   10.7050 106.1980 104.8830  97.1930   2 1

