# MOL2 file generated by ConQuest
# Please check atom types

@<TRIPOS>MOLECULE
HEFFOQ
    36    37     1
SMALL
NO_CHARGES
****
Generated from CSD

@<TRIPOS>ATOM
      1 C1        -3.0076   -0.8766   10.5928 C.ar      1 RES1    0.0000
      2 C2        -2.9784   -1.5917   11.7750 C.ar      1 RES1    0.0000
      3 H1        -3.4379   -2.4194   11.8565 H         1 RES1    0.0000
      4 C3        -2.2651   -1.0724   12.8308 C.ar      1 RES1    0.0000
      5 H2        -2.2240   -1.5531   13.6492 H         1 RES1    0.0000
      6 C4        -1.6053    0.1428   12.7197 C.ar      1 RES1    0.0000
      7 C5        -1.6312    0.8270   11.4948 C.ar      1 RES1    0.0000
      8 H3        -1.1565    1.6445   11.3991 H         1 RES1    0.0000
      9 C6        -2.3425    0.3181   10.4302 C.ar      1 RES1    0.0000
     10 H4        -2.3734    0.7816    9.6014 H         1 RES1    0.0000
     11 C7        -0.9194    0.7217   13.8414 C.1       1 RES1    0.0000
     12 C8        -0.3656    1.2300   14.7726 C.1       1 RES1    0.0000
     13 C9         0.3369    1.8084   15.8671 C.2       1 RES1    0.0000
     14 H5         0.7824    1.2289   16.4738 H         1 RES1    0.0000
     15 C10        0.4014    3.1228   16.0833 C.2       1 RES1    0.0000
     16 H6        -0.0748    3.6869   15.4852 H         1 RES1    0.0000
     17 C11        1.1256    3.7524   17.1385 C.1       1 RES1    0.0000
     18 C12        1.7341    4.3534   17.9791 C.1       1 RES1    0.0000
     19 C13        2.4886    5.1109   18.9441 C.ar      1 RES1    0.0000
     20 C14        2.6706    4.6649   20.2503 C.ar      1 RES1    0.0000
     21 H7         2.2871    3.8383   20.5186 H         1 RES1    0.0000
     22 C15        3.4015    5.4059   21.1664 C.ar      1 RES1    0.0000
     23 H8         3.5103    5.0923   22.0567 H         1 RES1    0.0000
     24 C16        3.9721    6.6062   20.7747 C.ar      1 RES1    0.0000
     25 C17        3.8029    7.0649   19.4714 C.ar      1 RES1    0.0000
     26 H9         4.1999    7.8849   19.2020 H         1 RES1    0.0000
     27 C18        3.0605    6.3316   18.5710 C.ar      1 RES1    0.0000
     28 H10        2.9359    6.6587   17.6878 H         1 RES1    0.0000
     29 C19        4.8387    7.0279   22.9587 C.3       1 RES1    0.0000
     30 H11        3.9447    6.9918   23.3589 H         1 RES1    0.0000
     31 H12        5.3851    7.6846   23.4386 H         1 RES1    0.0000
     32 H13        5.2597    6.1451   23.0199 H         1 RES1    0.0000
     33 O1        -4.3428   -2.4987    9.5922 O.2       1 RES1    0.0000
     34 O2        -3.9009   -0.7079    8.4618 O.2       1 RES1    0.0000
     35 O3         4.7304    7.4106   21.5838 O.3       1 RES1    0.0000
     36 N1        -3.8019   -1.3971    9.4720 N.pl3     1 RES1    0.0000
@<TRIPOS>BOND
     1    1    2 ar
     2    2    3 1
     3    4    2 ar
     4    5    4 1
     5    6    4 ar
     6    7    6 ar
     7    8    7 1
     8    9    1 ar
     9   10    9 1
    10   11    6 1
    11   12   11 3
    12   13   12 1
    13   14   13 1
    14   15   13 2
    15   16   15 1
    16   17   15 1
    17   18   17 3
    18   19   18 1
    19   20   19 ar
    20   21   20 1
    21   22   20 ar
    22   23   22 1
    23   24   22 ar
    24   25   24 ar
    25   26   25 1
    26   27   19 ar
    27   28   27 1
    28   29   30 1
    29   31   29 1
    30   32   29 1
    31   33   36 2
    32   34   36 2
    33   35   24 1
    34   36    1 1
    35    7    9 ar
    36   25   27 ar
    37   29   35 1
@<TRIPOS>SUBSTRUCTURE
     1 RES1 1

@<TRIPOS>CRYSIN
   8.3768    5.5134   32.2760  90.0000  95.4040  90.0000 231 1

