# MOL2 file generated by ConQuest
# Please check atom types

@<TRIPOS>MOLECULE
HEFWAR
    37    40     1
SMALL
NO_CHARGES
****
Generated from CSD

@<TRIPOS>ATOM
      1 C1         3.6121    3.6927    4.7701 C.2       1 RES1    0.0000
      2 C2         4.2693    3.7124    6.0444 C.2       1 RES1    0.0000
      3 H1         4.4849    2.9174    6.4770 H         1 RES1    0.0000
      4 C3         4.5783    4.9192    6.6163 C.2       1 RES1    0.0000
      5 H2         5.0199    4.9193    7.4355 H         1 RES1    0.0000
      6 C4         1.2499    4.9192    2.9980 C.3       1 RES1    0.0000
      7 C5         0.6742    6.1110    3.6284 C.3       1 RES1    0.0000
      8 H3         1.0614    6.9060    3.2295 H         1 RES1    0.0000
      9 H4         0.8933    6.1136    4.5735 H         1 RES1    0.0000
     10 C6        -0.8525    6.1471    3.4576 C.3       1 RES1    0.0000
     11 H5        -1.2193    6.9479    3.8869 H         1 RES1    0.0000
     12 C7        -1.4095    4.9192    4.1038 C.3       1 RES1    0.0000
     13 H6        -2.3758    4.9192    4.0217 H         1 RES1    0.0000
     14 H7        -1.1870    4.9192    5.0477 H         1 RES1    0.0000
     15 C8         0.9629    4.9192    1.4855 C.3       1 RES1    0.0000
     16 H8         1.1038    5.8769    1.6631 H         1 RES1    0.0000
     17 C9        -1.1446    6.1786    1.9575 C.3       1 RES1    0.0000
     18 H9        -2.0837    5.9425    1.8878 H         1 RES1    0.0000
     19 H10       -0.7302    6.9132    1.4720 H         1 RES1    0.0000
     20 C10       -0.5961    4.9192    1.3147 C.3       1 RES1    0.0000
     21 H11       -0.8185    4.9192    0.3607 H         1 RES1    0.0000
     22 N1         3.2809    4.9192    4.2701 N.2       1 RES1    0.0000
     23 O1         2.7171    4.9192    3.0014 O.3       1 RES1    0.0000
     24 O2         3.3268    2.4203    3.9835 O.2       1 RES1    0.0000
     25 C1G        3.6121    6.1458    4.7701 C.2       1 RES1    0.0000
     26 C2G        4.2693    6.1261    6.0444 C.2       1 RES1    0.0000
     27 H1G        4.4849    6.9211    6.4770 H         1 RES1    0.0000
     28 C5G        0.6742    3.7275    3.6284 C.3       1 RES1    0.0000
     29 H3G        1.0614    2.9325    3.2295 H         1 RES1    0.0000
     30 H4G        0.8933    3.7249    4.5735 H         1 RES1    0.0000
     31 C6G       -0.8525    3.6914    3.4576 C.3       1 RES1    0.0000
     32 H5G       -1.2193    2.8906    3.8869 H         1 RES1    0.0000
     33 H8G        1.1038    3.9616    1.6631 H         1 RES1    0.0000
     34 C9G       -1.1446    3.6599    1.9575 C.3       1 RES1    0.0000
     35 H9G       -2.0837    3.8960    1.8878 H         1 RES1    0.0000
     36 H10G      -0.7302    2.9253    1.4720 H         1 RES1    0.0000
     37 O2G        3.3268    7.4182    3.9835 O.2       1 RES1    0.0000
@<TRIPOS>BOND
     1    1    2 1
     2    2    3 1
     3    4    2 1
     4    5    4 1
     5    6    7 1
     6    7    8 1
     7    9    7 1
     8   10    7 1
     9   11   10 1
    10   12   10 1
    11   13   12 1
    12   14   12 1
    13   15    6 1
    14   16   15 1
    15   17   10 1
    16   18   17 1
    17   19   17 1
    18   20   15 1
    19   21   20 1
    20   22    1 1
    21   23    6 1
    22   24    1 1
    23   25   22 1
    24   26    4 1
    25   27   26 1
    26   28    6 1
    27   29   28 1
    28   30   28 1
    29   31   12 1
    30   32   31 1
    31   33   15 1
    32   34   20 1
    33   35   34 1
    34   36   34 1
    35   37   25 1
    36   17   20 1
    37   22   23 1
    38   25   26 1
    39   28   31 1
    40   31   34 1
@<TRIPOS>SUBSTRUCTURE
     1 RES1 1

@<TRIPOS>CRYSIN
  16.9820    6.5590   11.2370  90.0000  90.0000  90.0000  62 1

