# MOL2 file generated by ConQuest
# Please check atom types

@<TRIPOS>MOLECULE
HEGROA
    44    47     1
SMALL
NO_CHARGES
****
Generated from CSD

@<TRIPOS>ATOM
      1 O1         2.7706    6.4833    3.3003 O.2       1 RES1    0.0000
      2 N1         3.3541    7.5695    3.0291 N.3       1 RES1    0.0000
      3 C1         4.1934    7.7330    1.8046 C.3       1 RES1    0.0000
      4 C2         3.3761    8.7291    3.9757 C.3       1 RES1    0.0000
      5 C3         4.3594   11.0662    3.4231 C.ar      1 RES1    0.0000
      6 C4         5.0047   11.8537    2.4913 C.ar      1 RES1    0.0000
      7 C5         5.3918   11.3215    1.2665 C.ar      1 RES1    0.0000
      8 C6         5.1604    9.9930    0.9772 C.ar      1 RES1    0.0000
      9 C7         4.5263    9.1950    1.9167 C.ar      1 RES1    0.0000
     10 C8         4.1082    9.7376    3.1234 C.ar      1 RES1    0.0000
     11 C9         3.3410    7.4130    0.5769 C.3       1 RES1    0.0000
     12 C10        4.1709    8.3387    5.2214 C.3       1 RES1    0.0000
     13 C11        5.4182    6.8162    1.9272 C.ar      1 RES1    0.0000
     14 C12        5.3011    5.4595    1.6879 C.ar      1 RES1    0.0000
     15 C13        6.3987    4.6246    1.8468 C.ar      1 RES1    0.0000
     16 C14        7.6091    5.1205    2.2411 C.ar      1 RES1    0.0000
     17 C15        7.7381    6.4596    2.4845 C.ar      1 RES1    0.0000
     18 C16        6.6520    7.3064    2.3279 C.ar      1 RES1    0.0000
     19 C17        1.9343    9.1316    4.2846 C.ar      1 RES1    0.0000
     20 C18        1.2350    8.5605    5.3281 C.ar      1 RES1    0.0000
     21 C19       -0.0893    8.8974    5.5674 C.ar      1 RES1    0.0000
     22 C20       -0.7190    9.8181    4.7854 C.ar      1 RES1    0.0000
     23 C21       -0.0439   10.3942    3.7555 C.ar      1 RES1    0.0000
     24 C22        1.2721   10.0521    3.4918 C.ar      1 RES1    0.0000
     25 H1         4.0678   11.4208    4.2907 H         1 RES1    0.0000
     26 H2         5.1397   12.8027    2.6907 H         1 RES1    0.0000
     27 H3         5.8201   11.9060    0.6163 H         1 RES1    0.0000
     28 H4         5.4022    9.6056    0.1273 H         1 RES1    0.0000
     29 H5         3.8912    7.6152   -0.2716 H         1 RES1    0.0000
     30 H6         2.9881    6.4705    0.6163 H         1 RES1    0.0000
     31 H7         2.5404    8.0100    0.5408 H         1 RES1    0.0000
     32 H8         5.1106    8.1046    4.9758 H         1 RES1    0.0000
     33 H9         3.7595    7.5762    5.6947 H         1 RES1    0.0000
     34 H10        4.2008    9.1552    5.8355 H         1 RES1    0.0000
     35 H11        4.4457    5.0887    1.3780 H         1 RES1    0.0000
     36 H12        6.2530    3.6650    1.6834 H         1 RES1    0.0000
     37 H13        8.3794    4.5236    2.3076 H         1 RES1    0.0000
     38 H14        8.5914    6.8615    2.7313 H         1 RES1    0.0000
     39 H15        6.7631    8.2717    2.4969 H         1 RES1    0.0000
     40 H16        1.6763    7.9221    5.9336 H         1 RES1    0.0000
     41 H17       -0.5818    8.5004    6.2930 H         1 RES1    0.0000
     42 H18       -1.6516   10.0502    4.9454 H         1 RES1    0.0000
     43 H19       -0.4450   11.0147    3.2113 H         1 RES1    0.0000
     44 H20        1.7421   10.4979    2.7595 H         1 RES1    0.0000
@<TRIPOS>BOND
     1    1    2 1
     2    2    3 1
     3    3    9 1
     4    4    2 1
     5    5    6 ar
     6    6    7 ar
     7    7    8 ar
     8    8    9 ar
     9    9   10 ar
    10   10    4 1
    11   11    3 1
    12   12    4 1
    13   13    3 1
    14   14   13 ar
    15   15   14 ar
    16   16   15 ar
    17   17   16 ar
    18   18   13 ar
    19   19    4 1
    20   20   19 ar
    21   21   20 ar
    22   22   21 ar
    23   23   22 ar
    24   24   19 ar
    25   25    5 1
    26   26    6 1
    27   27    7 1
    28   28    8 1
    29   29   11 1
    30   30   11 1
    31   31   11 1
    32   32   12 1
    33   33   12 1
    34   34   12 1
    35   35   14 1
    36   36   15 1
    37   37   16 1
    38   38   17 1
    39   39   18 1
    40   40   20 1
    41   41   21 1
    42   42   22 1
    43   43   23 1
    44   44   24 1
    45    5   10 ar
    46   17   18 ar
    47   23   24 ar
@<TRIPOS>SUBSTRUCTURE
     1 RES1 1

@<TRIPOS>CRYSIN
   8.3946    9.4853   12.0180  69.7120  86.2490  74.6650   2 1

