# MOL2 file generated by ConQuest
# Please check atom types

@<TRIPOS>MOLECULE
HEGSUK
    12    12     1
SMALL
USER_CHARGES
****
Generated from CSD

@<TRIPOS>ATOM
      1 C1         1.1781    2.4530    6.7869 C.ar      1 RES1    0.0000
      2 H1         1.3988    3.1793    7.3576 H         1 RES1    0.0000
      3 C2         0.3825    1.4473    7.2627 C.ar      1 RES1    0.0000
      4 H2         0.0596    1.4718    8.1558 H         1 RES1    0.0000
      5 C3         0.0530    0.3917    6.4254 C.ar      1 RES1    0.0000
      6 H3        -0.4950   -0.3178    6.7385 H         1 RES1    0.0000
      7 N1         1.3196    1.3762    4.6678 N.pl3     1 RES1    1.0000
      8 O1         1.8034    1.4142    3.5049 O.2       1 RES1   -1.0000
      9 N2         1.6578    2.4383    5.5226 N.pl3     1 RES1    1.0000
     10 O2         2.4216    3.3266    5.0397 O.2       1 RES1   -1.0000
     11 C4         0.5312    0.3863    5.1323 C.ar      1 RES1    0.0000
     12 H4         0.3000   -0.3320    4.5552 H         1 RES1    0.0000
@<TRIPOS>BOND
     1    1    2 1
     2    3    1 ar
     3    4    3 1
     4    5    3 ar
     5    6    5 1
     6    7    8 1
     7    9    1 ar
     8   10    9 1
     9   11    5 ar
    10   12   11 1
    11    7    9 ar
    12    7   11 ar
@<TRIPOS>SUBSTRUCTURE
     1 RES1 1

