# MOL2 file generated by ConQuest
# Please check atom types

@<TRIPOS>MOLECULE
HEGVAQ
    44    47     1
SMALL
NO_CHARGES
****
Generated from CSD

@<TRIPOS>ATOM
      1 O1        -0.9137    1.5803    3.8392 O.2       1 RES1    0.0000
      2 C1         0.8080    1.6876    2.1615 C.3       1 RES1    0.0000
      3 N1         0.0171    0.9919    3.2099 N.3       1 RES1    0.0000
      4 C2         0.2156   -0.4924    3.2756 C.3       1 RES1    0.0000
      5 C3         2.0543   -1.7990    2.0080 C.ar      1 RES1    0.0000
      6 H1         1.8362   -2.6019    2.4231 H         1 RES1    0.0000
      7 C4         3.0688   -1.7468    1.0757 C.ar      1 RES1    0.0000
      8 H2         3.5344   -2.5215    0.8565 H         1 RES1    0.0000
      9 C5         3.3934   -0.5559    0.4697 C.ar      1 RES1    0.0000
     10 H3         4.0840   -0.5319   -0.1525 H         1 RES1    0.0000
     11 C6         2.7152    0.5983    0.7676 C.ar      1 RES1    0.0000
     12 H4         2.9356    1.3983    0.3475 H         1 RES1    0.0000
     13 C7         1.6967    0.5531    1.7060 C.ar      1 RES1    0.0000
     14 C8         1.3661   -0.6420    2.3170 C.ar      1 RES1    0.0000
     15 C9        -0.1468    2.1334    1.0525 C.3       1 RES1    0.0000
     16 H5        -0.6957    2.8530    1.3737 H         1 RES1    0.0000
     17 H6        -0.7057    1.3955    0.7959 H         1 RES1    0.0000
     18 H7         0.3589    2.4297    0.2939 H         1 RES1    0.0000
     19 C10       -1.0550   -1.1669    2.7261 C.3       1 RES1    0.0000
     20 H8        -1.7733   -1.0568    3.3554 H         1 RES1    0.0000
     21 H9        -0.8895   -2.1024    2.5918 H         1 RES1    0.0000
     22 H10       -1.2979   -0.7605    1.8908 H         1 RES1    0.0000
     23 C11        1.6087    2.8234    2.7615 C.ar      1 RES1    0.0000
     24 C12        1.9810    3.9141    2.0261 C.ar      1 RES1    0.0000
     25 H11        1.6912    3.9931    1.1454 H         1 RES1    0.0000
     26 C13        2.7828    4.9046    2.5695 C.ar      1 RES1    0.0000
     27 H12        3.0326    5.6355    2.0524 H         1 RES1    0.0000
     28 C14        3.2066    4.8073    3.8634 C.ar      1 RES1    0.0000
     29 H13        3.7482    5.4690    4.2280 H         1 RES1    0.0000
     30 C15        2.8317    3.7349    4.6179 C.ar      1 RES1    0.0000
     31 H14        3.1098    3.6686    5.5027 H         1 RES1    0.0000
     32 C16        2.0432    2.7529    4.0695 C.ar      1 RES1    0.0000
     33 H15        1.7960    2.0248    4.5917 H         1 RES1    0.0000
     34 C17        0.5236   -0.8960    4.7108 C.ar      1 RES1    0.0000
     35 C18        1.8245   -0.9256    5.1775 C.ar      1 RES1    0.0000
     36 H16        2.5255   -0.7253    4.5997 H         1 RES1    0.0000
     37 C19        2.0943   -1.2487    6.4966 C.ar      1 RES1    0.0000
     38 H17        2.9726   -1.2727    6.8016 H         1 RES1    0.0000
     39 C20        1.0537   -1.5338    7.3541 C.ar      1 RES1    0.0000
     40 H18        1.2307   -1.7553    8.2399 H         1 RES1    0.0000
     41 C21       -0.2320   -1.4928    6.9107 C.ar      1 RES1    0.0000
     42 H19       -0.9329   -1.6763    7.4935 H         1 RES1    0.0000
     43 C22       -0.4917   -1.1782    5.6017 C.ar      1 RES1    0.0000
     44 H20       -1.3733   -1.1556    5.3068 H         1 RES1    0.0000
@<TRIPOS>BOND
     1    1    3 1
     2    2    3 1
     3    3    4 1
     4    4   14 1
     5    5    6 1
     6    7    5 ar
     7    8    7 1
     8    9    7 ar
     9   10    9 1
    10   11    9 ar
    11   12   11 1
    12   13    2 1
    13   14    5 ar
    14   15    2 1
    15   16   15 1
    16   17   15 1
    17   18   15 1
    18   19    4 1
    19   20   19 1
    20   21   19 1
    21   22   19 1
    22   23    2 1
    23   24   23 ar
    24   25   24 1
    25   26   24 ar
    26   27   26 1
    27   28   26 ar
    28   29   28 1
    29   30   28 ar
    30   31   30 1
    31   32   23 ar
    32   33   32 1
    33   34    4 1
    34   35   34 ar
    35   36   35 1
    36   37   35 ar
    37   38   37 1
    38   39   37 ar
    39   40   39 1
    40   41   39 ar
    41   42   41 1
    42   43   34 ar
    43   44   43 1
    44   11   13 ar
    45   13   14 ar
    46   30   32 ar
    47   41   43 ar
@<TRIPOS>SUBSTRUCTURE
     1 RES1 1

@<TRIPOS>CRYSIN
  12.2810   14.1100   11.0950  90.0000 114.4450  90.0000  14 1

