# MOL2 file generated by ConQuest
# Please check atom types

@<TRIPOS>MOLECULE
HEHRIX
    51    53     1
SMALL
NO_CHARGES
****
Generated from CSD

@<TRIPOS>ATOM
      1 N1         0.0026    0.0322    7.2490 N.pl3     1 RES1    0.0000
      2 H1         0.6407   -0.0559    6.8303 H         1 RES1    0.0000
      3 N2        -1.1250    0.4413    6.5242 N.3       1 RES1    0.0000
      4 C1        -0.9705    1.7665    5.9366 C.3       1 RES1    0.0000
      5 H2        -0.1062    1.8595    5.4625 H         1 RES1    0.0000
      6 H3        -1.0525    2.4812    6.6162 H         1 RES1    0.0000
      7 C2        -1.5485   -0.5238    5.4625 C.3       1 RES1    0.0000
      8 C3        -2.6627   -1.3840    6.0184 C.3       1 RES1    0.0000
      9 H4        -3.4191   -0.8154    6.2688 H         1 RES1    0.0000
     10 H5        -2.3402   -1.8658    6.8085 H         1 RES1    0.0000
     11 H6        -2.9488   -2.0274    5.3380 H         1 RES1    0.0000
     12 C4        -0.0126    0.0587    8.5827 C.ar      1 RES1    0.0000
     13 C5         1.1182   -0.2280    9.3962 C.ar      1 RES1    0.0000
     14 C6         1.0363   -0.2245   10.7843 C.ar      1 RES1    0.0000
     15 H7         1.7974   -0.4455   11.3074 H         1 RES1    0.0000
     16 C7        -0.1320    0.0937   11.3839 C.ar      1 RES1    0.0000
     17 C8        -1.2550    0.4077   10.6285 C.ar      1 RES1    0.0000
     18 H8        -2.0681    0.6385   11.0648 H         1 RES1    0.0000
     19 C9        -1.1995    0.3874    9.2764 C.ar      1 RES1    0.0000
     20 H9        -1.9801    0.6007    8.7793 H         1 RES1    0.0000
     21 N3         2.3975   -0.5539    8.8241 N.pl3     1 RES1    0.0000
     22 O1         2.5312   -0.5595    7.6051 O.2       1 RES1    0.0000
     23 O2         3.3167   -0.8273    9.5747 O.2       1 RES1    0.0000
     24 N4        -0.2197    0.0650   12.8448 N.pl3     1 RES1    0.0000
     25 O3         0.7450   -0.3567   13.4635 O.2       1 RES1    0.0000
     26 O4        -1.2383    0.4895   13.3587 O.2       1 RES1    0.0000
     27 N1A       -3.0996    0.0322    3.6760 N.3       1 RES1    0.0000
     28 H1A       -3.7377   -0.0559    4.0947 H         1 RES1    0.0000
     29 N2A       -1.9721    0.4413    4.4008 N.3       1 RES1    0.0000
     30 C1A       -2.1265    1.7665    4.9884 C.3       1 RES1    0.0000
     31 H2A       -2.9908    1.8595    5.4625 H         1 RES1    0.0000
     32 H3A       -2.0445    2.4812    4.3088 H         1 RES1    0.0000
     33 C3A       -0.4344   -1.3840    4.9066 C.3       1 RES1    0.0000
     34 H4A        0.3220   -0.8154    4.6562 H         1 RES1    0.0000
     35 H5A       -0.7568   -1.8658    4.1165 H         1 RES1    0.0000
     36 H6A       -0.1483   -2.0274    5.5870 H         1 RES1    0.0000
     37 C4A       -3.0845    0.0587    2.3423 C.ar      1 RES1    0.0000
     38 C5A       -4.2152   -0.2280    1.5288 C.ar      1 RES1    0.0000
     39 C6A       -4.1334   -0.2245    0.1407 C.ar      1 RES1    0.0000
     40 H7A       -4.8944   -0.4455   -0.3824 H         1 RES1    0.0000
     41 C7A       -2.9650    0.0937   -0.4589 C.ar      1 RES1    0.0000
     42 C8A       -1.8421    0.4077    0.2965 C.ar      1 RES1    0.0000
     43 H8A       -1.0289    0.6385   -0.1398 H         1 RES1    0.0000
     44 C9A       -1.8975    0.3874    1.6486 C.ar      1 RES1    0.0000
     45 H9A       -1.1169    0.6007    2.1457 H         1 RES1    0.0000
     46 N3A       -5.4945   -0.5539    2.1009 N.pl3     1 RES1    0.0000
     47 O1A       -5.6282   -0.5595    3.3199 O.2       1 RES1    0.0000
     48 O2A       -6.4137   -0.8273    1.3503 O.2       1 RES1    0.0000
     49 N4A       -2.8774    0.0650   -1.9197 N.pl3     1 RES1    0.0000
     50 O3A       -3.8420   -0.3567   -2.5385 O.2       1 RES1    0.0000
     51 O4A       -1.8587    0.4895   -2.4337 O.2       1 RES1    0.0000
@<TRIPOS>BOND
     1    1    2 1
     2    3    1 1
     3    4    3 1
     4    5    4 1
     5    6    4 1
     6    7    3 1
     7    8    7 1
     8    9    8 1
     9   10    8 1
    10   11    8 1
    11   12    1 1
    12   13   12 ar
    13   14   13 ar
    14   15   14 1
    15   16   14 ar
    16   17   16 ar
    17   18   17 1
    18   19   12 ar
    19   20   19 1
    20   21   13 1
    21   22   21 2
    22   23   21 2
    23   24   16 1
    24   25   24 2
    25   26   24 2
    26   27   28 1
    27   29    7 1
    28   30    4 1
    29   31   30 1
    30   32   30 1
    31   33    7 1
    32   34   33 1
    33   35   33 1
    34   36   33 1
    35   37   27 1
    36   38   37 ar
    37   39   38 ar
    38   40   39 1
    39   41   39 ar
    40   42   41 ar
    41   43   42 1
    42   44   37 ar
    43   45   44 1
    44   46   38 1
    45   47   46 2
    46   48   46 2
    47   49   41 1
    48   50   49 2
    49   51   49 2
    50   17   19 ar
    51   27   29 1
    52   29   30 1
    53   42   44 ar
@<TRIPOS>SUBSTRUCTURE
     1 RES1 1

@<TRIPOS>CRYSIN
  13.4920    6.9933   22.7110  90.0000 105.8270  90.0000  15 1

