# MOL2 file generated by ConQuest
# Please check atom types

@<TRIPOS>MOLECULE
HEHYIE
    56    58     1
SMALL
NO_CHARGES
****
Generated from CSD

@<TRIPOS>ATOM
      1 C1         9.7581   -2.0430    0.4976 C.3       1 RES1    0.0000
      2 H1        10.0426   -2.8633    0.9513 H         1 RES1    0.0000
      3 H2        10.5461   -1.5306    0.2210 H         1 RES1    0.0000
      4 H3         9.2256   -2.2744   -0.2917 H         1 RES1    0.0000
      5 C2         8.9224   -1.2099    1.4420 C.ar      1 RES1    0.0000
      6 C3         7.5921   -1.5453    1.6862 C.ar      1 RES1    0.0000
      7 H4         7.2141   -2.2940    1.2397 H         1 RES1    0.0000
      8 C4         6.8111   -0.8190    2.5600 C.ar      1 RES1    0.0000
      9 H5         5.9107   -1.0790    2.7125 H         1 RES1    0.0000
     10 C5         7.3332    0.3013    3.2265 C.ar      1 RES1    0.0000
     11 C6         8.6590    0.6515    2.9619 C.ar      1 RES1    0.0000
     12 H6         9.0359    1.4130    3.3854 H         1 RES1    0.0000
     13 C7         9.4313   -0.0991    2.0878 C.ar      1 RES1    0.0000
     14 H7        10.3327    0.1564    1.9292 H         1 RES1    0.0000
     15 C8         6.5644    1.0934    4.1920 C.2       1 RES1    0.0000
     16 H8         6.9662    1.8888    4.5213 H         1 RES1    0.0000
     17 C9         5.3453    0.7887    4.6467 C.2       1 RES1    0.0000
     18 H9         4.8881    0.0281    4.3069 H         1 RES1    0.0000
     19 C10        4.7084    1.6325    5.6747 C.2       1 RES1    0.0000
     20 C11        2.0772   -0.3020    5.2459 C.3       1 RES1    0.0000
     21 H10        2.1800    0.2404    4.4240 H         1 RES1    0.0000
     22 H11        1.3230    0.0655    5.7709 H         1 RES1    0.0000
     23 C12        1.8049   -1.7367    4.8858 C.3       1 RES1    0.0000
     24 H12        0.8410   -1.8375    4.6859 H         1 RES1    0.0000
     25 H13        2.0098   -2.3054    5.6693 H         1 RES1    0.0000
     26 C13        2.6049   -2.2393    3.6959 C.2       1 RES1    0.0000
     27 C14        2.3885   -3.6287    3.2239 C.ar      1 RES1    0.0000
     28 C15        3.1758   -4.1196    2.1866 C.ar      1 RES1    0.0000
     29 H14        3.8609   -3.5747    1.8176 H         1 RES1    0.0000
     30 C16        2.9714   -5.3845    1.6908 C.ar      1 RES1    0.0000
     31 H15        3.5137   -5.7088    0.9812 H         1 RES1    0.0000
     32 C17        1.9797   -6.1870    2.2219 C.ar      1 RES1    0.0000
     33 H16        1.8378   -7.0590    1.8717 H         1 RES1    0.0000
     34 C18        1.1955   -5.7257    3.2608 C.ar      1 RES1    0.0000
     35 H17        0.5208   -6.2819    3.6329 H         1 RES1    0.0000
     36 C19        1.3977   -4.4507    3.7572 C.ar      1 RES1    0.0000
     37 H18        0.8555   -4.1322    4.4693 H         1 RES1    0.0000
     38 C20        2.8870    1.6634    7.3880 C.ar      1 RES1    0.0000
     39 C21        2.4289    0.8409    8.4135 C.ar      1 RES1    0.0000
     40 H19        2.6077   -0.0913    8.3895 H         1 RES1    0.0000
     41 C22        1.7141    1.3777    9.4640 C.ar      1 RES1    0.0000
     42 H20        1.3972    0.8113   10.1574 H         1 RES1    0.0000
     43 C23        1.4539    2.7423    9.5154 C.ar      1 RES1    0.0000
     44 C24        1.8994    3.5636    8.4911 C.ar      1 RES1    0.0000
     45 H21        1.7235    4.4970    8.5177 H         1 RES1    0.0000
     46 C25        2.6039    3.0181    7.4256 C.ar      1 RES1    0.0000
     47 H22        2.8942    3.5791    6.7167 H         1 RES1    0.0000
     48 C26        0.3582    4.5493   10.6264 C.3       1 RES1    0.0000
     49 H23        1.1578    5.1150   10.6060 H         1 RES1    0.0000
     50 H24       -0.1503    4.7329   11.4435 H         1 RES1    0.0000
     51 H25       -0.1995    4.7432    9.8436 H         1 RES1    0.0000
     52 N1         3.5983    1.0959    6.2923 N.am      1 RES1    0.0000
     53 O1         5.1019    2.7535    5.9832 O.2       1 RES1    0.0000
     54 O2         3.2919   -0.2550    6.0245 O.3       1 RES1    0.0000
     55 O3         3.3786   -1.4830    3.1147 O.2       1 RES1    0.0000
     56 O4         0.7458    3.1759   10.6067 O.3       1 RES1    0.0000
@<TRIPOS>BOND
     1    1    2 1
     2    3    1 1
     3    4    1 1
     4    5    1 1
     5    6    5 ar
     6    7    6 1
     7    8    6 ar
     8    9    8 1
     9   10    8 ar
    10   11   10 ar
    11   12   11 1
    12   13    5 ar
    13   14   13 1
    14   15   10 1
    15   16   15 1
    16   17   15 2
    17   18   17 1
    18   19   17 1
    19   20   21 1
    20   22   20 1
    21   23   20 1
    22   24   23 1
    23   25   23 1
    24   26   23 1
    25   27   26 1
    26   28   27 ar
    27   29   28 1
    28   30   28 ar
    29   31   30 1
    30   32   30 ar
    31   33   32 1
    32   34   32 ar
    33   35   34 1
    34   36   27 ar
    35   37   36 1
    36   38   39 ar
    37   39   40 1
    38   41   39 ar
    39   42   41 1
    40   43   41 ar
    41   44   43 ar
    42   45   44 1
    43   46   38 ar
    44   47   46 1
    45   48   49 1
    46   50   48 1
    47   51   48 1
    48   52   19 1
    49   53   19 2
    50   54   20 1
    51   55   26 2
    52   56   43 1
    53   11   13 ar
    54   34   36 ar
    55   38   52 1
    56   44   46 ar
    57   48   56 1
    58   52   54 1
@<TRIPOS>SUBSTRUCTURE
     1 RES1 1

@<TRIPOS>CRYSIN
   9.1763   11.1800   11.8280 109.0320  90.8960 111.4670   2 1

