# MOL2 file generated by ConQuest
# Please check atom types

@<TRIPOS>MOLECULE
HEHZIG
    69    75     1
SMALL
NO_CHARGES
****
Generated from CSD

@<TRIPOS>ATOM
      1 O1        -0.8674    5.1222    3.8895 O.3       1 RES1    0.0000
      2 O2         1.7683    8.3161    3.3452 O.2       1 RES1    0.0000
      3 O3        -0.4301    5.0730    6.8386 O.2       1 RES1    0.0000
      4 O4        -2.0128    9.2493    8.3901 O.3       1 RES1    0.0000
      5 N1         0.1379    4.8318    2.9271 N.2       1 RES1    0.0000
      6 N2        -1.8174    6.8891    6.4983 N.am      1 RES1    0.0000
      7 N3        -1.3340   10.0556    9.3362 N.2       1 RES1    0.0000
      8 C1         1.8471    8.4730    5.7084 C.ar      1 RES1    0.0000
      9 C2         1.1991    5.5067    3.1967 C.2       1 RES1    0.0000
     10 C3        -2.0877    7.7946    5.4414 C.ar      1 RES1    0.0000
     11 C4        -1.2734    7.4917    4.3484 C.ar      1 RES1    0.0000
     12 C5         3.6616    5.7845    2.8590 C.ar      1 RES1    0.0000
     13 H1         3.7249    6.1894    3.7158 H         1 RES1    0.0000
     14 C6         2.3538    4.7625    1.1108 C.ar      1 RES1    0.0000
     15 H2         1.5208    4.4524    0.7752 H         1 RES1    0.0000
     16 C7        -1.8203    7.9467    8.7132 C.2       1 RES1    0.0000
     17 C8        -0.4437    6.2769    4.6881 C.3       1 RES1    0.0000
     18 C9        -1.3774    8.2295    3.1859 C.ar      1 RES1    0.0000
     19 H3        -0.8270    8.0340    2.4360 H         1 RES1    0.0000
     20 C10       -3.0119    8.8223    5.4157 C.ar      1 RES1    0.0000
     21 H4        -3.5532    9.0216    6.1713 H         1 RES1    0.0000
     22 C11       -1.0615    7.8576    9.8176 C.2       1 RES1    0.0000
     23 H5        -0.7782    7.0699   10.2656 H         1 RES1    0.0000
     24 C12        2.4145    5.3573    2.3801 C.ar      1 RES1    0.0000
     25 C13       -0.7742    9.2123   10.1678 C.2       1 RES1    0.0000
     26 C14        1.6095    7.7635    4.4150 C.2       1 RES1    0.0000
     27 C15        1.0861    6.3250    4.4710 C.3       1 RES1    0.0000
     28 H6         1.5404    5.8377    5.2167 H         1 RES1    0.0000
     29 C16        4.7442    5.0494    0.8181 C.ar      1 RES1    0.0000
     30 C17       -2.4458    6.9228    7.8193 C.3       1 RES1    0.0000
     31 H7        -2.3650    6.0302    8.2405 H         1 RES1    0.0000
     32 H8        -3.4094    7.1246    7.7164 H         1 RES1    0.0000
     33 C18       -2.3098    9.2697    3.1364 C.ar      1 RES1    0.0000
     34 H9        -2.3931    9.7875    2.3450 H         1 RES1    0.0000
     35 C19        2.0407    9.8576    5.6732 C.ar      1 RES1    0.0000
     36 H10        1.9913   10.3187    4.8447 H         1 RES1    0.0000
     37 C20        3.5020    4.6240    0.3421 C.ar      1 RES1    0.0000
     38 H11        3.4412    4.2334   -0.5215 H         1 RES1    0.0000
     39 C21        4.8040    5.6200    2.0865 C.ar      1 RES1    0.0000
     40 H12        5.6431    5.9026    2.4308 H         1 RES1    0.0000
     41 C22        0.0328    9.7039   11.2988 C.ar      1 RES1    0.0000
     42 C23       -3.1160    9.5540    4.2321 C.ar      1 RES1    0.0000
     43 H13       -3.7497   10.2594    4.1749 H         1 RES1    0.0000
     44 C24        0.8639    9.3847   13.5397 C.ar      1 RES1    0.0000
     45 H14        0.9233    8.8455   14.3195 H         1 RES1    0.0000
     46 C25        1.4952   10.6278   13.5185 C.ar      1 RES1    0.0000
     47 C26        2.3024   10.5601    6.8324 C.ar      1 RES1    0.0000
     48 H15        2.4348   11.5008    6.7995 H         1 RES1    0.0000
     49 C27        2.1737    8.5154    8.1016 C.ar      1 RES1    0.0000
     50 H16        2.2182    8.0632    8.9364 H         1 RES1    0.0000
     51 C28       -0.8668    5.9751    6.1466 C.2       1 RES1    0.0000
     52 C29        1.9092    7.7979    6.9329 C.ar      1 RES1    0.0000
     53 H17        1.7715    6.8585    6.9686 H         1 RES1    0.0000
     54 C30        6.0012    4.9353   -0.0146 C.3       1 RES1    0.0000
     55 H18        5.8155    4.3995   -0.8142 H         1 RES1    0.0000
     56 H19        6.7040    4.5028    0.5137 H         1 RES1    0.0000
     57 H20        6.2968    5.8295   -0.2822 H         1 RES1    0.0000
     58 C31        0.6619   10.9538   11.2653 C.ar      1 RES1    0.0000
     59 H21        0.5903   11.5001   10.4919 H         1 RES1    0.0000
     60 C32        0.1516    8.9199   12.4446 C.ar      1 RES1    0.0000
     61 H22       -0.2569    8.0634   12.4753 H         1 RES1    0.0000
     62 C33        1.3907   11.3948   12.3604 C.ar      1 RES1    0.0000
     63 H23        1.8278   12.2379   12.3192 H         1 RES1    0.0000
     64 C34        2.3729    9.8907    8.0455 C.ar      1 RES1    0.0000
     65 H24        2.5573   10.3745    8.8414 H         1 RES1    0.0000
     66 C35        2.2760   11.1342   14.7090 C.3       1 RES1    0.0000
     67 H25        1.9131   10.7393   15.5291 H         1 RES1    0.0000
     68 H26        2.2025   12.1103   14.7565 H         1 RES1    0.0000
     69 H27        3.2181   10.8819   14.6134 H         1 RES1    0.0000
@<TRIPOS>BOND
     1    1    5 1
     2    2   26 2
     3    3   51 2
     4    4    7 1
     5    5    9 2
     6    6   10 1
     7    7   25 2
     8    8   26 1
     9    9   24 1
    10   10   11 ar
    11   11   17 1
    12   12   13 1
    13   14   15 1
    14   16    4 1
    15   17    1 1
    16   18   11 ar
    17   19   18 1
    18   20   10 ar
    19   21   20 1
    20   22   16 2
    21   23   22 1
    22   24   12 ar
    23   25   22 1
    24   26   27 1
    25   27    9 1
    26   28   27 1
    27   29   37 ar
    28   30    6 1
    29   31   30 1
    30   32   30 1
    31   33   18 ar
    32   34   33 1
    33   35    8 ar
    34   36   35 1
    35   37   14 ar
    36   38   37 1
    37   39   12 ar
    38   40   39 1
    39   41   25 1
    40   42   20 ar
    41   43   42 1
    42   44   45 1
    43   46   44 ar
    44   47   35 ar
    45   48   47 1
    46   49   50 1
    47   51    6 1
    48   52    8 ar
    49   53   52 1
    50   54   29 1
    51   55   54 1
    52   56   54 1
    53   57   54 1
    54   58   41 ar
    55   59   58 1
    56   60   41 ar
    57   61   60 1
    58   62   46 ar
    59   63   62 1
    60   64   47 ar
    61   65   64 1
    62   66   46 1
    63   67   66 1
    64   68   66 1
    65   69   66 1
    66   14   24 ar
    67   16   30 1
    68   17   27 1
    69   17   51 1
    70   29   39 ar
    71   33   42 ar
    72   44   60 ar
    73   49   52 ar
    74   49   64 ar
    75   58   62 ar
@<TRIPOS>SUBSTRUCTURE
     1 RES1 1

@<TRIPOS>CRYSIN
   8.4080   12.6820   13.7620  98.9200 105.3700  97.5100   2 1

