# MOL2 file generated by ConQuest
# Please check atom types

@<TRIPOS>MOLECULE
HEJMEQ
    73    77     1
SMALL
NO_CHARGES
****
Generated from CSD

@<TRIPOS>ATOM
      1 O1         1.2709    2.2831    5.6448 O.3       1 RES1    0.0000
      2 O2        -0.1136    5.2589    6.0766 O.3       1 RES1    0.0000
      3 O3        -1.4658    4.6110    7.7456 O.2       1 RES1    0.0000
      4 O4        -5.6976   -0.2922    4.3646 O.2       1 RES1    0.0000
      5 O5        -4.8302    0.8957    2.7932 O.2       1 RES1    0.0000
      6 O6         1.7945    1.7238    7.8639 O.3       1 RES1    0.0000
      7 O7         2.5226    4.8242    9.9852 O.2       1 RES1    0.0000
      8 N1        -4.8197    0.4438    3.9307 N.pl3     1 RES1    0.0000
      9 N2         2.4212    2.6065   10.5897 N.am      1 RES1    0.0000
     10 N3        -0.3520    1.2758    8.5474 N.2       1 RES1    0.0000
     11 O8         7.4283    2.6723   13.0290 O.3       1 RES1    0.0000
     12 C1         0.7968    3.7955    7.6563 C.3       1 RES1    0.0000
     13 H1         1.6342    4.3114    7.4760 H         1 RES1    0.0000
     14 C2         0.9283    1.8256    9.0098 C.3       1 RES1    0.0000
     15 C3         5.1290    3.4636   12.9908 C.ar      1 RES1    0.0000
     16 H2         5.2576    4.0201   13.7497 H         1 RES1    0.0000
     17 C4         6.1711    2.7080   12.4957 C.ar      1 RES1    0.0000
     18 C5        -0.3937    1.6059    7.2979 C.2       1 RES1    0.0000
     19 C6         1.6724    1.3648   10.2625 C.3       1 RES1    0.0000
     20 H3         2.3342    0.6672    9.9889 H         1 RES1    0.0000
     21 C7         0.7702    3.3629    9.1204 C.3       1 RES1    0.0000
     22 H4        -0.0808    3.6240    9.5769 H         1 RES1    0.0000
     23 C8        -0.3939    4.5954    7.2004 C.2       1 RES1    0.0000
     24 C9         3.6913    2.6028   11.2664 C.ar      1 RES1    0.0000
     25 C10       -1.5337    1.3417    6.4211 C.ar      1 RES1    0.0000
     26 C11       -3.6925    0.7742    4.8065 C.ar      1 RES1    0.0000
     27 C12        0.8270    0.7928   11.4185 C.3       1 RES1    0.0000
     28 C13        1.9932    3.7300    9.9367 C.2       1 RES1    0.0000
     29 C14       -1.6046    1.8662    5.1366 C.ar      1 RES1    0.0000
     30 H5        -0.9066    2.4265    4.8186 H         1 RES1    0.0000
     31 C15        4.7362    1.8396   10.7719 C.ar      1 RES1    0.0000
     32 H6         4.6056    1.2831   10.0129 H         1 RES1    0.0000
     33 C16        5.9712    1.8946   11.3923 C.ar      1 RES1    0.0000
     34 H7         6.6892    1.3688   11.0586 H         1 RES1    0.0000
     35 C17       -2.5754    0.5341    6.8809 C.ar      1 RES1    0.0000
     36 H8        -2.5395    0.1789    7.7615 H         1 RES1    0.0000
     37 C18        0.8920    2.3694    6.9591 C.3       1 RES1    0.0000
     38 C19        3.8931    3.4032   12.3692 C.ar      1 RES1    0.0000
     39 H9         3.1729    3.9209   12.7101 H         1 RES1    0.0000
     40 C20        1.7529    0.5030   12.6077 C.3       1 RES1    0.0000
     41 H10        2.0970    1.3468   12.9667 H         1 RES1    0.0000
     42 H11        2.5017   -0.0556   12.3102 H         1 RES1    0.0000
     43 H12        1.2503    0.0310   13.3052 H         1 RES1    0.0000
     44 C21       -3.6521    0.2463    6.0762 C.ar      1 RES1    0.0000
     45 H13       -4.3564   -0.3072    6.3906 H         1 RES1    0.0000
     46 C22        0.2212   -0.5401   10.9658 C.3       1 RES1    0.0000
     47 H14       -0.2810   -0.9392   11.7067 H         1 RES1    0.0000
     48 H15        0.9391   -1.1495   10.6936 H         1 RES1    0.0000
     49 H16       -0.3804   -0.3852   10.2081 H         1 RES1    0.0000
     50 C23        7.7881    3.6720   13.9642 C.3       1 RES1    0.0000
     51 H17        7.6031    4.5556   13.5859 H         1 RES1    0.0000
     52 H18        8.7444    3.5981   14.1689 H         1 RES1    0.0000
     53 H19        7.2685    3.5525   14.7869 H         1 RES1    0.0000
     54 C24       -2.6924    1.5798    4.3102 C.ar      1 RES1    0.0000
     55 H20       -2.7404    1.9305    3.4296 H         1 RES1    0.0000
     56 C25        2.8189    2.5704    3.8825 C.3       1 RES1    0.0000
     57 H21        2.8389    1.5985    3.7561 H         1 RES1    0.0000
     58 H22        3.6886    2.9499    3.6404 H         1 RES1    0.0000
     59 H23        2.1220    2.9590    3.3128 H         1 RES1    0.0000
     60 C26       -0.2717    1.7605   11.8633 C.3       1 RES1    0.0000
     61 H24       -0.7444    1.3858   12.6354 H         1 RES1    0.0000
     62 H25       -0.9044    1.8966   11.1272 H         1 RES1    0.0000
     63 H26        0.1302    2.6189   12.1114 H         1 RES1    0.0000
     64 C27       -1.2119    6.0022    5.4691 C.3       1 RES1    0.0000
     65 H27       -1.6361    6.5926    6.1412 H         1 RES1    0.0000
     66 H28       -1.8974    5.3764    5.1257 H         1 RES1    0.0000
     67 C28       -0.6523    6.8178    4.3463 C.3       1 RES1    0.0000
     68 H29       -0.0759    7.5223    4.7101 H         1 RES1    0.0000
     69 H30       -1.3865    7.2254    3.8416 H         1 RES1    0.0000
     70 H31       -0.1291    6.2412    3.7524 H         1 RES1    0.0000
     71 C29        2.5255    2.8755    5.2956 C.3       1 RES1    0.0000
     72 H32        3.2425    2.5137    5.8750 H         1 RES1    0.0000
     73 H33        2.4834    3.8560    5.4269 H         1 RES1    0.0000
@<TRIPOS>BOND
     1    1   37 1
     2    2   23 1
     3    3   23 2
     4    4    8 2
     5    5    8 2
     6    6   14 1
     7    7   28 2
     8    8   26 1
     9    9   19 1
    10   10   14 1
    11   11   17 1
    12   12   13 1
    13   14   19 1
    14   15   16 1
    15   17   15 ar
    16   18   10 2
    17   19   20 1
    18   21   12 1
    19   22   21 1
    20   23   12 1
    21   24    9 1
    22   25   18 1
    23   26   44 ar
    24   27   19 1
    25   28    9 1
    26   29   25 ar
    27   30   29 1
    28   31   24 ar
    29   32   31 1
    30   33   17 ar
    31   34   33 1
    32   35   25 ar
    33   36   35 1
    34   37    6 1
    35   38   15 ar
    36   39   38 1
    37   40   27 1
    38   41   40 1
    39   42   40 1
    40   43   40 1
    41   44   35 ar
    42   45   44 1
    43   46   27 1
    44   47   46 1
    45   48   46 1
    46   49   46 1
    47   50   11 1
    48   51   50 1
    49   52   50 1
    50   53   50 1
    51   54   26 ar
    52   55   54 1
    53   56   57 1
    54   58   56 1
    55   59   56 1
    56   60   27 1
    57   61   60 1
    58   62   60 1
    59   63   60 1
    60   64    2 1
    61   65   64 1
    62   66   64 1
    63   67   64 1
    64   68   67 1
    65   69   67 1
    66   70   67 1
    67   71    1 1
    68   72   71 1
    69   73   71 1
    70   12   37 1
    71   14   21 1
    72   18   37 1
    73   21   28 1
    74   24   38 ar
    75   29   54 ar
    76   31   33 ar
    77   56   71 1
@<TRIPOS>SUBSTRUCTURE
     1 RES1 1

@<TRIPOS>CRYSIN
  10.6474   11.7412   12.1637  90.6710  97.1510 111.1970   2 1

