# MOL2 file generated by ConQuest
# Please check atom types

@<TRIPOS>MOLECULE
HEJMAM
    74    80     1
SMALL
NO_CHARGES
****
Generated from CSD

@<TRIPOS>ATOM
      1 O1        -0.6095    1.5150    2.1174 O.2       1 RES1    0.0000
      2 O2         1.8729    4.3831    1.9210 O.3       1 RES1    0.0000
      3 O3         2.2452    5.1540    4.1095 O.3       1 RES1    0.0000
      4 O4         8.6737    4.8869    6.8013 O.2       1 RES1    0.0000
      5 O5         9.7828    4.7393    4.9661 O.2       1 RES1    0.0000
      6 N1         0.4921    2.3894    0.3035 N.am      1 RES1    0.0000
      7 N2         3.8425    3.2339    1.5827 N.2       1 RES1    0.0000
      8 N3         8.7445    4.7089    5.5960 N.pl3     1 RES1    0.0000
      9 C1         0.3980    1.9546    1.5946 C.2       1 RES1    0.0000
     10 C2         1.7858    3.0178   -0.0632 C.3       1 RES1    0.0000
     11 H1         1.6091    3.9224   -0.4526 H         1 RES1    0.0000
     12 C3         2.3911    3.1836    1.3293 C.3       1 RES1    0.0000
     13 C4         1.7582    2.1105    2.2394 C.3       1 RES1    0.0000
     14 H2         2.2787    1.2567    2.2394 H         1 RES1    0.0000
     15 C5         1.7796    2.8129    3.6205 C.3       1 RES1    0.0000
     16 H3         0.8364    3.0202    3.8799 H         1 RES1    0.0000
     17 C6         2.4734    4.1416    3.2115 C.3       1 RES1    0.0000
     18 C7         3.9034    3.8276    2.7317 C.2       1 RES1    0.0000
     19 C8        -0.6630    2.5443   -0.5195 C.ar      1 RES1    0.0000
     20 C9        -1.5014    3.6309   -0.2864 C.ar      1 RES1    0.0000
     21 H4        -1.3190    4.2312    0.4266 H         1 RES1    0.0000
     22 C10       -2.5908    3.8288   -1.0949 C.ar      1 RES1    0.0000
     23 H5        -3.1804    4.5530   -0.9201 H         1 RES1    0.0000
     24 C11       -2.8401    2.9934   -2.1563 C.ar      1 RES1    0.0000
     25 H6        -3.5806    3.1553   -2.7292 H         1 RES1    0.0000
     26 C12       -2.0150    1.9228   -2.3832 C.ar      1 RES1    0.0000
     27 H7        -2.1944    1.3365   -3.1086 H         1 RES1    0.0000
     28 C13       -0.9167    1.6842   -1.5624 C.ar      1 RES1    0.0000
     29 H8        -0.3502    0.9382   -1.7211 H         1 RES1    0.0000
     30 C14        2.5690    2.1801   -1.0813 C.3       1 RES1    0.0000
     31 H9         1.9211    1.9646   -1.8128 H         1 RES1    0.0000
     32 C15        3.0701    0.8387   -0.5642 C.3       1 RES1    0.0000
     33 H10        2.3113    0.3236   -0.1910 H         1 RES1    0.0000
     34 H11        3.7267    0.9879    0.1612 H         1 RES1    0.0000
     35 C16        3.7226    0.0394   -1.6839 C.3       1 RES1    0.0000
     36 H12        3.0340   -0.2221   -2.3460 H         1 RES1    0.0000
     37 H13        4.1166   -0.7878   -1.3107 H         1 RES1    0.0000
     38 C17        4.8130    0.8488   -2.3832 C.3       1 RES1    0.0000
     39 H14        5.5592    1.0037   -1.7508 H         1 RES1    0.0000
     40 H15        5.1651    0.3306   -3.1483 H         1 RES1    0.0000
     41 C18        4.2982    2.1731   -2.8755 C.3       1 RES1    0.0000
     42 H16        3.6146    2.0197   -3.5748 H         1 RES1    0.0000
     43 H17        5.0419    2.6848   -3.2810 H         1 RES1    0.0000
     44 C19        3.6845    2.9839   -1.7384 C.3       1 RES1    0.0000
     45 H18        4.3813    3.1998   -1.0676 H         1 RES1    0.0000
     46 H19        3.3211    3.8346   -2.0918 H         1 RES1    0.0000
     47 C20        2.4376    2.1018    4.7689 C.ar      1 RES1    0.0000
     48 C21        3.5545    1.2953    4.6189 C.ar      1 RES1    0.0000
     49 H20        3.8877    1.1151    3.7484 H         1 RES1    0.0000
     50 C22        4.1915    0.7477    5.7175 C.ar      1 RES1    0.0000
     51 H21        4.9694    0.2138    5.5997 H         1 RES1    0.0000
     52 C23        3.6937    0.9787    6.9897 C.ar      1 RES1    0.0000
     53 H22        4.1283    0.6031    7.7461 H         1 RES1    0.0000
     54 C24        2.5808    1.7426    7.1534 C.ar      1 RES1    0.0000
     55 H23        2.2374    1.8973    8.0251 H         1 RES1    0.0000
     56 C25        1.9453    2.2948    6.0573 C.ar      1 RES1    0.0000
     57 H24        1.1599    2.8144    6.1850 H         1 RES1    0.0000
     58 C26        2.6640    6.4640    3.6368 C.3       1 RES1    0.0000
     59 H25        2.2010    6.6832    2.7899 H         1 RES1    0.0000
     60 H26        3.6400    6.4701    3.4707 H         1 RES1    0.0000
     61 C27        2.3194    7.4602    4.6759 C.3       1 RES1    0.0000
     62 H27        2.4899    8.3620    4.3337 H         1 RES1    0.0000
     63 H28        2.8680    7.3042    5.4732 H         1 RES1    0.0000
     64 H29        1.3709    7.3737    4.9103 H         1 RES1    0.0000
     65 C28        5.1581    4.0131    3.4818 C.ar      1 RES1    0.0000
     66 C29        5.1314    4.3878    4.8210 C.ar      1 RES1    0.0000
     67 H30        4.2975    4.4927    5.2649 H         1 RES1    0.0000
     68 C30        6.3065    4.6071    5.5117 C.ar      1 RES1    0.0000
     69 H31        6.2916    4.8569    6.4280 H         1 RES1    0.0000
     70 C31        7.4950    4.4576    4.8483 C.ar      1 RES1    0.0000
     71 C32        7.5652    4.0649    3.5290 C.ar      1 RES1    0.0000
     72 H32        8.4048    3.9496    3.0999 H         1 RES1    0.0000
     73 C33        6.3848    3.8437    2.8457 C.ar      1 RES1    0.0000
     74 H33        6.4105    3.5734    1.9356 H         1 RES1    0.0000
@<TRIPOS>BOND
     1    1    9 2
     2    2   12 1
     3    3   17 1
     4    4    8 2
     5    5    8 2
     6    6    9 1
     7    7   12 1
     8    8   70 1
     9    9   13 1
    10   10    6 1
    11   11   10 1
    12   12   10 1
    13   13   12 1
    14   14   13 1
    15   15   13 1
    16   16   15 1
    17   17    2 1
    18   18    7 2
    19   19    6 1
    20   20   19 ar
    21   21   20 1
    22   22   20 ar
    23   23   22 1
    24   24   22 ar
    25   25   24 1
    26   26   24 ar
    27   27   26 1
    28   28   19 ar
    29   29   28 1
    30   30   10 1
    31   31   30 1
    32   32   30 1
    33   33   32 1
    34   34   32 1
    35   35   32 1
    36   36   35 1
    37   37   35 1
    38   38   35 1
    39   39   38 1
    40   40   38 1
    41   41   38 1
    42   42   41 1
    43   43   41 1
    44   44   30 1
    45   45   44 1
    46   46   44 1
    47   47   15 1
    48   48   47 ar
    49   49   48 1
    50   50   48 ar
    51   51   50 1
    52   52   50 ar
    53   53   52 1
    54   54   52 ar
    55   55   54 1
    56   56   47 ar
    57   57   56 1
    58   58    3 1
    59   59   58 1
    60   60   58 1
    61   61   58 1
    62   62   61 1
    63   63   61 1
    64   64   61 1
    65   65   18 1
    66   66   65 ar
    67   67   66 1
    68   68   66 ar
    69   69   68 1
    70   70   68 ar
    71   71   70 ar
    72   72   71 1
    73   73   65 ar
    74   74   73 1
    75   15   17 1
    76   17   18 1
    77   26   28 ar
    78   41   44 1
    79   54   56 ar
    80   71   73 ar
@<TRIPOS>SUBSTRUCTURE
     1 RES1 1

@<TRIPOS>CRYSIN
  10.6938   11.0997   12.6687  78.9350  83.0410  74.3140   2 1

