# MOL2 file generated by ConQuest
# Please check atom types

@<TRIPOS>MOLECULE
HEJYEC
    55    60     1
SMALL
NO_CHARGES
****
Generated from CSD

@<TRIPOS>ATOM
      1 O1        -1.4390    6.1920   -1.5183 O.2       1 RES1    0.0000
      2 O2         0.0459    4.6474   -1.8626 O.2       1 RES1    0.0000
      3 O3         3.6287    6.9817    3.6024 O.2       1 RES1    0.0000
      4 N1        -0.3761    5.6309   -1.2528 N.pl3     1 RES1    0.0000
      5 N2         2.1177    8.7298    3.7805 N.am      1 RES1    0.0000
      6 C1         0.4326    6.1627   -0.1336 C.ar      1 RES1    0.0000
      7 C2         1.4492    5.3539    0.3829 C.ar      1 RES1    0.0000
      8 H1         1.6363    4.4979    0.0161 H         1 RES1    0.0000
      9 C3         2.1658    5.8533    1.4456 C.ar      1 RES1    0.0000
     10 H2         2.8520    5.3242    1.8358 H         1 RES1    0.0000
     11 C4         1.8998    7.1355    1.9657 C.ar      1 RES1    0.0000
     12 C5         2.6561    7.5743    3.1452 C.2       1 RES1    0.0000
     13 C6         2.3049    8.8901    5.1979 C.2       1 RES1    0.0000
     14 C7         2.1473   10.1060    5.7742 C.2       1 RES1    0.0000
     15 C8         1.9313   11.2762    4.9185 C.ar      1 RES1    0.0000
     16 C9         2.0536   12.5924    5.4240 C.ar      1 RES1    0.0000
     17 H3         2.2219   12.7226    6.3496 H         1 RES1    0.0000
     18 C10        1.9321   13.6932    4.5941 C.ar      1 RES1    0.0000
     19 H4         2.0054   14.5706    4.9503 H         1 RES1    0.0000
     20 C11        1.7013   13.5051    3.2326 C.ar      1 RES1    0.0000
     21 H5         1.6687   14.2568    2.6527 H         1 RES1    0.0000
     22 C12        1.5182   12.2282    2.7152 C.ar      1 RES1    0.0000
     23 H6         1.3424   12.1179    1.7876 H         1 RES1    0.0000
     24 C13        1.5906   11.0942    3.5529 C.ar      1 RES1    0.0000
     25 C14        1.4126    9.7156    3.0279 C.2       1 RES1    0.0000
     26 C15        0.7394    9.3375    1.8858 C.2       1 RES1    0.0000
     27 C16        0.9029    7.9652    1.4009 C.ar      1 RES1    0.0000
     28 C17        0.1365    7.4240    0.3420 C.ar      1 RES1    0.0000
     29 H7        -0.5759    7.9243   -0.0379 H         1 RES1    0.0000
     30 C18        2.4756    7.6122    5.9574 C.ar      1 RES1    0.0000
     31 C19        1.4551    6.6589    5.9166 C.ar      1 RES1    0.0000
     32 H8         0.6694    6.8342    5.4133 H         1 RES1    0.0000
     33 C20        1.5757    5.4543    6.6044 C.ar      1 RES1    0.0000
     34 H9         0.8689    4.8204    6.5840 H         1 RES1    0.0000
     35 C21        2.7379    5.1835    7.3219 C.ar      1 RES1    0.0000
     36 H10        2.8372    4.3509    7.7696 H         1 RES1    0.0000
     37 C22        3.7560    6.1355    7.3828 C.ar      1 RES1    0.0000
     38 H11        4.5417    5.9562    7.8856 H         1 RES1    0.0000
     39 C23        3.6244    7.3437    6.7120 C.ar      1 RES1    0.0000
     40 H12        4.3168    7.9913    6.7655 H         1 RES1    0.0000
     41 C24        2.2175   10.3001    7.2780 C.3       1 RES1    0.0000
     42 H13        2.1767    9.4276    7.7225 H         1 RES1    0.0000
     43 H14        1.4628   10.8515    7.5720 H         1 RES1    0.0000
     44 H15        3.0578   10.7468    7.5111 H         1 RES1    0.0000
     45 C25       -0.1360   10.2629    1.0897 C.ar      1 RES1    0.0000
     46 C26       -1.2076   10.9434    1.6864 C.ar      1 RES1    0.0000
     47 H16       -1.3764   10.8324    2.6147 H         1 RES1    0.0000
     48 C27       -2.0285   11.7817    0.9311 C.ar      1 RES1    0.0000
     49 H17       -2.7424   12.2460    1.3510 H         1 RES1    0.0000
     50 C28       -1.8087   11.9419   -0.4322 C.ar      1 RES1    0.0000
     51 H18       -2.3707   12.5124   -0.9432 H         1 RES1    0.0000
     52 C29       -0.7550   11.2564   -1.0448 C.ar      1 RES1    0.0000
     53 H19       -0.6069   11.3527   -1.9783 H         1 RES1    0.0000
     54 C30        0.0760   10.4360   -0.2941 C.ar      1 RES1    0.0000
     55 H20        0.7973    9.9852   -0.7180 H         1 RES1    0.0000
@<TRIPOS>BOND
     1    1    4 2
     2    2    4 2
     3    3   12 2
     4    4    6 1
     5    5   12 1
     6    6    7 ar
     7    7    8 1
     8    9    7 ar
     9   10    9 1
    10   11    9 ar
    11   12   11 1
    12   13    5 1
    13   14   13 2
    14   15   14 1
    15   16   15 ar
    16   17   16 1
    17   18   16 ar
    18   19   18 1
    19   20   18 ar
    20   21   20 1
    21   22   20 ar
    22   23   22 1
    23   24   15 ar
    24   25    5 1
    25   26   25 2
    26   27   11 ar
    27   28    6 ar
    28   29   28 1
    29   30   13 1
    30   31   30 ar
    31   32   31 1
    32   33   31 ar
    33   34   33 1
    34   35   33 ar
    35   36   35 1
    36   37   35 ar
    37   38   37 1
    38   39   30 ar
    39   40   39 1
    40   41   14 1
    41   42   41 1
    42   43   41 1
    43   44   41 1
    44   45   26 1
    45   46   45 ar
    46   47   46 1
    47   48   46 ar
    48   49   48 1
    49   50   48 ar
    50   51   50 1
    51   52   50 ar
    52   53   52 1
    53   54   45 ar
    54   55   54 1
    55   22   24 ar
    56   24   25 1
    57   26   27 1
    58   27   28 ar
    59   37   39 ar
    60   52   54 ar
@<TRIPOS>SUBSTRUCTURE
     1 RES1 1

@<TRIPOS>CRYSIN
   9.4540   10.6840   12.4210  96.0840 108.9670 105.0610   2 1

