# MOL2 file generated by ConQuest
# Please check atom types

@<TRIPOS>MOLECULE
HEKBAA
    22    24     1
SMALL
NO_CHARGES
****
Generated from CSD

@<TRIPOS>ATOM
      1 O1         2.5416   -0.1991    6.4201 O.3       1 RES1    0.0000
      2 O2         6.3667   -3.1386    5.7371 O.2       1 RES1    0.0000
      3 O3         6.5627   -1.4903    6.8377 O.2       1 RES1    0.0000
      4 N1         5.1683    3.3689    7.0512 N.3       1 RES1    0.0000
      5 N2         6.2201   -1.9419    5.9082 N.pl3     1 RES1    0.0000
      6 C1         4.4737    3.1965    8.1942 C.ar      1 RES1    0.0000
      7 C2         4.2231    4.0295    9.2524 C.ar      1 RES1    0.0000
      8 C3         3.4552    3.6180   10.2941 C.ar      1 RES1    0.0000
      9 C4         2.9345    2.3067   10.2928 C.ar      1 RES1    0.0000
     10 C5         3.1748    1.4359    9.2551 C.ar      1 RES1    0.0000
     11 C6         3.9504    1.8885    8.1723 C.ar      1 RES1    0.0000
     12 C7         4.3442    1.2712    6.9280 C.2       1 RES1    0.0000
     13 C8         5.1164    2.2288    6.3421 C.2       1 RES1    0.0000
     14 C9         3.9555   -0.0567    6.4503 C.3       1 RES1    0.0000
     15 C10        4.5538   -0.3437    5.0677 C.ar      1 RES1    0.0000
     16 C11        4.0152    0.2925    3.9780 C.ar      1 RES1    0.0000
     17 C12        4.4490    0.0378    2.6872 C.ar      1 RES1    0.0000
     18 C13        5.4973   -0.9031    2.4996 C.ar      1 RES1    0.0000
     19 C14        6.0513   -1.5437    3.5304 C.ar      1 RES1    0.0000
     20 C15        5.5596   -1.2779    4.8199 C.ar      1 RES1    0.0000
     21 H1         2.3609   -1.2123    6.5707 H         1 RES1    0.0000
     22 H2         5.9064    4.3265    6.8445 H         1 RES1    0.0000
@<TRIPOS>BOND
     1    1   14 1
     2    2    5 2
     3    3    5 2
     4    4    6 1
     5    5   20 1
     6    6    7 ar
     7    7    8 ar
     8    8    9 ar
     9    9   10 ar
    10   10   11 ar
    11   11    6 ar
    12   12   11 1
    13   13    4 1
    14   14   12 1
    15   15   14 1
    16   16   15 ar
    17   17   16 ar
    18   18   17 ar
    19   19   18 ar
    20   20   15 ar
    21   21    1 1
    22   22    4 1
    23   12   13 2
    24   19   20 ar
@<TRIPOS>SUBSTRUCTURE
     1 RES1 1

@<TRIPOS>CRYSIN
   8.5230   11.1220   13.6890  90.0000  90.0000  90.0000  19 1

