# MOL2 file generated by ConQuest
# Please check atom types

@<TRIPOS>MOLECULE
HEKSEV
    33    35     1
SMALL
NO_CHARGES
****
Generated from CSD

@<TRIPOS>ATOM
      1 O1         2.3437   14.8670    7.9148 O.3       1 RES1    0.0000
      2 O2         6.0976   11.4706    4.1178 O.2       1 RES1    0.0000
      3 O3         4.7636   11.0741    2.4842 O.2       1 RES1    0.0000
      4 O4         3.4628   13.2303    1.7381 O.3       1 RES1    0.0000
      5 N1         5.0800   11.7108    3.4734 N.pl3     1 RES1    0.0000
      6 C1         3.5195   15.6639    7.8568 C.3       1 RES1    0.0000
      7 C2         3.5156   14.3279    7.3241 C.3       1 RES1    0.0000
      8 C3         3.4746   14.0760    5.8347 C.ar      1 RES1    0.0000
      9 C4         2.6718   14.8299    4.9784 C.ar      1 RES1    0.0000
     10 C5         2.6269   14.5643    3.6091 C.ar      1 RES1    0.0000
     11 C6         3.3984   13.5467    3.0565 C.ar      1 RES1    0.0000
     12 C7         4.2070   12.8065    3.9312 C.ar      1 RES1    0.0000
     13 C8         4.2441   13.0662    5.3062 C.ar      1 RES1    0.0000
     14 C9         2.5957   13.9471    0.8210 C.3       1 RES1    0.0000
     15 C10        2.8300   13.3533   -0.5624 C.ar      1 RES1    0.0000
     16 C11        2.6562   14.1580   -1.6660 C.ar      1 RES1    0.0000
     17 C12        2.8339   13.6463   -2.9378 C.ar      1 RES1    0.0000
     18 C13        3.1992   12.3299   -3.1159 C.ar      1 RES1    0.0000
     19 C14        3.3906   11.4979   -2.0250 C.ar      1 RES1    0.0000
     20 C15        3.1738   12.0272   -0.7277 C.ar      1 RES1    0.0000
     21 H1         3.9833   15.8258    8.6817 H         1 RES1    0.0000
     22 H2         3.5466   16.3857    7.2250 H         1 RES1    0.0000
     23 H3         3.9701   13.6643    7.8474 H         1 RES1    0.0000
     24 H4         2.1375   15.5352    5.3494 H         1 RES1    0.0000
     25 H5         2.0625   15.0889    3.0379 H         1 RES1    0.0000
     26 H6         4.8013   12.5362    5.8802 H         1 RES1    0.0000
     27 H7         2.8048   14.8834    0.8186 H         1 RES1    0.0000
     28 H8         1.6779   13.8317    1.0754 H         1 RES1    0.0000
     29 H9         2.4054   15.0748   -1.5379 H         1 RES1    0.0000
     30 H10        2.7004   14.2070   -3.7056 H         1 RES1    0.0000
     31 H11        3.3281   11.9823   -4.0012 H         1 RES1    0.0000
     32 H12        3.6697   10.5880   -2.1448 H         1 RES1    0.0000
     33 H13        3.2545   11.4602    0.0417 H         1 RES1    0.0000
@<TRIPOS>BOND
     1    1    6 1
     2    2    5 2
     3    3    5 2
     4    4   11 1
     5    5   12 1
     6    6    7 1
     7    7    1 1
     8    8    7 1
     9    9    8 ar
    10   10    9 ar
    11   11   10 ar
    12   12   11 ar
    13   13    8 ar
    14   14    4 1
    15   15   14 1
    16   16   15 ar
    17   17   16 ar
    18   18   17 ar
    19   19   18 ar
    20   20   15 ar
    21   21    6 1
    22   22    6 1
    23   23    7 1
    24   24    9 1
    25   25   10 1
    26   26   13 1
    27   27   14 1
    28   28   14 1
    29   29   16 1
    30   30   17 1
    31   31   18 1
    32   32   19 1
    33   33   20 1
    34   12   13 ar
    35   19   20 ar
@<TRIPOS>SUBSTRUCTURE
     1 RES1 1

@<TRIPOS>CRYSIN
  19.5310   19.5310   14.1310  90.0000  90.0000  90.0000  88 1

