# MOL2 file generated by ConQuest
# Please check atom types

@<TRIPOS>MOLECULE
HEKSOI
    73    75     1
SMALL
NO_CHARGES
****
Generated from CSD

@<TRIPOS>ATOM
      1 O1         7.5909    9.9088    6.3204 O.2       1 RES1    0.0000
      2 O2         7.1046    9.5079   11.7878 O.2       1 RES1    0.0000
      3 O3         5.0852   10.2261   12.0739 O.2       1 RES1    0.0000
      4 N1         5.3860   10.1732    5.8867 N.am      1 RES1    0.0000
      5 N2         5.1395   11.9445    7.8896 N.ar      1 RES1    0.0000
      6 N3         5.9187    9.5901   11.4514 N.pl3     1 RES1    0.0000
      7 C1         6.5000   10.4175    6.5837 C.2       1 RES1    0.0000
      8 C2         6.3403   11.3697    7.7382 C.ar      1 RES1    0.0000
      9 C3         4.2532    9.1555    9.7202 C.ar      1 RES1    0.0000
     10 C4         7.4213   11.6389    8.5525 C.ar      1 RES1    0.0000
     11 C5         6.0551    7.5412    8.3546 C.ar      1 RES1    0.0000
     12 C6         6.4131    8.0850    9.5760 C.ar      1 RES1    0.0000
     13 C7         3.9206    8.6146    8.4879 C.ar      1 RES1    0.0000
     14 C8         4.8158    7.8407    7.7739 C.ar      1 RES1    0.0000
     15 C9         7.2574   12.5125    9.6103 C.ar      1 RES1    0.0000
     16 C10        5.0090   12.7955    8.9021 C.ar      1 RES1    0.0000
     17 C11        6.0327   13.1089    9.7828 C.ar      1 RES1    0.0000
     18 C12        4.0154    8.6363    2.6816 C.3       1 RES1    0.0000
     19 C13        5.3377    9.2123    4.7792 C.3       1 RES1    0.0000
     20 C14        4.4628    7.3494    6.3808 C.3       1 RES1    0.0000
     21 C15        2.6179    8.4341    2.1392 C.3       1 RES1    0.0000
     22 C16        5.4981    7.7774    5.3320 C.3       1 RES1    0.0000
     23 C17        4.0808    9.4417    3.9714 C.3       1 RES1    0.0000
     24 C18        2.4510    3.4342    3.8365 C.3       1 RES1    0.0000
     25 C19        2.5760    7.5612    0.9046 C.3       1 RES1    0.0000
     26 C20        4.2196    5.8586    6.3636 C.3       1 RES1    0.0000
     27 C21        3.5212    5.3501    5.0949 C.3       1 RES1    0.0000
     28 C22        1.0708    4.7115    1.2222 C.3       1 RES1    0.0000
     29 C23        1.1667    7.1204    0.4644 C.3       1 RES1    0.0000
     30 C24        0.5004    3.7123    2.2462 C.3       1 RES1    0.0000
     31 C25        0.5253    6.1009    1.3625 C.3       1 RES1    0.0000
     32 C26        1.0284    3.9048    3.6523 C.3       1 RES1    0.0000
     33 C27        3.1314    3.9203    5.1337 C.3       1 RES1    0.0000
     34 C28        5.5102    8.9055   10.2242 C.ar      1 RES1    0.0000
     35 H1         4.6509   10.6067    6.1012 H         1 RES1    0.0000
     36 H2         3.6300    9.6836   10.2047 H         1 RES1    0.0000
     37 H3         8.2633   11.2307    8.3885 H         1 RES1    0.0000
     38 H4         6.6558    6.9583    7.9054 H         1 RES1    0.0000
     39 H5         7.2615    7.8985    9.9602 H         1 RES1    0.0000
     40 H6         3.0580    8.7804    8.1259 H         1 RES1    0.0000
     41 H7         7.9757   12.6968   10.2045 H         1 RES1    0.0000
     42 H8         4.1651   13.2128    9.0299 H         1 RES1    0.0000
     43 H9         5.8892   13.7239   10.4922 H         1 RES1    0.0000
     44 H10        4.5585    9.0969    1.9933 H         1 RES1    0.0000
     45 H11        4.4246    7.7493    2.8413 H         1 RES1    0.0000
     46 H12        6.1192    9.3968    4.1831 H         1 RES1    0.0000
     47 H13        3.5994    7.7862    6.1298 H         1 RES1    0.0000
     48 H14        2.0571    8.0217    2.8429 H         1 RES1    0.0000
     49 H15        2.2273    9.3173    1.9211 H         1 RES1    0.0000
     50 H16        5.4531    7.1434    4.5727 H         1 RES1    0.0000
     51 H17        6.3998    7.6963    5.7328 H         1 RES1    0.0000
     52 H18        4.0173   10.4041    3.7489 H         1 RES1    0.0000
     53 H19        3.2971    9.2105    4.5303 H         1 RES1    0.0000
     54 H20        2.9878    3.7432    3.0642 H         1 RES1    0.0000
     55 H21        2.4593    2.4440    3.8283 H         1 RES1    0.0000
     56 H22        3.1202    6.7517    1.0736 H         1 RES1    0.0000
     57 H23        2.9989    8.0537    0.1570 H         1 RES1    0.0000
     58 H24        3.6666    5.6175    7.1487 H         1 RES1    0.0000
     59 H25        5.0890    5.3934    6.4556 H         1 RES1    0.0000
     60 H26        2.7092    5.8949    4.9417 H         1 RES1    0.0000
     61 H27        4.1259    5.4916    4.3236 H         1 RES1    0.0000
     62 H28        2.0550    4.7435    1.3228 H         1 RES1    0.0000
     63 H29        0.8723    4.3814    0.3102 H         1 RES1    0.0000
     64 H30        0.5829    7.9187    0.4247 H         1 RES1    0.0000
     65 H31        1.2233    6.7452   -0.4500 H         1 RES1    0.0000
     66 H32       -0.4858    3.7995    2.2613 H         1 RES1    0.0000
     67 H33        0.7155    2.7927    1.9481 H         1 RES1    0.0000
     68 H34        0.6394    6.3914    2.3019 H         1 RES1    0.0000
     69 H35       -0.4462    6.0792    1.1726 H         1 RES1    0.0000
     70 H36        0.9773    4.8658    3.8836 H         1 RES1    0.0000
     71 H37        0.4449    3.4122    4.2827 H         1 RES1    0.0000
     72 H38        2.5124    3.7773    5.8930 H         1 RES1    0.0000
     73 H39        3.9395    3.3718    5.2965 H         1 RES1    0.0000
@<TRIPOS>BOND
     1    1    7 2
     2    2    6 2
     3    3    6 2
     4    4    7 1
     5    5    8 ar
     6    6   34 1
     7    7    8 1
     8    8   10 ar
     9    9   13 ar
    10   10   15 ar
    11   11   12 ar
    12   12   34 ar
    13   13   14 ar
    14   14   11 ar
    15   15   17 ar
    16   16    5 ar
    17   17   16 ar
    18   18   21 1
    19   19    4 1
    20   20   14 1
    21   21   25 1
    22   22   19 1
    23   23   18 1
    24   24   32 1
    25   25   29 1
    26   26   20 1
    27   27   26 1
    28   28   30 1
    29   29   31 1
    30   30   32 1
    31   31   28 1
    32   32   70 1
    33   33   24 1
    34   34    9 ar
    35   35    4 1
    36   36    9 1
    37   37   10 1
    38   38   11 1
    39   39   12 1
    40   40   13 1
    41   41   15 1
    42   42   16 1
    43   43   17 1
    44   44   18 1
    45   45   18 1
    46   46   19 1
    47   47   20 1
    48   48   21 1
    49   49   21 1
    50   50   22 1
    51   51   22 1
    52   52   23 1
    53   53   23 1
    54   54   24 1
    55   55   24 1
    56   56   25 1
    57   57   25 1
    58   58   26 1
    59   59   26 1
    60   60   27 1
    61   61   27 1
    62   62   28 1
    63   63   28 1
    64   64   29 1
    65   65   29 1
    66   66   30 1
    67   67   30 1
    68   68   31 1
    69   69   31 1
    70   71   32 1
    71   72   33 1
    72   73   33 1
    73   19   23 1
    74   20   22 1
    75   27   33 1
@<TRIPOS>SUBSTRUCTURE
     1 RES1 1

@<TRIPOS>CRYSIN
   5.9012    9.2231   23.3561  96.0520  90.8060  95.5410   2 1

