# MOL2 file generated by ConQuest
# Please check atom types

@<TRIPOS>MOLECULE
HELBEF
    23    20     2
SMALL
NO_CHARGES
****
Generated from CSD

@<TRIPOS>ATOM
      1 C1        -0.5920   -2.6778    1.0551 C.ar      1 RES1    0.0000
      2 C2         0.6721   -3.2150    0.8284 C.ar      1 RES1    0.0000
      3 C3         0.8396   -4.5614    0.5616 C.ar      1 RES1    0.0000
      4 C4        -0.2593   -5.3940    0.4996 C.ar      1 RES1    0.0000
      5 C5        -1.5195   -4.8937    0.7453 C.ar      1 RES1    0.0000
      6 C6        -1.6813   -3.5407    1.0006 C.ar      1 RES1    0.0000
      7 C7        -0.7718   -1.2358    1.3539 C.2       1 RES1    0.0000
      8 C8        -1.9878   -0.5153    0.8849 C.3       1 RES1    0.0000
      9 N1         0.1745   -0.6685    2.0101 N.2       1 RES1    0.0000
     10 O1        -0.0476    0.7107    2.2047 O.3       1 RES1    0.0000
     11 O2        -0.0532   -6.7195    0.1688 O.3       1 RES1    0.0000
     12 H1         1.4257   -2.6087    0.8760 H         1 RES1    0.0000
     13 H2         1.6958   -4.9194    0.3968 H         1 RES1    0.0000
     14 H3        -2.3047   -5.5017    0.7004 H         1 RES1    0.0000
     15 H4        -2.5957   -3.1910    1.1558 H         1 RES1    0.0000
     16 H5        -2.2660   -0.8365   -0.0014 H         1 RES1    0.0000
     17 H6        -2.6866   -0.6766    1.4662 H         1 RES1    0.0000
     18 H7        -1.7684    0.4797    0.7998 H         1 RES1    0.0000
     19 H8        -2.3010    0.1700    1.6010 Du        2 SUP2    0.0000
     20 H9        -1.8295    0.0488    0.0708 Du        2 SUP2    0.0000
     21 H10       -2.7541   -1.1983    0.5711 Du        2 SUP2    0.0000
     22 H11        0.7307    0.9997    2.6029 H         1 RES1    0.0000
     23 H12       -0.8134   -7.0568   -0.3928 H         1 RES1    0.0000
@<TRIPOS>BOND
     1    1    2 ar
     2    2    3 ar
     3    3    4 ar
     4    4    5 ar
     5    5    6 ar
     6    6    1 ar
     7    7    1 1
     8    8    7 1
     9    9    7 2
    10   10    9 1
    11   11    4 1
    12   12    2 1
    13   13    3 1
    14   14    5 1
    15   15    6 1
    16   16    8 1
    17   17    8 1
    18   18    8 1
    19   22   10 1
    20   23   11 1
@<TRIPOS>SUBSTRUCTURE
     1 RES1 1
     2 SUP2 19

@<TRIPOS>CRYSIN
   6.6640   16.8300    7.1530  90.0000 107.8980  90.0000 231 1

