# MOL2 file generated by ConQuest
# Please check atom types

@<TRIPOS>MOLECULE
HELWAW
    44    47     1
SMALL
NO_CHARGES
****
Generated from CSD

@<TRIPOS>ATOM
      1 O1         2.1001    3.7980    1.8100 O.3       1 RES1    0.0000
      2 C1         1.3863    4.5502    0.8389 C.3       1 RES1    0.0000
      3 O2         0.5853    5.5303    1.4389 O.3       1 RES1    0.0000
      4 C2        -0.3965    4.9559    2.2981 C.3       1 RES1    0.0000
      5 O3         0.9141    4.9703    4.2556 O.3       1 RES1    0.0000
      6 C3         1.6818    4.2685    5.2420 C.3       1 RES1    0.0000
      7 O4         2.6676    3.4698    4.6370 O.3       1 RES1    0.0000
      8 C4         2.0720    2.4691    3.7930 C.3       1 RES1    0.0000
      9 C5         1.2297    3.1060    2.7151 C.3       1 RES1    0.0000
     10 C6         0.2364    4.0975    3.3455 C.3       1 RES1    0.0000
     11 C7         2.4438    5.2044   -0.0407 C.ar      1 RES1    0.0000
     12 C8         2.9459    6.4426    0.3407 C.ar      1 RES1    0.0000
     13 C9         4.0189    6.9883   -0.3610 C.ar      1 RES1    0.0000
     14 C10        4.5560    6.2860   -1.4287 C.ar      1 RES1    0.0000
     15 C11        4.0510    5.0839   -1.7948 C.ar      1 RES1    0.0000
     16 C12        2.9614    4.5359   -1.0931 C.ar      1 RES1    0.0000
     17 N1         5.7168    6.8558   -2.0999 N.pl3     1 RES1    0.0000
     18 O5         6.1127    7.9517   -1.7846 O.2       1 RES1    0.0000
     19 O6         6.2412    6.1735   -2.9896 O.2       1 RES1    0.0000
     20 C13        2.3302    5.3019    6.0708 C.ar      1 RES1    0.0000
     21 C14        1.6606    5.8602    7.1893 C.ar      1 RES1    0.0000
     22 C15        2.1879    6.9080    7.8707 C.ar      1 RES1    0.0000
     23 C16        3.4239    7.4273    7.4792 C.ar      1 RES1    0.0000
     24 C17        4.1268    6.8822    6.4318 C.ar      1 RES1    0.0000
     25 C18        3.5874    5.8246    5.7606 C.ar      1 RES1    0.0000
     26 N2         3.9678    8.5892    8.1808 N.pl3     1 RES1    0.0000
     27 O7         3.3108    9.1320    9.0401 O.2       1 RES1    0.0000
     28 O8         5.0925    8.9782    7.8249 O.2       1 RES1    0.0000
     29 H1         0.8297    3.9518    0.2949 H         1 RES1    0.0000
     30 H2        -1.0128    4.4223    1.7745 H         1 RES1    0.0000
     31 H3        -0.9026    5.6634    2.7303 H         1 RES1    0.0000
     32 H4         1.0925    3.7142    5.7962 H         1 RES1    0.0000
     33 H5         1.5183    1.8803    4.3268 H         1 RES1    0.0000
     34 H6         2.7703    1.9343    3.3811 H         1 RES1    0.0000
     35 H7         0.7368    2.4111    2.2270 H         1 RES1    0.0000
     36 H8        -0.4590    3.6017    3.8235 H         1 RES1    0.0000
     37 H9         2.5683    6.9040    1.0525 H         1 RES1    0.0000
     38 H10        4.3706    7.8134   -0.1169 H         1 RES1    0.0000
     39 H11        4.4240    4.6208   -2.5117 H         1 RES1    0.0000
     40 H12        2.6010    3.7188   -1.3525 H         1 RES1    0.0000
     41 H13        0.8458    5.5022    7.4588 H         1 RES1    0.0000
     42 H14        1.7294    7.2781    8.5876 H         1 RES1    0.0000
     43 H15        4.9536    7.2282    6.1826 H         1 RES1    0.0000
     44 H16        4.0757    5.4362    5.0742 H         1 RES1    0.0000
@<TRIPOS>BOND
     1    1    2 1
     2    2    3 1
     3    3    4 1
     4    4   10 1
     5    5    6 1
     6    6    7 1
     7    7    8 1
     8    8    9 1
     9    9    1 1
    10   10    5 1
    11   11    2 1
    12   12   11 ar
    13   13   12 ar
    14   14   13 ar
    15   15   14 ar
    16   16   11 ar
    17   17   14 1
    18   18   17 2
    19   19   17 2
    20   20    6 1
    21   21   20 ar
    22   22   21 ar
    23   23   22 ar
    24   24   23 ar
    25   25   20 ar
    26   26   23 1
    27   27   26 2
    28   28   26 2
    29   29    2 1
    30   30    4 1
    31   31    4 1
    32   32    6 1
    33   33    8 1
    34   34    8 1
    35   35    9 1
    36   36   10 1
    37   37   12 1
    38   38   13 1
    39   39   15 1
    40   40   16 1
    41   41   21 1
    42   42   22 1
    43   43   24 1
    44   44   25 1
    45    9   10 1
    46   15   16 ar
    47   24   25 ar
@<TRIPOS>SUBSTRUCTURE
     1 RES1 1

@<TRIPOS>CRYSIN
   5.7380    5.7380   50.8440  90.0000  90.0000  90.0000  76 1

