# MOL2 file generated by ConQuest
# Please check atom types

@<TRIPOS>MOLECULE
HELZUW
    30    32     1
SMALL
NO_CHARGES
****
Generated from CSD

@<TRIPOS>ATOM
      1 O1         4.6543    5.4862    9.4102 O.2       1 RES1    0.0000
      2 O2         4.5853    3.4109    8.8461 O.2       1 RES1    0.0000
      3 N1         0.4751    7.3009    5.2582 N.3       1 RES1    0.0000
      4 N2         1.2737    7.6002    6.2972 N.2       1 RES1    0.0000
      5 N3         4.2301    4.5736    8.7123 N.pl3     1 RES1    0.0000
      6 C1         1.8834    6.4280    6.5675 C.2       1 RES1    0.0000
      7 C2         2.8236    6.1674    7.5748 C.2       1 RES1    0.0000
      8 H1         3.1395    6.8489    8.1564 H         1 RES1    0.0000
      9 C3         3.2562    4.8848    7.6700 C.2       1 RES1    0.0000
     10 C4         2.8250    3.8308    6.8334 C.2       1 RES1    0.0000
     11 H2         3.1563    2.9503    6.9654 H         1 RES1    0.0000
     12 C5         1.9317    4.0839    5.8367 C.2       1 RES1    0.0000
     13 H3         1.6440    3.3906    5.2543 H         1 RES1    0.0000
     14 C6         1.4445    5.3950    5.6897 C.2       1 RES1    0.0000
     15 C7         0.5332    6.0261    4.8563 C.2       1 RES1    0.0000
     16 H4         0.0470    5.6315    4.1418 H         1 RES1    0.0000
     17 C8        -0.3307    8.3686    4.6673 C.3       1 RES1    0.0000
     18 H5        -0.7365    8.9084    5.3912 H         1 RES1    0.0000
     19 H6        -1.0653    7.9673    4.1387 H         1 RES1    0.0000
     20 C9         0.4840    9.2666    3.7786 C.ar      1 RES1    0.0000
     21 C10        0.4377    9.1262    2.4062 C.ar      1 RES1    0.0000
     22 H7        -0.0997    8.4456    2.0184 H         1 RES1    0.0000
     23 C11        1.1699    9.9718    1.5934 C.ar      1 RES1    0.0000
     24 H8         1.1250    9.8783    0.6490 H         1 RES1    0.0000
     25 C12        1.9644   10.9496    2.1506 C.ar      1 RES1    0.0000
     26 H9         2.4702   11.5271    1.5908 H         1 RES1    0.0000
     27 C13        2.0257   11.0896    3.5198 C.ar      1 RES1    0.0000
     28 H10        2.5764   11.7611    3.9046 H         1 RES1    0.0000
     29 C14        1.2868   10.2547    4.3313 C.ar      1 RES1    0.0000
     30 H11        1.3273   10.3565    5.2750 H         1 RES1    0.0000
@<TRIPOS>BOND
     1    1    5 2
     2    2    5 2
     3    3    4 1
     4    4    6 2
     5    5    9 1
     6    6    7 1
     7    7    8 1
     8    9    7 2
     9   10    9 1
    10   11   10 1
    11   12   10 2
    12   13   12 1
    13   14    6 1
    14   15    3 1
    15   16   15 1
    16   17    3 1
    17   18   17 1
    18   19   17 1
    19   20   17 1
    20   21   20 ar
    21   22   21 1
    22   23   21 ar
    23   24   23 1
    24   25   23 ar
    25   26   25 1
    26   27   25 ar
    27   28   27 1
    28   29   20 ar
    29   30   29 1
    30   12   14 1
    31   14   15 2
    32   27   29 ar
@<TRIPOS>SUBSTRUCTURE
     1 RES1 1

@<TRIPOS>CRYSIN
   4.4890   19.7700   13.3080  90.0000  93.6080  90.0000 231 1

