# MOL2 file generated by ConQuest
# Please check atom types

@<TRIPOS>MOLECULE
HEMCEK
    37    38     1
SMALL
NO_CHARGES
****
Generated from CSD

@<TRIPOS>ATOM
      1 O1         7.8889    2.4043    0.1353 O.2       1 RES1    0.0000
      2 N1         7.0012    1.9341    0.8737 N.2       1 RES1    0.0000
      3 C1         6.0035    2.8242    1.2767 C.ar      1 RES1    0.0000
      4 C2         5.9653    4.1889    0.9151 C.ar      1 RES1    0.0000
      5 H1         6.6417    4.5606    0.3616 H         1 RES1    0.0000
      6 C3         4.9400    4.9661    1.3754 C.ar      1 RES1    0.0000
      7 C4         3.9162    4.4211    2.2172 C.ar      1 RES1    0.0000
      8 C5         3.9862    3.0660    2.5644 C.ar      1 RES1    0.0000
      9 H2         3.3189    2.6865    3.1242 H         1 RES1    0.0000
     10 C6         5.0196    2.2800    2.0970 C.ar      1 RES1    0.0000
     11 H3         5.0598    1.3615    2.3360 H         1 RES1    0.0000
     12 O2         4.7561    6.2956    1.1044 O.3       1 RES1    0.0000
     13 C7         5.7566    6.9273    0.2897 C.3       1 RES1    0.0000
     14 H4         5.5079    7.8626    0.1341 H         1 RES1    0.0000
     15 H5         5.8222    6.4590   -0.5688 H         1 RES1    0.0000
     16 H6         6.6223    6.8915    0.7475 H         1 RES1    0.0000
     17 N2         2.9100    5.2352    2.6149 N.pl3     1 RES1    0.0000
     18 H7         2.9758    6.0654    2.4356 H         1 RES1    0.0000
     19 C8         1.8678    4.8183    3.5085 C.ar      1 RES1    0.0000
     20 C9         2.1497    4.6831    4.8691 C.ar      1 RES1    0.0000
     21 H8         3.0185    4.8862    5.1962 H         1 RES1    0.0000
     22 C10        1.1674    4.2549    5.7428 C.ar      1 RES1    0.0000
     23 C11       -0.1205    3.9744    5.2476 C.ar      1 RES1    0.0000
     24 C12       -0.3928    4.1223    3.9081 C.ar      1 RES1    0.0000
     25 H9        -1.2662    3.9418    3.5813 H         1 RES1    0.0000
     26 C13        0.6131    4.5380    3.0216 C.ar      1 RES1    0.0000
     27 H10        0.4281    4.6246    2.0943 H         1 RES1    0.0000
     28 O3         1.3393    4.0611    7.0914 O.3       1 RES1    0.0000
     29 C14        2.6558    4.2860    7.6080 C.3       1 RES1    0.0000
     30 H11        2.6701    4.0803    8.5662 H         1 RES1    0.0000
     31 H12        2.9042    5.2239    7.4713 H         1 RES1    0.0000
     32 H13        3.2934    3.7078    7.1402 H         1 RES1    0.0000
     33 O4        -1.0252    3.5497    6.1915 O.3       1 RES1    0.0000
     34 C15       -2.2709    3.0477    5.7290 C.3       1 RES1    0.0000
     35 H14       -2.7729    2.6751    6.4840 H         1 RES1    0.0000
     36 H15       -2.1130    2.3463    5.0621 H         1 RES1    0.0000
     37 H16       -2.7858    3.7758    5.3221 H         1 RES1    0.0000
@<TRIPOS>BOND
     1    1    2 2
     2    2    3 1
     3    3    4 ar
     4    4    5 1
     5    6    4 ar
     6    7    6 ar
     7    8    7 ar
     8    9    8 1
     9   10    3 ar
    10   11   10 1
    11   12    6 1
    12   13   12 1
    13   14   13 1
    14   15   13 1
    15   16   13 1
    16   17    7 1
    17   18   17 1
    18   19   17 1
    19   20   19 ar
    20   21   20 1
    21   22   20 ar
    22   23   22 ar
    23   24   23 ar
    24   25   24 1
    25   26   19 ar
    26   27   26 1
    27   28   22 1
    28   29   28 1
    29   30   29 1
    30   31   29 1
    31   32   29 1
    32   33   23 1
    33   34   33 1
    34   35   34 1
    35   36   34 1
    36   37   34 1
    37    8   10 ar
    38   24   26 ar
@<TRIPOS>SUBSTRUCTURE
     1 RES1 1

@<TRIPOS>CRYSIN
   8.4029    8.0991   20.3727  90.0000  94.3720  90.0000 231 1

