# MOL2 file generated by ConQuest
# Please check atom types

@<TRIPOS>MOLECULE
HEMXEF
    40    42     1
SMALL
NO_CHARGES
****
Generated from CSD

@<TRIPOS>ATOM
      1 C1         0.3672   13.4713    4.3815 C.ar      1 RES1    0.0000
      2 C2         1.3907   13.2274    5.2677 C.ar      1 RES1    0.0000
      3 H1         2.1577   12.7850    4.9831 H         1 RES1    0.0000
      4 C3         1.2796   13.6308    6.5544 C.ar      1 RES1    0.0000
      5 H2         1.9738   13.4577    7.1474 H         1 RES1    0.0000
      6 C4         0.1803   14.2809    6.9923 C.ar      1 RES1    0.0000
      7 H3         0.1177   14.5383    7.8853 H         1 RES1    0.0000
      8 C5        -0.8473   14.5654    6.1232 C.ar      1 RES1    0.0000
      9 H4        -1.6001   15.0244    6.4163 H         1 RES1    0.0000
     10 C6        -0.7427   14.1530    4.7956 C.ar      1 RES1    0.0000
     11 H5        -1.4262   14.3411    4.1940 H         1 RES1    0.0000
     12 C7        -0.4169   13.3554    2.0502 C.2       1 RES1    0.0000
     13 C8        -0.4642   14.5925    1.5474 C.2       1 RES1    0.0000
     14 H6        -1.1731   14.7355    0.9629 H         1 RES1    0.0000
     15 C9         0.3920   15.7634    1.7417 C.ar      1 RES1    0.0000
     16 C10        1.6261   15.7724    2.3791 C.ar      1 RES1    0.0000
     17 H7         1.9448   14.9868    2.7625 H         1 RES1    0.0000
     18 C11        2.3841   16.9102    2.4575 C.ar      1 RES1    0.0000
     19 H8         3.2167   16.8891    2.8716 H         1 RES1    0.0000
     20 C12        1.9058   18.0826    1.9206 C.ar      1 RES1    0.0000
     21 H9         2.4101   18.8607    1.9820 H         1 RES1    0.0000
     22 C13        0.6971   18.1036    1.3020 C.ar      1 RES1    0.0000
     23 H10        0.3761   18.8983    0.9390 H         1 RES1    0.0000
     24 C14       -0.0497   16.9613    1.2083 C.ar      1 RES1    0.0000
     25 H11       -0.8722   16.9899    0.7754 H         1 RES1    0.0000
     26 C15       -1.3600   12.2808    1.7195 C.2       1 RES1    0.0000
     27 C16       -2.4297   12.5562    0.7124 C.3       1 RES1    0.0000
     28 H12       -2.3469   13.4592    0.3954 H         1 RES1    0.0000
     29 H13       -3.2906   12.4373    1.1197 H         1 RES1    0.0000
     30 H14       -2.3392   11.9482   -0.0256 H         1 RES1    0.0000
     31 C17       -1.2382   11.0964    2.3160 C.2       1 RES1    0.0000
     32 C18       -2.1813    9.9435    2.1609 C.3       1 RES1    0.0000
     33 H15       -1.8756    9.2061    2.6943 H         1 RES1    0.0000
     34 H16       -2.2144    9.6787    1.2390 H         1 RES1    0.0000
     35 H17       -3.0582   10.2054    2.4506 H         1 RES1    0.0000
     36 C19       -0.0715   10.8315    3.2090 C.3       1 RES1    0.0000
     37 H18       -0.3500   10.9278    4.1327 H         1 RES1    0.0000
     38 H19        0.2253    9.9180    3.0812 H         1 RES1    0.0000
     39 N1         0.5665   13.0646    3.0384 N.3       1 RES1    0.0000
     40 O1         1.0200   11.7191    2.9537 O.3       1 RES1    0.0000
@<TRIPOS>BOND
     1    1    2 ar
     2    2    3 1
     3    4    2 ar
     4    5    4 1
     5    6    4 ar
     6    7    6 1
     7    8    6 ar
     8    9    8 1
     9   10    1 ar
    10   11   10 1
    11   12   13 2
    12   13   14 1
    13   15   13 1
    14   16   15 ar
    15   17   16 1
    16   18   16 ar
    17   19   18 1
    18   20   18 ar
    19   21   20 1
    20   22   20 ar
    21   23   22 1
    22   24   15 ar
    23   25   24 1
    24   26   12 1
    25   27   26 1
    26   28   27 1
    27   29   27 1
    28   30   27 1
    29   31   26 2
    30   32   31 1
    31   33   32 1
    32   34   32 1
    33   35   32 1
    34   36   31 1
    35   37   36 1
    36   38   36 1
    37   39    1 1
    38   40   36 1
    39    8   10 ar
    40   12   39 1
    41   22   24 ar
    42   39   40 1
@<TRIPOS>SUBSTRUCTURE
     1 RES1 1

@<TRIPOS>CRYSIN
   5.9130   15.0500   17.0420  90.0000  90.0000  90.0000  19 1

