# MOL2 file generated by ConQuest
# Please check atom types

@<TRIPOS>MOLECULE
HENCEJ
    31    31     1
SMALL
USER_CHARGES
****
Generated from CSD

@<TRIPOS>ATOM
      1 O1         2.0771    0.2861   -5.8677 O.2       1 RES1   -1.0000
      2 O2         1.1443    1.0535    0.1793 O.2       1 RES1    0.0000
      3 O3         2.7723    2.4420   -0.1404 O.2       1 RES1    0.0000
      4 N1         2.0719    0.6011   -4.5910 N.pl3     1 RES1    1.0000
      5 N2         1.9728    1.6054   -0.5382 N.pl3     1 RES1    0.0000
      6 N3         0.5059   -1.0613   -4.3686 N.3       1 RES1    0.0000
      7 C1         1.2353   -0.1199   -3.7595 C.ar      1 RES1    0.0000
      8 C2         1.2046    0.2144   -2.3989 C.ar      1 RES1    0.0000
      9 H1         0.6449   -0.2584   -1.7939 H         1 RES1    0.0000
     10 C3         2.0019    1.2400   -1.9620 C.ar      1 RES1    0.0000
     11 C4         2.8365    1.9516   -2.8031 C.ar      1 RES1    0.0000
     12 H2         3.3838    2.6518   -2.4673 H         1 RES1    0.0000
     13 C5         2.8552    1.6207   -4.1400 C.ar      1 RES1    0.0000
     14 C6         3.6786    2.3117   -5.1705 C.3       1 RES1    0.0000
     15 H3         3.0910    2.7022   -5.8502 H         1 RES1    0.0000
     16 H4         4.2825    1.6658   -5.5936 H         1 RES1    0.0000
     17 H5         4.2045    3.0220   -4.7467 H         1 RES1    0.0000
     18 C7        -0.2987   -2.0311   -3.6405 C.3       1 RES1    0.0000
     19 H6        -0.9764   -2.4121   -4.2539 H         1 RES1    0.0000
     20 H7        -0.7790   -1.5670   -2.9106 H         1 RES1    0.0000
     21 C8         0.5250   -3.1678   -3.0462 C.3       1 RES1    0.0000
     22 H8         0.9996   -3.6397   -3.7757 H         1 RES1    0.0000
     23 H9         1.2065   -2.7894   -2.4360 H         1 RES1    0.0000
     24 C9        -0.3298   -4.1659   -2.2805 C.3       1 RES1    0.0000
     25 H10       -1.0139   -4.5416   -2.8890 H         1 RES1    0.0000
     26 H11       -0.8012   -3.6951   -1.5481 H         1 RES1    0.0000
     27 C10        0.4963   -5.3040   -1.6930 C.3       1 RES1    0.0000
     28 H12       -0.0902   -5.9076   -1.1903 H         1 RES1    0.0000
     29 H13        1.1784   -4.9368   -1.0927 H         1 RES1    0.0000
     30 H14        0.9312   -5.8001   -2.4179 H         1 RES1    0.0000
     31 H15        0.8037   -1.2765   -5.1153 H         1 RES1    0.0000
@<TRIPOS>BOND
     1    1    4 1
     2    2    5 2
     3    3    5 2
     4    4    7 ar
     5    5   10 1
     6    6    7 1
     7    7    8 ar
     8    8    9 1
     9   10    8 ar
    10   11   10 ar
    11   12   11 1
    12   13    4 ar
    13   14   13 1
    14   15   14 1
    15   16   14 1
    16   17   14 1
    17   18    6 1
    18   19   18 1
    19   20   18 1
    20   21   18 1
    21   22   21 1
    22   23   21 1
    23   24   21 1
    24   25   24 1
    25   26   24 1
    26   27   24 1
    27   28   27 1
    28   29   27 1
    29   30   27 1
    30   31    6 1
    31   11   13 ar
@<TRIPOS>SUBSTRUCTURE
     1 RES1 1

@<TRIPOS>CRYSIN
   4.5250   10.0960   12.3430  77.7200  87.0600  88.4900   2 1

