# MOL2 file generated by ConQuest
# Please check atom types

@<TRIPOS>MOLECULE
HEPFUD
    19    20     1
SMALL
NO_CHARGES
****
Generated from CSD

@<TRIPOS>ATOM
      1 O1         1.4874    1.5898    0.5585 O.2       1 RES1    0.0000
      2 O2        -0.2253    2.2117    3.6855 O.2       1 RES1    0.0000
      3 O3         1.2633    3.3451    2.7908 O.2       1 RES1    0.0000
      4 N1        -0.1317    0.9038   -1.8410 N.2       1 RES1    0.0000
      5 N2        -2.3235    1.3668   -2.1703 N.3       1 RES1    0.0000
      6 N3        -2.5783    2.4811   -0.0802 N.2       1 RES1    0.0000
      7 N4         0.2167    2.6996    2.7141 N.pl3     1 RES1    0.0000
      8 N5        -0.5504    1.5522   -0.7481 N.am      1 RES1    0.0000
      9 C1        -1.2424    0.8265   -2.6659 C.2       1 RES1    0.0000
     10 C2        -1.8937    1.8452   -0.9326 C.2       1 RES1    0.0000
     11 C3        -1.8667    2.7740    1.1144 C.2       1 RES1    0.0000
     12 C4        -0.5011    2.4627    1.3842 C.2       1 RES1    0.0000
     13 C5         0.2783    1.8672    0.4422 C.2       1 RES1    0.0000
     14 C6        -2.6140    3.5166    2.0996 C.3       1 RES1    0.0000
     15 H1        -3.1398    1.4794   -2.6202 H         1 RES1    0.0000
     16 H2        -1.2682    0.4416   -3.4562 H         1 RES1    0.0000
     17 H3        -2.1301    3.8861    2.7667 H         1 RES1    0.0000
     18 H4        -3.2260    3.0912    2.2668 H         1 RES1    0.0000
     19 H5        -3.0659    4.2246    1.7755 H         1 RES1    0.0000
@<TRIPOS>BOND
     1    1   13 2
     2    2    7 2
     3    3    7 2
     4    4    8 1
     5    5    9 1
     6    6   10 2
     7    7   12 1
     8    8   10 1
     9    9    4 2
    10   10    5 1
    11   11    6 1
    12   12   11 2
    13   13    8 1
    14   14   11 1
    15   15    5 1
    16   16    9 1
    17   17   14 1
    18   18   14 1
    19   19   14 1
    20   12   13 1
@<TRIPOS>SUBSTRUCTURE
     1 RES1 1

@<TRIPOS>CRYSIN
  12.3130    7.3600    8.6190  90.0000  90.0000  90.0000 231 1

