# MOL2 file generated by ConQuest
# Please check atom types

@<TRIPOS>MOLECULE
HEQJUI
    32    34     1
SMALL
NO_CHARGES
****
Generated from CSD

@<TRIPOS>ATOM
      1 O1         2.5999    2.7439    1.3373 O.3       1 RES1    0.0000
      2 O2        -1.3629    6.3298    5.7791 O.2       1 RES1    0.0000
      3 O3        -3.0641    5.1159    5.2327 O.2       1 RES1    0.0000
      4 N1        -1.8786    5.4327    5.1153 N.pl3     1 RES1    0.0000
      5 C1         3.1117    2.0703    0.2480 C.2       1 RES1    0.0000
      6 C2         2.0989    1.6262   -0.5349 C.2       1 RES1    0.0000
      7 C3         2.0871    0.8915   -1.7822 C.2       1 RES1    0.0000
      8 C4         0.9698    0.8562   -2.4954 C.2       1 RES1    0.0000
      9 C5        -0.2544    1.6480   -2.0982 C.3       1 RES1    0.0000
     10 C6        -0.4390    1.7711   -0.5826 C.3       1 RES1    0.0000
     11 C7         0.8730    2.0563    0.0812 C.2       1 RES1    0.0000
     12 C8         1.2099    2.7050    1.2164 C.2       1 RES1    0.0000
     13 C9         0.4588    3.3837    2.2536 C.ar      1 RES1    0.0000
     14 C10        1.0231    4.3861    3.0462 C.ar      1 RES1    0.0000
     15 C11        0.2628    5.0493    3.9837 C.ar      1 RES1    0.0000
     16 C12       -1.0703    4.7156    4.1337 C.ar      1 RES1    0.0000
     17 C13       -1.6540    3.7013    3.3958 C.ar      1 RES1    0.0000
     18 C14       -0.8964    3.0438    2.4619 C.ar      1 RES1    0.0000
     19 C15        4.5931    1.9753    0.1518 C.3       1 RES1    0.0000
     20 H1         2.8669    0.4417   -2.0841 H         1 RES1    0.0000
     21 H2         0.9380    0.3184   -3.2775 H         1 RES1    0.0000
     22 H3        -1.0561    1.2136   -2.4839 H         1 RES1    0.0000
     23 H4        -0.1880    2.5562   -2.4875 H         1 RES1    0.0000
     24 H5        -1.0772    2.5017   -0.3840 H         1 RES1    0.0000
     25 H6        -0.8153    0.9282   -0.2242 H         1 RES1    0.0000
     26 H7         1.9400    4.6119    2.9376 H         1 RES1    0.0000
     27 H8         0.6503    5.7295    4.5221 H         1 RES1    0.0000
     28 H9        -2.5642    3.4654    3.5344 H         1 RES1    0.0000
     29 H10       -1.2887    2.3493    1.9464 H         1 RES1    0.0000
     30 H11        5.0000    2.4267    0.9207 H         1 RES1    0.0000
     31 H12        4.8942    2.4056   -0.6762 H         1 RES1    0.0000
     32 H13        4.8607    1.0328    0.1465 H         1 RES1    0.0000
@<TRIPOS>BOND
     1    1    5 1
     2    2    4 2
     3    3    4 2
     4    4   16 1
     5    5    6 2
     6    6    7 1
     7    7    8 2
     8    8    9 1
     9    9   10 1
    10   10   11 1
    11   11    6 1
    12   12    1 1
    13   13   12 1
    14   14   13 ar
    15   15   14 ar
    16   16   15 ar
    17   17   16 ar
    18   18   13 ar
    19   19    5 1
    20   20    7 1
    21   21    8 1
    22   22    9 1
    23   23    9 1
    24   24   10 1
    25   25   10 1
    26   26   14 1
    27   27   15 1
    28   28   17 1
    29   29   18 1
    30   30   19 1
    31   31   19 1
    32   32   19 1
    33   11   12 2
    34   17   18 ar
@<TRIPOS>SUBSTRUCTURE
     1 RES1 1

@<TRIPOS>CRYSIN
   8.7611    8.9913    9.4145  90.2520 107.8700 117.3270   2 1

