# MOL2 file generated by ConQuest
# Please check atom types

@<TRIPOS>MOLECULE
HEQQAX
    35    37     1
SMALL
NO_CHARGES
****
Generated from CSD

@<TRIPOS>ATOM
      1 O1         8.8491    5.1208    3.6733 O.3       1 RES1    0.0000
      2 H1         8.4669    5.3214    2.9757 H         1 RES1    0.0000
      3 O2         4.9258    3.8673   -1.8682 O.3       1 RES1    0.0000
      4 N1         7.4947    3.6255    1.8788 N.ar      1 RES1    0.0000
      5 N2         5.4719    2.9869   -0.9281 N.2       1 RES1    0.0000
      6 C1         6.8369    2.8805    1.0009 C.ar      1 RES1    0.0000
      7 C2         6.7977    1.4721    1.0680 C.ar      1 RES1    0.0000
      8 H2         6.3148    0.9878    0.4384 H         1 RES1    0.0000
      9 C3         7.4670    0.8307    2.0515 C.ar      1 RES1    0.0000
     10 H3         7.4526   -0.0984    2.0927 H         1 RES1    0.0000
     11 C4         8.1878    1.5665    3.0156 C.ar      1 RES1    0.0000
     12 C5         8.9061    0.9976    4.0882 C.ar      1 RES1    0.0000
     13 H4         8.9418    0.0735    4.1881 H         1 RES1    0.0000
     14 C6         9.5471    1.8086    4.9773 C.ar      1 RES1    0.0000
     15 H5        10.0155    1.4268    5.6845 H         1 RES1    0.0000
     16 C7         9.5184    3.1963    4.8522 C.ar      1 RES1    0.0000
     17 H6         9.9548    3.7271    5.4791 H         1 RES1    0.0000
     18 C8         8.8538    3.7797    3.8136 C.ar      1 RES1    0.0000
     19 C9         8.1575    2.9731    2.8752 C.ar      1 RES1    0.0000
     20 C10        6.1524    3.6131   -0.0626 C.2       1 RES1    0.0000
     21 H7         6.2160    4.5395   -0.1036 H         1 RES1    0.0000
     22 C11        4.0614    3.1246   -2.7537 C.3       1 RES1    0.0000
     23 H8         4.5117    2.3105   -3.0275 H         1 RES1    0.0000
     24 H9         3.8917    3.6524   -3.5489 H         1 RES1    0.0000
     25 C12        2.7599    2.7725   -2.1140 C.ar      1 RES1    0.0000
     26 C13        1.8797    3.7632   -1.7365 C.ar      1 RES1    0.0000
     27 H10        2.1021    4.6561   -1.8686 H         1 RES1    0.0000
     28 C14        0.6547    3.4318   -1.1553 C.ar      1 RES1    0.0000
     29 H11        0.0617    4.1017   -0.8991 H         1 RES1    0.0000
     30 C15        0.3322    2.1193   -0.9642 C.ar      1 RES1    0.0000
     31 H12       -0.4866    1.8941   -0.5839 H         1 RES1    0.0000
     32 C16        1.1975    1.1462   -1.3249 C.ar      1 RES1    0.0000
     33 H13        0.9744    0.2535   -1.1892 H         1 RES1    0.0000
     34 C17        2.4012    1.4700   -1.8882 C.ar      1 RES1    0.0000
     35 H14        2.9898    0.7898   -2.1240 H         1 RES1    0.0000
@<TRIPOS>BOND
     1    1    2 1
     2    3    5 1
     3    4    6 ar
     4    5   20 2
     5    6    7 ar
     6    7    8 1
     7    9    7 ar
     8   10    9 1
     9   11    9 ar
    10   12   11 ar
    11   13   12 1
    12   14   12 ar
    13   15   14 1
    14   16   14 ar
    15   17   16 1
    16   18    1 1
    17   19    4 ar
    18   20    6 1
    19   21   20 1
    20   22    3 1
    21   23   22 1
    22   24   22 1
    23   25   22 1
    24   26   25 ar
    25   27   26 1
    26   28   26 ar
    27   29   28 1
    28   30   28 ar
    29   31   30 1
    30   32   30 ar
    31   33   32 1
    32   34   25 ar
    33   35   34 1
    34   11   19 ar
    35   16   18 ar
    36   18   19 ar
    37   32   34 ar
@<TRIPOS>SUBSTRUCTURE
     1 RES1 1

@<TRIPOS>CRYSIN
  13.7263   11.3149    9.1935  90.0000 103.8030  90.0000  14 1

