# MOL2 file generated by ConQuest
# Please check atom types

@<TRIPOS>MOLECULE
HERBEN
    52    57     1
SMALL
NO_CHARGES
****
Generated from CSD

@<TRIPOS>ATOM
      1 O1         1.1711    7.4139    3.7954 O.3       1 RES1    0.0000
      2 N1         1.0017    6.0582    4.1809 N.2       1 RES1    0.0000
      3 C1         1.6412    5.3118    3.3619 C.2       1 RES1    0.0000
      4 C2         2.3839    6.0694    2.2867 C.3       1 RES1    0.0000
      5 H1         2.1513    5.7106    1.4046 H         1 RES1    0.0000
      6 C3         1.7484    7.4525    2.4727 C.3       1 RES1    0.0000
      7 H2         2.4533    8.1326    2.4513 H         1 RES1    0.0000
      8 C4         3.8839    5.9865    2.5017 C.ar      1 RES1    0.0000
      9 C5         4.5214    6.7568    3.4551 C.ar      1 RES1    0.0000
     10 H3         4.0302    7.3730    3.9490 H         1 RES1    0.0000
     11 C6         5.8722    6.6272    3.6865 C.ar      1 RES1    0.0000
     12 H4         6.2871    7.1528    4.3326 H         1 RES1    0.0000
     13 C7         6.6059    5.7208    2.9634 C.ar      1 RES1    0.0000
     14 H5         7.5168    5.6253    3.1209 H         1 RES1    0.0000
     15 C8         5.9902    4.9539    2.0056 C.ar      1 RES1    0.0000
     16 H6         6.4858    4.3456    1.5063 H         1 RES1    0.0000
     17 C9         4.6296    5.0858    1.7827 C.ar      1 RES1    0.0000
     18 H7         4.2161    4.5590    1.1389 H         1 RES1    0.0000
     19 C10        0.6930    7.8001    1.4370 C.ar      1 RES1    0.0000
     20 C11        1.0655    7.9917    0.1178 C.ar      1 RES1    0.0000
     21 H8         1.9598    7.9062   -0.1221 H         1 RES1    0.0000
     22 C12        0.1351    8.3056   -0.8378 C.ar      1 RES1    0.0000
     23 H9         0.3995    8.4354   -1.7206 H         1 RES1    0.0000
     24 C13       -1.1879    8.4274   -0.4907 C.ar      1 RES1    0.0000
     25 H10       -1.8220    8.6346   -1.1389 H         1 RES1    0.0000
     26 C14       -1.5696    8.2450    0.7960 C.ar      1 RES1    0.0000
     27 H11       -2.4670    8.3247    1.0264 H         1 RES1    0.0000
     28 C15       -0.6334    7.9392    1.7720 C.ar      1 RES1    0.0000
     29 H12       -0.9024    7.8288    2.6559 H         1 RES1    0.0000
     30 C16        1.6734    3.8405    3.5632 C.ar      1 RES1    0.0000
     31 C17        0.8845    3.0116    2.7413 C.ar      1 RES1    0.0000
     32 C18        0.0256    3.5277    1.7335 C.ar      1 RES1    0.0000
     33 H13       -0.0361    4.4476    1.6124 H         1 RES1    0.0000
     34 C19       -0.7098    2.6988    0.9417 C.ar      1 RES1    0.0000
     35 H14       -1.2542    3.0577    0.2786 H         1 RES1    0.0000
     36 C20       -0.6519    1.3052    1.1164 C.ar      1 RES1    0.0000
     37 H15       -1.1610    0.7484    0.5721 H         1 RES1    0.0000
     38 C21        0.1404    0.7731    2.0709 C.ar      1 RES1    0.0000
     39 H16        0.1661   -0.1502    2.1781 H         1 RES1    0.0000
     40 C22        0.9354    1.5941    2.9162 C.ar      1 RES1    0.0000
     41 C23        1.7672    1.0625    3.8976 C.ar      1 RES1    0.0000
     42 H17        1.7934    0.1410    4.0144 H         1 RES1    0.0000
     43 C24        2.5557    1.8588    4.7033 C.ar      1 RES1    0.0000
     44 C25        3.4381    1.3111    5.6793 C.ar      1 RES1    0.0000
     45 H18        3.4733    0.3879    5.7918 H         1 RES1    0.0000
     46 C26        4.2157    2.0929    6.4378 C.ar      1 RES1    0.0000
     47 H19        4.7904    1.7093    7.0613 H         1 RES1    0.0000
     48 C27        4.1710    3.4943    6.2985 C.ar      1 RES1    0.0000
     49 H20        4.7116    4.0285    6.8363 H         1 RES1    0.0000
     50 C28        3.3531    4.0702    5.3964 C.ar      1 RES1    0.0000
     51 H21        3.3324    4.9979    5.3257 H         1 RES1    0.0000
     52 C29        2.5166    3.2823    4.5433 C.ar      1 RES1    0.0000
@<TRIPOS>BOND
     1    1    2 1
     2    2    3 2
     3    3    4 1
     4    4    5 1
     5    6    1 1
     6    7    6 1
     7    8    4 1
     8    9    8 ar
     9   10    9 1
    10   11    9 ar
    11   12   11 1
    12   13   11 ar
    13   14   13 1
    14   15   13 ar
    15   16   15 1
    16   17    8 ar
    17   18   17 1
    18   19    6 1
    19   20   19 ar
    20   21   20 1
    21   22   20 ar
    22   23   22 1
    23   24   22 ar
    24   25   24 1
    25   26   24 ar
    26   27   26 1
    27   28   19 ar
    28   29   28 1
    29   30    3 1
    30   31   30 ar
    31   32   31 ar
    32   33   32 1
    33   34   32 ar
    34   35   34 1
    35   36   34 ar
    36   37   36 1
    37   38   36 ar
    38   39   38 1
    39   40   31 ar
    40   41   40 ar
    41   42   41 1
    42   43   41 ar
    43   44   43 ar
    44   45   44 1
    45   46   44 ar
    46   47   46 1
    47   48   46 ar
    48   49   48 1
    49   50   48 ar
    50   51   50 1
    51   52   30 ar
    52    4    6 1
    53   15   17 ar
    54   26   28 ar
    55   38   40 ar
    56   43   52 ar
    57   50   52 ar
@<TRIPOS>SUBSTRUCTURE
     1 RES1 1

@<TRIPOS>CRYSIN
   9.6853   10.8503   11.6176  67.2680  82.4090  67.6750   2 1

