# MOL2 file generated by ConQuest
# Please check atom types

@<TRIPOS>MOLECULE
HESFAN
    30    31     1
SMALL
NO_CHARGES
****
Generated from CSD

@<TRIPOS>ATOM
      1 O1         2.1392   12.9022    0.5556 O.2       1 RES1    0.0000
      2 O2         2.0886   11.3294   -0.9253 O.2       1 RES1    0.0000
      3 N1         1.9035   11.7503    0.2114 N.pl3     1 RES1    0.0000
      4 C1        -0.2719    8.1767    4.1115 C.ar      1 RES1    0.0000
      5 C2        -1.5877    7.6857    4.0461 C.ar      1 RES1    0.0000
      6 C3        -2.0145    6.8507    5.0682 C.ar      1 RES1    0.0000
      7 H1        -2.9077    6.5288    5.0543 H         1 RES1    0.0000
      8 C4        -1.1808    6.4686    6.1110 C.ar      1 RES1    0.0000
      9 H2        -1.5063    5.8868    6.7870 H         1 RES1    0.0000
     10 C5         0.1246    6.9334    6.1718 C.ar      1 RES1    0.0000
     11 C6         0.5529    7.8054    5.1782 C.ar      1 RES1    0.0000
     12 H3         1.4325    8.1604    5.2251 H         1 RES1    0.0000
     13 C7         0.2857    9.0984    3.0809 C.ar      1 RES1    0.0000
     14 C8         0.4239    8.7068    1.7496 C.ar      1 RES1    0.0000
     15 H4         0.1374    7.8395    1.4858 H         1 RES1    0.0000
     16 C9         0.9722    9.5589    0.8060 C.ar      1 RES1    0.0000
     17 H5         1.0819    9.2816   -0.0961 H         1 RES1    0.0000
     18 C10        1.3545   10.8199    1.2105 C.ar      1 RES1    0.0000
     19 C11        1.2366   11.2472    2.5149 C.ar      1 RES1    0.0000
     20 H6         1.5096   12.1214    2.7663 H         1 RES1    0.0000
     21 C12        0.7116   10.3734    3.4501 C.ar      1 RES1    0.0000
     22 H7         0.6398   10.6458    4.3568 H         1 RES1    0.0000
     23 C13       -2.5245    8.0416    2.9171 C.3       1 RES1    0.0000
     24 H8        -2.3464    7.4605    2.1488 H         1 RES1    0.0000
     25 H9        -2.3841    8.9763    2.6579 H         1 RES1    0.0000
     26 H10       -3.4518    7.9197    3.2101 H         1 RES1    0.0000
     27 C14        1.0629    6.5038    7.2769 C.3       1 RES1    0.0000
     28 H11        0.5477    6.0875    7.9999 H         1 RES1    0.0000
     29 H12        1.5392    7.2867    7.6238 H         1 RES1    0.0000
     30 H13        1.7098    5.8579    6.9239 H         1 RES1    0.0000
@<TRIPOS>BOND
     1    1    3 2
     2    2    3 2
     3    3   18 1
     4    4    5 ar
     5    5    6 ar
     6    6    7 1
     7    8    6 ar
     8    9    8 1
     9   10    8 ar
    10   11    4 ar
    11   12   11 1
    12   13    4 1
    13   14   13 ar
    14   15   14 1
    15   16   14 ar
    16   17   16 1
    17   18   16 ar
    18   19   18 ar
    19   20   19 1
    20   21   13 ar
    21   22   21 1
    22   23    5 1
    23   24   23 1
    24   25   23 1
    25   26   23 1
    26   27   10 1
    27   28   27 1
    28   29   27 1
    29   30   27 1
    30   10   11 ar
    31   19   21 ar
@<TRIPOS>SUBSTRUCTURE
     1 RES1 1

@<TRIPOS>CRYSIN
   6.7173   22.2902    7.8542  90.0000 101.7110  90.0000  14 1

