# MOL2 file generated by ConQuest
# Please check atom types

@<TRIPOS>MOLECULE
HESJIZ
    41    44     1
SMALL
NO_CHARGES
****
Generated from CSD

@<TRIPOS>ATOM
      1 O1         8.7059    5.3468    1.3298 O.2       1 RES1    0.0000
      2 O2        10.7961    4.9689    1.0017 O.2       1 RES1    0.0000
      3 O3        10.5667    0.9166   -0.8505 O.2       1 RES1    0.0000
      4 N1         7.9239    1.7350    0.4002 N.3       1 RES1    0.0000
      5 N2         9.6287    4.7479    0.8018 N.pl3     1 RES1    0.0000
      6 N3        11.1865    1.0830    1.3507 N.am      1 RES1    0.0000
      7 H1        11.9159    0.6275    1.3218 H         1 RES1    0.0000
      8 C1         7.5573    2.2515   -0.9094 C.3       1 RES1    0.0000
      9 H2         6.6050    2.1668   -1.0710 H         1 RES1    0.0000
     10 H3         8.0428    1.8008   -1.6178 H         1 RES1    0.0000
     11 C2         7.9730    3.7109   -0.7917 C.3       1 RES1    0.0000
     12 H4         7.3512    4.1482   -0.1741 H         1 RES1    0.0000
     13 C3         9.3114    3.5841   -0.0857 C.3       1 RES1    0.0000
     14 H5        10.0168    3.5017   -0.7610 H         1 RES1    0.0000
     15 C4         9.2453    2.2539    0.7386 C.3       1 RES1    0.0000
     16 C5         7.7638    0.3026    0.6067 C.3       1 RES1    0.0000
     17 H6         6.8293    0.0856    0.6322 H         1 RES1    0.0000
     18 H7         8.1746    0.0515    1.4385 H         1 RES1    0.0000
     19 H8         8.1843   -0.1727   -0.1132 H         1 RES1    0.0000
     20 C6         7.9713    4.5023   -2.0800 C.ar      1 RES1    0.0000
     21 C7         8.9650    4.3803   -3.0324 C.ar      1 RES1    0.0000
     22 H9         9.6844    3.8123   -2.8734 H         1 RES1    0.0000
     23 C8         8.9089    5.0893   -4.2201 C.ar      1 RES1    0.0000
     24 H10        9.5920    5.0062   -4.8448 H         1 RES1    0.0000
     25 C9         7.8505    5.9093   -4.4720 C.ar      1 RES1    0.0000
     26 H11        7.8069    6.3807   -5.2732 H         1 RES1    0.0000
     27 C10        6.8570    6.0377   -3.5491 C.ar      1 RES1    0.0000
     28 H12        6.1338    6.5954   -3.7250 H         1 RES1    0.0000
     29 C11        6.9173    5.3437   -2.3581 C.ar      1 RES1    0.0000
     30 H13        6.2354    5.4466   -1.7328 H         1 RES1    0.0000
     31 C12       10.4157    1.3381    0.2819 C.2       1 RES1    0.0000
     32 C13       10.6567    1.6487    2.5255 C.ar      1 RES1    0.0000
     33 C14       11.1300    1.5655    3.8177 C.ar      1 RES1    0.0000
     34 H14       11.9271    1.1258    4.0106 H         1 RES1    0.0000
     35 C15       10.3776    2.1589    4.8162 C.ar      1 RES1    0.0000
     36 H15       10.6776    2.1200    5.6964 H         1 RES1    0.0000
     37 C16        9.1978    2.8022    4.5378 C.ar      1 RES1    0.0000
     38 H16        8.7012    3.1769    5.2297 H         1 RES1    0.0000
     39 C17        8.7419    2.8964    3.2334 C.ar      1 RES1    0.0000
     40 H17        7.9430    3.3322    3.0424 H         1 RES1    0.0000
     41 C18        9.4926    2.3331    2.2251 C.ar      1 RES1    0.0000
@<TRIPOS>BOND
     1    1    5 2
     2    2    5 2
     3    3   31 2
     4    4    8 1
     5    5   13 1
     6    6    7 1
     7    8    9 1
     8   10    8 1
     9   11    8 1
    10   12   11 1
    11   13   11 1
    12   14   13 1
    13   15    4 1
    14   16    4 1
    15   17   16 1
    16   18   16 1
    17   19   16 1
    18   20   11 1
    19   21   20 ar
    20   22   21 1
    21   23   21 ar
    22   24   23 1
    23   25   23 ar
    24   26   25 1
    25   27   25 ar
    26   28   27 1
    27   29   20 ar
    28   30   29 1
    29   31    6 1
    30   32    6 1
    31   33   32 ar
    32   34   33 1
    33   35   33 ar
    34   36   35 1
    35   37   35 ar
    36   38   37 1
    37   39   37 ar
    38   40   39 1
    39   41   15 1
    40   13   15 1
    41   15   31 1
    42   27   29 ar
    43   32   41 ar
    44   39   41 ar
@<TRIPOS>SUBSTRUCTURE
     1 RES1 1

@<TRIPOS>CRYSIN
  11.8937    7.9224   17.5571  90.0000  97.2990  90.0000  14 1

