# MOL2 file generated by ConQuest
# Please check atom types

@<TRIPOS>MOLECULE
HESVUW
    34    35     1
SMALL
NO_CHARGES
****
Generated from CSD

@<TRIPOS>ATOM
      1 O1        -0.5743    2.5790    4.2547 O.2       1 RES1    0.0000
      2 O2        -0.1123    2.5449    2.1499 O.2       1 RES1    0.0000
      3 O3         2.8968   -1.5325   -0.4776 O.2       1 RES1    0.0000
      4 O4         4.6843   -0.3004   -0.2648 O.2       1 RES1    0.0000
      5 O5         2.6268    1.6324    0.2637 O.2       1 RES1    0.0000
      6 O6         2.6989    1.7988    2.4402 O.2       1 RES1    0.0000
      7 O7         5.0075    0.5332    2.8126 O.2       1 RES1    0.0000
      8 O8         4.8537   -1.6070    2.3396 O.2       1 RES1    0.0000
      9 N1        -0.3460    1.9906    3.2093 N.pl3     1 RES1    0.0000
     10 N2         3.6160   -0.7436    0.1122 N.pl3     1 RES1    0.0000
     11 N3         2.8121    1.2085    1.3808 N.pl3     1 RES1    0.0000
     12 N4         4.4543   -0.4239    2.3095 N.pl3     1 RES1    0.0000
     13 C1        -0.3928    0.4270    3.2162 C.3       1 RES1    0.0000
     14 C2        -0.2747   -0.0472    1.8007 C.2       1 RES1    0.0000
     15 C3         0.7289   -0.7244    1.2999 C.2       1 RES1    0.0000
     16 C4         1.9702   -1.0608    2.0956 C.3       1 RES1    0.0000
     17 C5         2.6675   -1.4649    4.4872 C.ar      1 RES1    0.0000
     18 C6         2.5652   -1.2724    5.8449 C.ar      1 RES1    0.0000
     19 C7         1.5786   -0.4668    6.3503 C.ar      1 RES1    0.0000
     20 C8         0.6428    0.0956    5.4910 C.ar      1 RES1    0.0000
     21 C9         1.7895   -0.8473    3.5874 C.ar      1 RES1    0.0000
     22 C10        0.7395   -0.0770    4.1148 C.ar      1 RES1    0.0000
     23 C11       -1.7685    0.0633    3.7574 C.3       1 RES1    0.0000
     24 C12        3.1651   -0.2675    1.5127 C.3       1 RES1    0.0000
     25 H1        -0.9912    0.1614    1.2120 H         1 RES1    0.0000
     26 H2         0.6738   -1.0173    0.3978 H         1 RES1    0.0000
     27 H3         2.1606   -2.0322    1.9545 H         1 RES1    0.0000
     28 H4         3.3526   -2.0309    4.1506 H         1 RES1    0.0000
     29 H5         3.1786   -1.6982    6.4324 H         1 RES1    0.0000
     30 H6         1.5348   -0.2936    7.2836 H         1 RES1    0.0000
     31 H7        -0.0747    0.6052    5.8495 H         1 RES1    0.0000
     32 H8        -2.4594    0.4301    3.1665 H         1 RES1    0.0000
     33 H9        -1.8753    0.4382    4.6560 H         1 RES1    0.0000
     34 H10       -1.8563   -0.9118    3.7967 H         1 RES1    0.0000
@<TRIPOS>BOND
     1    1    9 2
     2    2    9 2
     3    3   10 2
     4    4   10 2
     5    5   11 2
     6    6   11 2
     7    7   12 2
     8    8   12 2
     9    9   13 1
    10   10   24 1
    11   11   24 1
    12   12   24 1
    13   13   14 1
    14   14   15 2
    15   15   16 1
    16   16   21 1
    17   17   18 ar
    18   18   19 ar
    19   19   20 ar
    20   20   22 ar
    21   21   17 ar
    22   22   13 1
    23   23   13 1
    24   24   16 1
    25   25   14 1
    26   26   15 1
    27   27   16 1
    28   28   17 1
    29   29   18 1
    30   30   19 1
    31   31   20 1
    32   32   23 1
    33   33   23 1
    34   34   23 1
    35   21   22 ar
@<TRIPOS>SUBSTRUCTURE
     1 RES1 1

@<TRIPOS>CRYSIN
  10.0410    6.2070   11.8920  90.0000 103.4700  90.0000   4 1

