# MOL2 file generated by ConQuest
# Please check atom types

@<TRIPOS>MOLECULE
HESVIK
    34    35     1
SMALL
NO_CHARGES
****
Generated from CSD

@<TRIPOS>ATOM
      1 N1         6.9574    3.6606    9.6410 N.pl3     1 RES1    0.0000
      2 N2         8.4965    0.0596    7.4506 N.pl3     1 RES1    0.0000
      3 N3        10.5830    1.3824    7.0243 N.pl3     1 RES1    0.0000
      4 N4        10.0283    0.5873    9.2365 N.pl3     1 RES1    0.0000
      5 O1         5.7722    3.8169    9.9427 O.2       1 RES1    0.0000
      6 O2         7.8335    4.4775    9.8323 O.2       1 RES1    0.0000
      7 O3         8.1639    0.1345    6.2822 O.2       1 RES1    0.0000
      8 O4         8.1314   -0.7750    8.2710 O.2       1 RES1    0.0000
      9 O5        11.4049    2.1542    7.4698 O.2       1 RES1    0.0000
     10 O6        10.6423    0.8024    5.9741 O.2       1 RES1    0.0000
     11 O7        10.8254   -0.3102    9.0247 O.2       1 RES1    0.0000
     12 O8         9.7483    1.0698   10.2932 O.2       1 RES1    0.0000
     13 C1         6.1142    2.1872    6.8420 C.2       1 RES1    0.0000
     14 C2         6.1836    1.8408    8.1362 C.2       1 RES1    0.0000
     15 C3         7.3265    2.2960    9.0003 C.3       1 RES1    0.0000
     16 C4         8.6435    2.5006    8.2197 C.3       1 RES1    0.0000
     17 C5         9.2965    4.2076    6.4517 C.ar      1 RES1    0.0000
     18 C6         9.0310    4.9311    5.2936 C.ar      1 RES1    0.0000
     19 C7         7.8549    4.7136    4.6247 C.ar      1 RES1    0.0000
     20 C8         6.9304    3.7928    5.0895 C.ar      1 RES1    0.0000
     21 C9         7.1549    3.0653    6.2630 C.ar      1 RES1    0.0000
     22 C10        8.3790    3.2707    6.9319 C.ar      1 RES1    0.0000
     23 C11        4.9748    1.7433    5.9908 C.3       1 RES1    0.0000
     24 C12        9.3682    1.1585    7.9603 C.3       1 RES1    0.0000
     25 H1         5.5147    1.3115    8.5060 H         1 RES1    0.0000
     26 H2         7.4760    1.6370    9.7103 H         1 RES1    0.0000
     27 H3         9.2338    3.0516    8.7769 H         1 RES1    0.0000
     28 H4        10.0924    4.3502    6.9113 H         1 RES1    0.0000
     29 H5         9.6455    5.5530    4.9765 H         1 RES1    0.0000
     30 H6         7.6753    5.1905    3.8466 H         1 RES1    0.0000
     31 H7         6.1408    3.6590    4.6157 H         1 RES1    0.0000
     32 H8         5.3109    1.3244    5.1960 H         1 RES1    0.0000
     33 H9         4.4405    2.5030    5.7507 H         1 RES1    0.0000
     34 H10        4.4381    1.1158    6.4812 H         1 RES1    0.0000
@<TRIPOS>BOND
     1    1    5 2
     2    2    7 2
     3    3    9 2
     4    4   11 2
     5    6    1 2
     6    8    2 2
     7   10    3 2
     8   12    4 2
     9   13   14 2
    10   14   15 1
    11   15    1 1
    12   16   15 1
    13   17   18 ar
    14   18   19 ar
    15   19   20 ar
    16   20   21 ar
    17   21   13 1
    18   22   16 1
    19   23   13 1
    20   24    2 1
    21   25   14 1
    22   26   15 1
    23   27   16 1
    24   28   17 1
    25   29   18 1
    26   30   19 1
    27   31   20 1
    28   32   23 1
    29   33   23 1
    30   34   23 1
    31    3   24 1
    32    4   24 1
    33   16   24 1
    34   17   22 ar
    35   21   22 ar
@<TRIPOS>SUBSTRUCTURE
     1 RES1 1

@<TRIPOS>CRYSIN
  13.3570    8.0560   13.2180  90.0000 103.7500  90.0000  14 1

