# MOL2 file generated by ConQuest
# Please check atom types

@<TRIPOS>MOLECULE
HESWAD
    34    35     1
SMALL
NO_CHARGES
****
Generated from CSD

@<TRIPOS>ATOM
      1 N1         2.2514    9.5062    4.6515 N.pl3     1 RES1    0.0000
      2 O1         2.3795    8.3407    4.3193 O.2       1 RES1    0.0000
      3 O2         2.7552   10.4745    4.1134 O.2       1 RES1    0.0000
      4 N2         0.7273    8.4976    6.2736 N.pl3     1 RES1    0.0000
      5 O3        -0.1523    8.2012    5.4816 O.2       1 RES1    0.0000
      6 O4         1.0483    7.8961    7.2769 O.2       1 RES1    0.0000
      7 N3         0.3642   10.7766    5.6592 N.pl3     1 RES1    0.0000
      8 O5        -0.3860   10.9162    6.6058 O.2       1 RES1    0.0000
      9 O6         0.2782   11.3349    4.5916 O.2       1 RES1    0.0000
     10 N4         5.5919   10.9450    4.8030 N.pl3     1 RES1    0.0000
     11 O7         6.2574    9.9997    4.4653 O.2       1 RES1    0.0000
     12 O8         5.2954   11.8500    4.0709 O.2       1 RES1    0.0000
     13 C1         4.6111   13.4168    6.6374 C.ar      1 RES1    0.0000
     14 C2         3.6774   14.3851    6.9915 C.ar      1 RES1    0.0000
     15 C3         2.3917   14.0412    7.3684 C.ar      1 RES1    0.0000
     16 C4         2.0024   12.7132    7.3662 C.ar      1 RES1    0.0000
     17 C5         2.4542   10.2572    7.0470 C.3       1 RES1    0.0000
     18 C6         3.6144    9.2875    7.0950 C.2       1 RES1    0.0000
     19 C7         4.8413    9.6213    6.7268 C.2       1 RES1    0.0000
     20 C8         5.2152   11.0011    6.2976 C.3       1 RES1    0.0000
     21 C9         2.8899   11.7161    6.9555 C.ar      1 RES1    0.0000
     22 C10        4.2050   12.0730    6.5960 C.ar      1 RES1    0.0000
     23 C11        1.4908    9.7867    5.9304 C.3       1 RES1    0.0000
     24 C12        6.0286   13.8398    6.3433 C.3       1 RES1    0.0000
     25 H1         3.9290   15.3002    6.9740 H         1 RES1    0.0000
     26 H2         1.7764   14.7160    7.6287 H         1 RES1    0.0000
     27 H3         1.1253   12.4787    7.6462 H         1 RES1    0.0000
     28 H4         1.9618   10.1579    7.9120 H         1 RES1    0.0000
     29 H5         3.4562    8.4026    7.4022 H         1 RES1    0.0000
     30 H6         5.5149    8.9522    6.7366 H         1 RES1    0.0000
     31 H7         6.0475   11.2428    6.7965 H         1 RES1    0.0000
     32 H8         6.2515   13.6139    5.4152 H         1 RES1    0.0000
     33 H9         6.6411   13.3722    6.9490 H         1 RES1    0.0000
     34 H10        6.1150   14.8067    6.4729 H         1 RES1    0.0000
@<TRIPOS>BOND
     1    1    2 2
     2    3    1 2
     3    4    5 2
     4    6    4 2
     5    7    8 2
     6    9    7 2
     7   10   11 2
     8   12   10 2
     9   13   14 ar
    10   14   15 ar
    11   15   16 ar
    12   16   21 ar
    13   17   18 1
    14   18   19 2
    15   19   20 1
    16   20   10 1
    17   21   17 1
    18   22   13 ar
    19   23    1 1
    20   24   13 1
    21   25   14 1
    22   26   15 1
    23   27   16 1
    24   28   17 1
    25   29   18 1
    26   30   19 1
    27   31   20 1
    28   32   24 1
    29   33   24 1
    30   34   24 1
    31    4   23 1
    32    7   23 1
    33   17   23 1
    34   20   22 1
    35   21   22 ar
@<TRIPOS>SUBSTRUCTURE
     1 RES1 1

@<TRIPOS>CRYSIN
   8.8600   14.3880   11.2280  90.0000 104.0200  90.0000 231 1

