# MOL2 file generated by ConQuest
# Please check atom types

@<TRIPOS>MOLECULE
HETMEY
    56    59     1
SMALL
NO_CHARGES
****
Generated from CSD

@<TRIPOS>ATOM
      1 O1         8.1882    4.4519   17.5957 O.3       1 RES1    0.0000
      2 O2         7.7114    3.3375   20.2402 O.3       1 RES1    0.0000
      3 O3        10.7553    4.3136   20.1409 O.3       1 RES1    0.0000
      4 O4         9.6535    2.7704   21.3554 O.3       1 RES1    0.0000
      5 O5         6.8126    7.4406   20.3986 O.2       1 RES1    0.0000
      6 N1         6.4916    6.7075   19.3886 N.pl3     1 RES1    0.0000
      7 C1         8.9999    2.7901   20.1134 C.3       1 RES1    0.0000
      8 H1         8.9006    1.9157   19.7038 H         1 RES1    0.0000
      9 C2         9.8126    3.7504   19.2422 C.3       1 RES1    0.0000
     10 H2        10.2483    3.3098   18.5282 H         1 RES1    0.0000
     11 C3         8.8110    4.8155   18.8221 C.3       1 RES1    0.0000
     12 H3         9.1744    5.7027   18.7651 H         1 RES1    0.0000
     13 C4         7.7988    4.7414   19.9541 C.3       1 RES1    0.0000
     14 H4         8.1815    5.1919   20.7229 H         1 RES1    0.0000
     15 C5         6.3952    5.2443   19.6841 C.3       1 RES1    0.0000
     16 H5         6.0549    4.8511   18.8679 H         1 RES1    0.0000
     17 C6         5.4553    5.0121   20.8425 C.3       1 RES1    0.0000
     18 H6         5.3271    4.0627   21.0246 H         1 RES1    0.0000
     19 H7         4.5838    5.3915   20.5665 H         1 RES1    0.0000
     20 H8         5.8052    5.4775   21.6125 H         1 RES1    0.0000
     21 C7         6.2660    7.1423   18.1967 C.2       1 RES1    0.0000
     22 H9         6.0481    6.5030   17.5336 H         1 RES1    0.0000
     23 C8         6.3450    8.5126   17.7323 C.ar      1 RES1    0.0000
     24 C9         6.4511    9.6231   18.5664 C.ar      1 RES1    0.0000
     25 H10        6.5137    9.4720   19.4780 H         1 RES1    0.0000
     26 C10        6.5340   10.8838   18.0309 C.ar      1 RES1    0.0000
     27 H11        6.5465   11.6288   18.5840 H         1 RES1    0.0000
     28 C11        6.5378   11.0715   16.6798 C.ar      1 RES1    0.0000
     29 H12        6.6641   11.9153   16.3200 H         1 RES1    0.0000
     30 C12        6.4414    9.9966   15.8390 C.ar      1 RES1    0.0000
     31 H13        6.4501   10.0875   14.9186 H         1 RES1    0.0000
     32 C13        6.3287    8.7329   16.3589 C.ar      1 RES1    0.0000
     33 H14        6.2419    8.0107   15.8126 H         1 RES1    0.0000
     34 C14       10.9192    3.4056   21.2363 C.3       1 RES1    0.0000
     35 C15       11.9806    2.3811   20.9314 C.3       1 RES1    0.0000
     36 H15       12.8569    2.7842   20.8324 H         1 RES1    0.0000
     37 H16       11.7608    1.8713   20.1083 H         1 RES1    0.0000
     38 H17       11.9729    1.7517   21.6884 H         1 RES1    0.0000
     39 C16       11.2017    4.2059   22.4693 C.3       1 RES1    0.0000
     40 H18       12.0375    4.6792   22.3858 H         1 RES1    0.0000
     41 H19       11.2489    3.5509   23.2172 H         1 RES1    0.0000
     42 H20       10.4565    4.7948   22.5802 H         1 RES1    0.0000
     43 C17        8.8736    4.9647   16.4487 C.3       1 RES1    0.0000
     44 H21        9.8521    4.7256   16.5301 H         1 RES1    0.0000
     45 H22        8.7387    5.9912   16.4787 H         1 RES1    0.0000
     46 C18        8.3386    4.3225   15.2060 C.ar      1 RES1    0.0000
     47 C19        6.9967    4.3581   14.8864 C.ar      1 RES1    0.0000
     48 H23        6.4048    4.8175   15.4729 H         1 RES1    0.0000
     49 C20        6.5330    3.7584   13.7339 C.ar      1 RES1    0.0000
     50 H24        5.6047    3.8907   13.5173 H         1 RES1    0.0000
     51 C21        7.3987    3.1399   12.8799 C.ar      1 RES1    0.0000
     52 H25        7.0979    2.7210   12.0690 H         1 RES1    0.0000
     53 C22        8.7329    3.1053   13.1729 C.ar      1 RES1    0.0000
     54 H26        9.3595    2.6903   12.5875 H         1 RES1    0.0000
     55 C23        9.1927    3.6862   14.3331 C.ar      1 RES1    0.0000
     56 H27       10.0998    3.6655   14.5476 H         1 RES1    0.0000
@<TRIPOS>BOND
     1    1   11 1
     2    2    7 1
     3    3    9 1
     4    4    7 1
     5    5    6 1
     6    6   15 1
     7    7    8 1
     8    9    7 1
     9   10    9 1
    10   11    9 1
    11   12   11 1
    12   13    2 1
    13   14   13 1
    14   15   13 1
    15   16   15 1
    16   17   15 1
    17   18   17 1
    18   19   17 1
    19   20   17 1
    20   21    6 2
    21   22   21 1
    22   23   21 1
    23   24   23 ar
    24   25   24 1
    25   26   24 ar
    26   27   26 1
    27   28   26 ar
    28   29   28 1
    29   30   28 ar
    30   31   30 1
    31   32   23 ar
    32   33   32 1
    33   34    3 1
    34   35   34 1
    35   36   35 1
    36   37   35 1
    37   38   35 1
    38   39   34 1
    39   40   39 1
    40   41   39 1
    41   42   39 1
    42   43    1 1
    43   44   43 1
    44   45   43 1
    45   46   43 1
    46   47   46 ar
    47   48   47 1
    48   49   47 ar
    49   50   49 1
    50   51   49 ar
    51   52   51 1
    52   53   51 ar
    53   54   53 1
    54   55   46 ar
    55   56   55 1
    56    4   34 1
    57   11   13 1
    58   30   32 ar
    59   53   55 ar
@<TRIPOS>SUBSTRUCTURE
     1 RES1 1

@<TRIPOS>CRYSIN
   9.6400    9.8800   22.3500  90.0000  90.0000  90.0000  19 1

