# MOL2 file generated by ConQuest
# Please check atom types

@<TRIPOS>MOLECULE
HEVPIH
    35    36     1
SMALL
NO_CHARGES
****
Generated from CSD

@<TRIPOS>ATOM
      1 O1         5.7487    0.3262    8.8541 O.2       1 RES1    0.0000
      2 O2         5.2297    3.2002    7.0280 O.2       1 RES1    0.0000
      3 O3         2.7005    4.4184    8.2477 O.3       1 RES1    0.0000
      4 O4         2.9144    8.0261    7.3268 O.2       1 RES1    0.0000
      5 O5         1.5596    9.2487    6.2481 O.2       1 RES1    0.0000
      6 N1         1.9124    8.1711    6.6751 N.pl3     1 RES1    0.0000
      7 C1         5.3057    1.1619    9.6073 C.2       1 RES1    0.0000
      8 C2         5.5064    1.0456   11.0755 C.3       1 RES1    0.0000
      9 C3         4.5310    2.4011    7.5753 C.2       1 RES1    0.0000
     10 C4         3.6164    1.4948    6.8279 C.3       1 RES1    0.0000
     11 C5         4.5532    2.3003    9.0621 C.2       1 RES1    0.0000
     12 C6         3.9972    3.1945    9.8637 C.2       1 RES1    0.0000
     13 C7         3.1736    4.3085    9.5265 C.2       1 RES1    0.0000
     14 C8         2.7643    5.3589   10.2581 C.2       1 RES1    0.0000
     15 C9         2.0080    6.1777    9.4151 C.2       1 RES1    0.0000
     16 C10        1.9915    5.5831    8.2151 C.2       1 RES1    0.0000
     17 C11        1.2412    5.7963    6.9856 C.ar      1 RES1    0.0000
     18 C12        1.0987    7.0131    6.3329 C.ar      1 RES1    0.0000
     19 C13        0.2601    7.1578    5.2523 C.ar      1 RES1    0.0000
     20 C14       -0.4382    6.0749    4.7918 C.ar      1 RES1    0.0000
     21 C15       -0.3139    4.8594    5.3992 C.ar      1 RES1    0.0000
     22 C16        0.5225    4.7239    6.4818 C.ar      1 RES1    0.0000
     23 H1         5.7287    1.8372   11.4886 H         1 RES1    0.0000
     24 H2         6.2528    0.5137   11.2717 H         1 RES1    0.0000
     25 H3         4.6188    0.9917   11.6424 H         1 RES1    0.0000
     26 H4         3.7867    1.6720    5.8291 H         1 RES1    0.0000
     27 H5         3.8598    0.7160    6.9432 H         1 RES1    0.0000
     28 H6         2.5670    1.8983    6.9728 H         1 RES1    0.0000
     29 H7         4.2398    3.0732   10.7491 H         1 RES1    0.0000
     30 H8         2.9562    5.4803   11.2086 H         1 RES1    0.0000
     31 H9         1.5336    7.0433    9.6271 H         1 RES1    0.0000
     32 H10        0.1733    8.0365    4.7297 H         1 RES1    0.0000
     33 H11       -1.0932    6.2269    3.9745 H         1 RES1    0.0000
     34 H12       -0.9705    4.0286    5.2553 H         1 RES1    0.0000
     35 H13        0.6088    3.8874    6.8792 H         1 RES1    0.0000
@<TRIPOS>BOND
     1    1    7 2
     2    2    9 2
     3    3   13 1
     4    4    6 2
     5    5    6 2
     6    6   18 1
     7    7    8 1
     8    8   23 1
     9    9   10 1
    10   10   26 1
    11   11    7 1
    12   12   11 2
    13   13   12 1
    14   14   13 2
    15   15   14 1
    16   16    3 1
    17   17   16 1
    18   18   17 ar
    19   19   18 ar
    20   20   19 ar
    21   21   20 ar
    22   22   17 ar
    23   24    8 1
    24   25    8 1
    25   27   10 1
    26   28   10 1
    27   29   12 1
    28   30   14 1
    29   31   15 1
    30   32   19 1
    31   33   20 1
    32   34   21 1
    33   35   22 1
    34    9   11 1
    35   15   16 2
    36   21   22 ar
@<TRIPOS>SUBSTRUCTURE
     1 RES1 1

@<TRIPOS>CRYSIN
   8.2430    8.7170   10.6520  67.9100  81.7300  74.0900   2 1

