# MOL2 file generated by ConQuest
# Please check atom types

@<TRIPOS>MOLECULE
HEVPON
    65    65     2
SMALL
USER_CHARGES
****
Generated from CSD

@<TRIPOS>ATOM
      1 O1        -1.3781    3.5161    1.9749 O.2       1 RES1   -1.0000
      2 O2        -0.3672    4.0104    9.5577 O.3       1 RES1    0.0000
      3 O3         1.8444    3.2996    8.4142 O.3       1 RES1    0.0000
      4 O4         1.0486    1.2202    4.2077 O.3       1 RES1    0.0000
      5 O5         1.6284    3.7008    1.6592 O.3       1 RES1    0.0000
      6 O6         4.3009    2.7531    2.3963 O.3       1 RES1    0.0000
      7 O7         3.7505    0.1204    1.3007 O.3       1 RES1    0.0000
      8 O8        -0.9419    0.2543    3.9411 O.2       1 RES1    0.0000
      9 O9         1.3756    5.6273    2.7624 O.2       1 RES1    0.0000
     10 O10        4.4993    2.8613    4.6153 O.2       1 RES1    0.0000
     11 O11        4.6460    0.7850   -0.6378 O.2       1 RES1    0.0000
     12 C1        -0.3719    3.1725    4.0027 C.2       1 RES1    0.0000
     13 H1         0.1944    3.9567    3.8404 Du        2 SUP2    0.0000
     14 N1        -1.3137    3.6804    3.2530 N.pl3     1 RES1    1.0000
     15 C2        -2.3593    4.5403    3.8379 C.3       1 RES1    0.0000
     16 H2        -3.1367    4.5448    3.2580 H         1 RES1    0.0000
     17 H3        -2.0281    5.4494    3.9046 H         1 RES1    0.0000
     18 C3        -2.7573    4.0483    5.2065 C.3       1 RES1    0.0000
     19 H4        -3.3467    4.6947    5.6267 H         1 RES1    0.0000
     20 H5        -3.2370    3.2096    5.1248 H         1 RES1    0.0000
     21 C4        -1.5654    4.0490    7.4318 C.ar      1 RES1    0.0000
     22 H6        -2.3585    4.3162    7.8394 H         1 RES1    0.0000
     23 C5        -0.4240    3.8530    8.2067 C.ar      1 RES1    0.0000
     24 C6         0.7724    3.4737    7.5815 C.ar      1 RES1    0.0000
     25 C7         0.8040    3.2663    6.2204 C.ar      1 RES1    0.0000
     26 H7         1.5977    3.0082    5.8116 H         1 RES1    0.0000
     27 C8        -0.3617    3.4427    5.4393 C.ar      1 RES1    0.0000
     28 C9        -1.5307    3.8507    6.0607 C.ar      1 RES1    0.0000
     29 C10       -1.5760    4.2458   10.2521 C.3       1 RES1    0.0000
     30 H8        -1.3605    4.2050   11.1867 H         1 RES1    0.0000
     31 H9        -2.2785    3.6221   10.0571 H         1 RES1    0.0000
     32 H10       -1.8639    5.1338   10.0282 H         1 RES1    0.0000
     33 C11        3.0658    2.9287    7.8293 C.3       1 RES1    0.0000
     34 H11        3.7068    2.8538    8.5400 H         1 RES1    0.0000
     35 H12        3.3601    3.5926    7.2016 H         1 RES1    0.0000
     36 H13        2.9813    2.0824    7.3840 H         1 RES1    0.0000
     37 C12        0.6388    2.2815    3.3121 C.3       1 RES1    0.0000
     38 H14        0.2193    1.8818    2.5209 H         1 RES1    0.0000
     39 C13        1.9332    3.0037    2.8756 C.3       1 RES1    0.0000
     40 H15        2.2173    3.6372    3.5662 H         1 RES1    0.0000
     41 C14        3.0652    2.0279    2.5586 C.3       1 RES1    0.0000
     42 H16        3.1623    1.4034    3.3071 H         1 RES1    0.0000
     43 C15        2.8410    1.2392    1.2969 C.3       1 RES1    0.0000
     44 H17        1.9246    0.9235    1.2592 H         1 RES1    0.0000
     45 H18        3.0055    1.7978    0.5208 H         1 RES1    0.0000
     46 C16        0.1267    0.2680    4.4820 C.2       1 RES1    0.0000
     47 C17        0.6110   -0.6646    5.5047 C.3       1 RES1    0.0000
     48 H19       -0.2093   -0.9303    5.9298 H         1 RES1    0.0000
     49 H20        1.1590   -0.1915    6.1361 H         1 RES1    0.0000
     50 H21        1.0780   -1.4435    5.1952 H         1 RES1    0.0000
     51 C18        1.3214    5.0104    1.7460 C.2       1 RES1    0.0000
     52 C19        0.9058    5.5335    0.4201 C.3       1 RES1    0.0000
     53 H22        0.2743    6.2450    0.5485 H         1 RES1    0.0000
     54 H23        0.5165    4.8567   -0.1371 H         1 RES1    0.0000
     55 H24        1.6961    5.8794   -0.0013 H         1 RES1    0.0000
     56 C20        4.9650    3.0491    3.5423 C.2       1 RES1    0.0000
     57 C21        6.3151    3.6312    3.2580 C.3       1 RES1    0.0000
     58 H25        6.6279    4.2178    3.9511 H         1 RES1    0.0000
     59 H26        6.3147    4.0982    2.4190 H         1 RES1    0.0000
     60 H27        6.8943    2.8682    3.1989 H         1 RES1    0.0000
     61 C22        4.6346    0.0386    0.3132 C.2       1 RES1    0.0000
     62 C23        5.5641   -1.0923    0.5359 C.3       1 RES1    0.0000
     63 H28        6.0137   -1.2437   -0.2981 H         1 RES1    0.0000
     64 H29        5.1008   -1.8909    0.7988 H         1 RES1    0.0000
     65 H30        6.2075   -0.8592    1.2089 H         1 RES1    0.0000
@<TRIPOS>BOND
     1    1   14 1
     2    2   23 1
     3    3   24 1
     4    4   37 1
     5    5   39 1
     6    6   41 1
     7    7   43 1
     8    8   46 2
     9    9   51 2
    10   10   56 2
    11   11   61 2
    12   12   14 2
    13   14   15 1
    14   15   16 1
    15   17   15 1
    16   18   15 1
    17   19   18 1
    18   20   18 1
    19   21   22 1
    20   23   21 ar
    21   24   23 ar
    22   25   24 ar
    23   26   25 1
    24   27   12 1
    25   28   18 1
    26   29    2 1
    27   30   29 1
    28   31   29 1
    29   32   29 1
    30   33    3 1
    31   34   33 1
    32   35   33 1
    33   36   33 1
    34   37   12 1
    35   38   37 1
    36   39   37 1
    37   40   39 1
    38   41   39 1
    39   42   41 1
    40   43   41 1
    41   44   43 1
    42   45   43 1
    43   46    4 1
    44   47   46 1
    45   48   47 1
    46   49   47 1
    47   50   47 1
    48   51    5 1
    49   52   51 1
    50   53   52 1
    51   54   52 1
    52   55   52 1
    53   56    6 1
    54   57   56 1
    55   58   57 1
    56   59   57 1
    57   60   57 1
    58   61    7 1
    59   62   61 1
    60   63   62 1
    61   64   62 1
    62   65   62 1
    63   21   28 ar
    64   25   27 ar
    65   27   28 ar
@<TRIPOS>SUBSTRUCTURE
     1 RES1 1
     2 SUP2 13

@<TRIPOS>CRYSIN
  12.9230    7.5697   13.7430  90.0000 113.7490  90.0000   4 1

