# MOL2 file generated by ConQuest
# Please check atom types

@<TRIPOS>MOLECULE
HEVRUV
    11    10     1
SMALL
NO_CHARGES
****
Generated from CSD

@<TRIPOS>ATOM
      1 O1        10.6335    8.9856    8.1010 O.2       1 RES1    0.0000
      2 O2        10.1125    6.8922    8.1569 O.2       1 RES1    0.0000
      3 N1         9.8556    8.0678    8.1952 N.pl3     1 RES1    0.0000
      4 C1         8.4045    8.4045    8.4045 C.3       1 RES1    0.0000
      5 H1         7.8855    7.8855    7.8855 H         1 RES1    0.0000
      6 N1A        8.1952    9.8556    8.0678 N.pl3     1 RES1    0.0000
      7 N1B        8.0678    8.1952    9.8556 N.pl3     1 RES1    0.0000
      8 O1A        8.1010   10.6335    8.9856 O.2       1 RES1    0.0000
      9 O2A        8.1569   10.1125    6.8922 O.2       1 RES1    0.0000
     10 O1B        8.9856    8.1010   10.6335 O.2       1 RES1    0.0000
     11 O2B        6.8922    8.1569   10.1125 O.2       1 RES1    0.0000
@<TRIPOS>BOND
     1    1    3 2
     2    2    3 2
     3    3    4 1
     4    4    5 1
     5    6    4 1
     6    7    4 1
     7    8    6 2
     8    9    6 2
     9   10    7 2
    10   11    7 2
@<TRIPOS>SUBSTRUCTURE
     1 RES1 1

@<TRIPOS>CRYSIN
  10.3580   10.3580   10.3580  90.0000  90.0000  90.0000 205 1

