# MOL2 file generated by ConQuest
# Please check atom types

@<TRIPOS>MOLECULE
HEVZOZ
    40    40     1
SMALL
NO_CHARGES
****
Generated from CSD

@<TRIPOS>ATOM
      1 O1         5.4555    2.7366    2.2297 O.2       1 RES1    0.0000
      2 O2         6.9007    1.8640    6.6778 O.2       1 RES1    0.0000
      3 O3         5.2443   -3.0282   -2.6015 O.2       1 RES1    0.0000
      4 O4         5.5651   -3.6255   -0.5685 O.2       1 RES1    0.0000
      5 N1         5.3534    0.4688    2.1521 N.am      1 RES1    0.0000
      6 N2         6.1508    2.7688    4.7870 N.am      1 RES1    0.0000
      7 N3         5.3590   -2.7780   -1.4150 N.pl3     1 RES1    0.0000
      8 C1         5.4598    1.6538    2.7804 C.2       1 RES1    0.0000
      9 C2         5.5826    1.5332    4.2958 C.3       1 RES1    0.0000
     10 H1         6.1969    0.7992    4.5050 H         1 RES1    0.0000
     11 C3         5.2647    0.2293    0.7642 C.ar      1 RES1    0.0000
     12 C4         5.3311   -1.0909    0.3552 C.ar      1 RES1    0.0000
     13 H2         5.4184   -1.7737    0.9798 H         1 RES1    0.0000
     14 C5         5.2661   -1.3794   -0.9930 C.ar      1 RES1    0.0000
     15 C6         5.1274    1.2351   -0.1838 C.ar      1 RES1    0.0000
     16 H3         5.0697    2.1241    0.0816 H         1 RES1    0.0000
     17 C7         6.7885    2.8483    5.9537 C.2       1 RES1    0.0000
     18 C8         5.1463   -0.3966   -1.9525 C.ar      1 RES1    0.0000
     19 H4         5.1136   -0.6090   -2.8569 H         1 RES1    0.0000
     20 C9         5.0776    0.9011   -1.5298 C.ar      1 RES1    0.0000
     21 H5         4.9946    1.5792   -2.1615 H         1 RES1    0.0000
     22 C10        7.3292    4.2063    6.3863 C.3       1 RES1    0.0000
     23 C11        4.2331    1.2264    4.9036 C.3       1 RES1    0.0000
     24 H6         4.2996    1.2522    5.8613 H         1 RES1    0.0000
     25 H7         3.9482    0.3526    4.6252 H         1 RES1    0.0000
     26 H8         3.5934    1.8805    4.6106 H         1 RES1    0.0000
     27 C12        7.3066    5.2423    5.2799 C.3       1 RES1    0.0000
     28 H9         7.7296    6.0475    5.5863 H         1 RES1    0.0000
     29 H10        6.3972    5.4299    5.0362 H         1 RES1    0.0000
     30 H11        7.7787    4.9043    4.5154 H         1 RES1    0.0000
     31 C13        6.4495    4.6848    7.5397 C.3       1 RES1    0.0000
     32 H12        6.5319    4.0773    8.2780 H         1 RES1    0.0000
     33 H13        5.5342    4.7162    7.2521 H         1 RES1    0.0000
     34 H14        6.7301    5.5603    7.8137 H         1 RES1    0.0000
     35 C14        8.7229    4.0179    6.9049 C.3       1 RES1    0.0000
     36 H15        8.7202    3.3486    7.5941 H         1 RES1    0.0000
     37 H16        9.0452    4.8466    7.2657 H         1 RES1    0.0000
     38 H17        9.2962    3.7375    6.1886 H         1 RES1    0.0000
     39 H18        5.5044   -0.2030    2.5913 H         1 RES1    0.0000
     40 H19        6.1547    3.4554    4.0992 H         1 RES1    0.0000
@<TRIPOS>BOND
     1    1    8 2
     2    2   17 2
     3    3    7 2
     4    4    7 2
     5    5    8 1
     6    6    9 1
     7    7   14 1
     8    8    9 1
     9    9   10 1
    10   11    5 1
    11   12   11 ar
    12   13   12 1
    13   14   12 ar
    14   15   11 ar
    15   16   15 1
    16   17    6 1
    17   18   14 ar
    18   19   18 1
    19   20   15 ar
    20   21   20 1
    21   22   17 1
    22   23    9 1
    23   24   23 1
    24   25   23 1
    25   26   23 1
    26   27   22 1
    27   28   27 1
    28   29   27 1
    29   30   27 1
    30   31   22 1
    31   32   31 1
    32   33   31 1
    33   34   31 1
    34   35   22 1
    35   36   35 1
    36   37   35 1
    37   38   35 1
    38   39    5 1
    39   40    6 1
    40   18   20 ar
@<TRIPOS>SUBSTRUCTURE
     1 RES1 1

@<TRIPOS>CRYSIN
   6.9562   21.3693   10.5537  90.0000  97.7520  90.0000 231 1

