# MOL2 file generated by ConQuest
# Please check atom types

@<TRIPOS>MOLECULE
HEWWIQ
    23    23     1
SMALL
NO_CHARGES
****
Generated from CSD

@<TRIPOS>ATOM
      1 O1         4.7794    1.6779    1.9570 O.2       1 RES1    0.0000
      2 O2         3.3222    1.3182    3.4921 O.2       1 RES1    0.0000
      3 O3         5.0606    8.3294    0.4008 O.3       1 RES1    0.0000
      4 H1         5.7465    8.4525   -0.0304 H         1 RES1    0.0000
      5 O4         6.1262    6.4805    1.0190 O.2       1 RES1    0.0000
      6 N1         4.0871    2.0491    2.8780 N.pl3     1 RES1    0.0000
      7 C1         3.4970    4.2243    1.0031 C.3       1 RES1    0.0000
      8 H2         3.4271    3.2782    0.8554 H         1 RES1    0.0000
      9 H3         4.1199    4.6008    0.3776 H         1 RES1    0.0000
     10 H4         2.6363    4.6310    0.8816 H         1 RES1    0.0000
     11 C2         3.9785    4.4781    2.4036 C.ar      1 RES1    0.0000
     12 C3         4.1948    3.4509    3.3213 C.ar      1 RES1    0.0000
     13 C4         4.5562    3.6314    4.6315 C.ar      1 RES1    0.0000
     14 H5         4.6630    2.9047    5.2020 H         1 RES1    0.0000
     15 C5         4.7564    4.9126    5.0772 C.ar      1 RES1    0.0000
     16 H6         5.0160    5.0694    5.9564 H         1 RES1    0.0000
     17 C6         4.5666    5.9679    4.2038 C.ar      1 RES1    0.0000
     18 H7         4.7056    6.8355    4.5083 H         1 RES1    0.0000
     19 C7         4.1768    5.7727    2.8928 C.ar      1 RES1    0.0000
     20 C8         3.9962    6.9755    1.9915 C.3       1 RES1    0.0000
     21 H8         3.2048    6.8446    1.4456 H         1 RES1    0.0000
     22 H9         3.8503    7.7616    2.5398 H         1 RES1    0.0000
     23 C9         5.1719    7.2188    1.0934 C.2       1 RES1    0.0000
@<TRIPOS>BOND
     1    1    6 2
     2    2    6 2
     3    3    4 1
     4    5   23 2
     5    6   12 1
     6    7    8 1
     7    9    7 1
     8   10    7 1
     9   11    7 1
    10   12   11 ar
    11   13   12 ar
    12   14   13 1
    13   15   13 ar
    14   16   15 1
    15   17   15 ar
    16   18   17 1
    17   19   11 ar
    18   20   19 1
    19   21   20 1
    20   22   20 1
    21   23    3 1
    22   17   19 ar
    23   20   23 1
@<TRIPOS>SUBSTRUCTURE
     1 RES1 1

@<TRIPOS>CRYSIN
   7.2250    8.2220    8.6470  74.2100  75.6500  67.9600   2 1

