# MOL2 file generated by ConQuest
# Please check atom types

@<TRIPOS>MOLECULE
HEXCOF
    51    54     1
SMALL
NO_CHARGES
****
Generated from CSD

@<TRIPOS>ATOM
      1 O1         2.2230    3.7183    4.9772 O.3       1 RES1    0.0000
      2 O2         4.0683    4.8291    4.3866 O.2       1 RES1    0.0000
      3 O3         3.9094    2.4384    7.1365 O.2       1 RES1    0.0000
      4 O4         2.0190    1.3927    7.0709 O.2       1 RES1    0.0000
      5 N1         2.2147    4.0242   -0.0764 N.ar      1 RES1    0.0000
      6 N2         3.1470    1.6100    6.6458 N.pl3     1 RES1    0.0000
      7 C1         2.9631    4.8352   -0.8860 C.ar      1 RES1    0.0000
      8 C2         2.3418    5.4392   -2.0099 C.ar      1 RES1    0.0000
      9 H1         1.4325    5.2452   -2.2049 H         1 RES1    0.0000
     10 C3         3.0415    6.3016   -2.8189 C.ar      1 RES1    0.0000
     11 H2         2.6126    6.7020   -3.5662 H         1 RES1    0.0000
     12 C4         4.3981    6.5959   -2.5442 C.ar      1 RES1    0.0000
     13 H3         4.8734    7.1985   -3.1041 H         1 RES1    0.0000
     14 C5         5.0323    6.0152   -1.4715 C.ar      1 RES1    0.0000
     15 H4         5.9441    6.2164   -1.2962 H         1 RES1    0.0000
     16 C6         4.3330    5.1183   -0.6266 C.ar      1 RES1    0.0000
     17 C7         4.9303    4.4954    0.4957 C.ar      1 RES1    0.0000
     18 H5         5.8509    4.6366    0.6833 H         1 RES1    0.0000
     19 C8         4.1786    3.6869    1.3136 C.ar      1 RES1    0.0000
     20 C9         4.8111    2.9731    2.4840 C.3       1 RES1    0.0000
     21 H6         5.4953    3.5648    2.8864 H         1 RES1    0.0000
     22 H7         5.2727    2.1628    2.1517 H         1 RES1    0.0000
     23 C10        3.8094    2.5597    3.5764 C.3       1 RES1    0.0000
     24 C11        4.5482    1.6190    4.5621 C.3       1 RES1    0.0000
     25 H8         5.1301    1.0184    4.0319 H         1 RES1    0.0000
     26 H9         5.1398    2.1749    5.1286 H         1 RES1    0.0000
     27 C12        3.6905    0.7497    5.4860 C.3       1 RES1    0.0000
     28 C13        2.5326    0.0941    4.7400 C.3       1 RES1    0.0000
     29 H10        1.9159   -0.3072    5.4022 H         1 RES1    0.0000
     30 H11        2.8913   -0.6405    4.1815 H         1 RES1    0.0000
     31 C14        1.7377    1.0448    3.8454 C.3       1 RES1    0.0000
     32 H12        1.2516    1.6979    4.4084 H         1 RES1    0.0000
     33 H13        1.0696    0.5290    3.3280 H         1 RES1    0.0000
     34 C15        2.6632    1.7932    2.8794 C.3       1 RES1    0.0000
     35 H14        3.1009    1.0925    2.3162 H         1 RES1    0.0000
     36 C16        1.9012    2.6982    1.9131 C.3       1 RES1    0.0000
     37 H15        1.2953    2.1401    1.3640 H         1 RES1    0.0000
     38 H16        1.3410    3.3243    2.4369 H         1 RES1    0.0000
     39 C17        2.7963    3.4982    0.9921 C.ar      1 RES1    0.0000
     40 C18        3.3938    3.8328    4.3338 C.2       1 RES1    0.0000
     41 C19        1.8866    4.8075    5.8954 C.3       1 RES1    0.0000
     42 H17        1.9608    5.6805    5.4343 H         1 RES1    0.0000
     43 H18        2.5033    4.8068    6.6697 H         1 RES1    0.0000
     44 C20        0.4689    4.5780    6.3555 C.3       1 RES1    0.0000
     45 H19       -0.1326    4.5977    5.5821 H         1 RES1    0.0000
     46 H20        0.2125    5.2820    6.9870 H         1 RES1    0.0000
     47 H21        0.4060    3.7049    6.7961 H         1 RES1    0.0000
     48 C21        4.5681   -0.2950    6.1842 C.3       1 RES1    0.0000
     49 H22        4.0323   -0.7843    6.8429 H         1 RES1    0.0000
     50 H23        5.3125    0.1538    6.6372 H         1 RES1    0.0000
     51 H24        4.9211   -0.9223    5.5192 H         1 RES1    0.0000
@<TRIPOS>BOND
     1    1   40 1
     2    2   40 2
     3    3    6 2
     4    4    6 2
     5    5    7 ar
     6    6   27 1
     7    7    8 ar
     8    8    9 1
     9   10    8 ar
    10   11   10 1
    11   12   10 ar
    12   13   12 1
    13   14   12 ar
    14   15   14 1
    15   16    7 ar
    16   17   16 ar
    17   18   17 1
    18   19   17 ar
    19   20   19 1
    20   21   20 1
    21   22   20 1
    22   23   20 1
    23   24   23 1
    24   25   24 1
    25   26   24 1
    26   27   24 1
    27   28   27 1
    28   29   28 1
    29   30   28 1
    30   31   28 1
    31   32   31 1
    32   33   31 1
    33   34   23 1
    34   35   34 1
    35   36   34 1
    36   37   36 1
    37   38   36 1
    38   39    5 ar
    39   40   23 1
    40   41    1 1
    41   42   41 1
    42   43   41 1
    43   44   41 1
    44   45   44 1
    45   46   44 1
    46   47   44 1
    47   48   27 1
    48   49   48 1
    49   50   48 1
    50   51   48 1
    51   14   16 ar
    52   19   39 ar
    53   31   34 1
    54   36   39 1
@<TRIPOS>SUBSTRUCTURE
     1 RES1 1

@<TRIPOS>CRYSIN
   6.5128    8.6580   31.8379  90.0000  90.0000  90.0000  19 1

