# MOL2 file generated by ConQuest
# Please check atom types

@<TRIPOS>MOLECULE
HEXTIN02
    36    27     2
SMALL
NO_CHARGES
****
Generated from CSD

@<TRIPOS>ATOM
      1 C1         2.5044    0.6254    5.1530 C.ar      1 RES1    0.0000
      2 C2         1.3233    0.0908    4.6373 C.ar      1 RES1    0.0000
      3 C3         0.9669    0.0648    3.2984 C.ar      1 RES1    0.0000
      4 C4         1.8964    0.6499    2.4402 C.ar      1 RES1    0.0000
      5 C5         3.0995    1.2278    2.8267 C.ar      1 RES1    0.0000
      6 C6         3.3473    1.1762    4.1885 C.ar      1 RES1    0.0000
      7 C7         2.8480    0.5931    6.6173 C.3       1 RES1    0.0000
      8 C8        -0.3315   -0.5136    2.8085 C.3       1 RES1    0.0000
      9 C9         4.0656    1.8121    1.8379 C.3       1 RES1    0.0000
     10 N1         0.3697   -0.4818    5.6041 N.pl3     1 RES1    0.0000
     11 N2         1.5678    0.6566    1.0002 N.pl3     1 RES1    0.0000
     12 N3         4.6226    1.7504    4.6609 N.pl3     1 RES1    0.0000
     13 O1        -0.1709    0.2864    6.3765 O.2       1 RES1    0.0000
     14 O2         0.1745   -1.6730    5.5760 O.2       1 RES1    0.0000
     15 O3         1.7676   -0.3592    0.3835 O.2       1 RES1    0.0000
     16 O4         1.1224    1.6720    0.5256 O.2       1 RES1    0.0000
     17 O5         5.5015    0.9909    4.9616 O.2       1 RES1    0.0000
     18 O6         4.7184    2.9475    4.7064 O.2       1 RES1    0.0000
     19 H1         3.8846    0.4053    6.7061 H         1 RES1    0.0000
     20 H2         2.3055   -0.1797    7.1086 H         1 RES1    0.0000
     21 H3         2.6197    1.5283    7.0631 H         1 RES1    0.0000
     22 H4         3.4980    1.4132    6.7669 Du        2 SUP2    0.0000
     23 H5         3.3222   -0.2982    6.9491 Du        2 SUP2    0.0000
     24 H6         1.9552    0.7439    7.1618 Du        2 SUP2    0.0000
     25 H7        -1.0517   -0.4318    3.5771 H         1 RES1    0.0000
     26 H8        -0.2236   -1.5288    2.5366 H         1 RES1    0.0000
     27 H9        -0.6439    0.0524    1.9670 H         1 RES1    0.0000
     28 H10       -0.5449   -1.3499    3.4252 Du        2 SUP2    0.0000
     29 H11       -1.1008    0.2064    2.9164 Du        2 SUP2    0.0000
     30 H12       -1.0688    7.9285    1.7999 Du        2 SUP2    0.0000
     31 H13        5.0369    1.5527    2.1721 H         1 RES1    0.0000
     32 H14        3.9936    2.8679    1.7392 H         1 RES1    0.0000
     33 H15        3.8803    1.3543    0.9038 H         1 RES1    0.0000
     34 H16        4.7022    1.1183    1.3519 Du        2 SUP2    0.0000
     35 H17        4.6454    2.4499    2.4607 Du        2 SUP2    0.0000
     36 H18        3.5667    2.3995    1.1088 Du        2 SUP2    0.0000
@<TRIPOS>BOND
     1    1    2 ar
     2    2    3 ar
     3    3    4 ar
     4    4    5 ar
     5    5    6 ar
     6    6    1 ar
     7    7    1 1
     8    8    3 1
     9    9    5 1
    10   10    2 1
    11   11    4 1
    12   12    6 1
    13   13   10 2
    14   14   10 2
    15   15   11 2
    16   16   11 2
    17   17   12 2
    18   18   12 2
    19   19    7 1
    20   20    7 1
    21   21    7 1
    22   25    8 1
    23   26    8 1
    24   27    8 1
    25   31    9 1
    26   32    9 1
    27   33    9 1
@<TRIPOS>SUBSTRUCTURE
     1 RES1 1
     2 SUP2 22

@<TRIPOS>CRYSIN
   8.2680    8.7890    8.9320 108.1200 113.2500  95.1900   2 1

