# MOL2 file generated by ConQuest
# Please check atom types

@<TRIPOS>MOLECULE
HEXTIN
    27    27     1
SMALL
NO_CHARGES
****
Generated from CSD

@<TRIPOS>ATOM
      1 C1        -1.5153    5.5664    2.9570 C.ar      1 RES1    0.0000
      2 C2        -2.6940    5.0336    2.4512 C.ar      1 RES1    0.0000
      3 C3        -3.5432    4.4810    3.4095 C.ar      1 RES1    0.0000
      4 C4        -3.2908    4.4317    4.7701 C.ar      1 RES1    0.0000
      5 C5        -2.0905    5.0080    5.1587 C.ar      1 RES1    0.0000
      6 C6        -1.1552    5.5909    4.3024 C.ar      1 RES1    0.0000
      7 C7        -3.0358    5.0604    0.9826 C.3       1 RES1    0.0000
      8 C8        -4.2524    3.8503    5.7710 C.3       1 RES1    0.0000
      9 C9         0.1388    6.1721    4.7906 C.3       1 RES1    0.0000
     10 N1        -0.5554    6.1408    1.9903 N.pl3     1 RES1    0.0000
     11 N2        -4.8155    3.9099    2.9372 N.pl3     1 RES1    0.0000
     12 N3        -1.7610    5.0049    6.6015 N.pl3     1 RES1    0.0000
     13 O1        -0.3671    7.3322    2.0147 O.2       1 RES1    0.0000
     14 O2        -0.0161    5.3713    1.2245 O.2       1 RES1    0.0000
     15 O3        -5.6937    4.6686    2.6398 O.2       1 RES1    0.0000
     16 O4        -4.9101    2.7056    2.8802 O.2       1 RES1    0.0000
     17 O5        -1.3150    3.9920    7.0806 O.2       1 RES1    0.0000
     18 O6        -1.9705    6.0208    7.2198 O.2       1 RES1    0.0000
     19 H1        -2.9904    4.3284    0.5263 H         1 RES1    0.0000
     20 H2        -2.5612    5.6285    0.5506 H         1 RES1    0.0000
     21 H3        -3.8827    5.3330    0.8891 H         1 RES1    0.0000
     22 H4        -5.1153    4.0255    5.5208 H         1 RES1    0.0000
     23 H5        -4.2520    4.2380    6.6357 H         1 RES1    0.0000
     24 H6        -4.2467    2.9879    5.7854 H         1 RES1    0.0000
     25 H7         0.4811    5.7447    5.5717 H         1 RES1    0.0000
     26 H8         0.7957    6.0647    4.1092 H         1 RES1    0.0000
     27 H9         0.0704    7.0466    5.0789 H         1 RES1    0.0000
@<TRIPOS>BOND
     1    1    2 ar
     2    2    3 ar
     3    3    4 ar
     4    4    5 ar
     5    5    6 ar
     6    6    1 ar
     7    7    2 1
     8    8    4 1
     9    9    6 1
    10   10    1 1
    11   11    3 1
    12   12    5 1
    13   13   10 2
    14   14   10 2
    15   15   11 2
    16   16   11 2
    17   17   12 2
    18   18   12 2
    19   19    7 1
    20   20    7 1
    21   21    7 1
    22   22    8 1
    23   23    8 1
    24   24    8 1
    25   25    9 1
    26   26    9 1
    27   27    9 1
@<TRIPOS>SUBSTRUCTURE
     1 RES1 1

@<TRIPOS>CRYSIN
   8.2770    8.8110    8.9440 108.1000 113.2600  95.1900   2 1

