# MOL2 file generated by ConQuest
# Please check atom types

@<TRIPOS>MOLECULE
HEXXOY
    60    62     1
SMALL
NO_CHARGES
****
Generated from CSD

@<TRIPOS>ATOM
      1 O1         3.2570    1.7632    0.2645 O.3       1 RES1    0.0000
      2 O2         5.3158    0.7632   -3.2757 O.2       1 RES1    0.0000
      3 O3        -1.5545    2.1450   -0.1906 O.2       1 RES1    0.0000
      4 O4         6.5915    1.7407    1.0750 O.3       1 RES1    0.0000
      5 O5         1.3314    2.4679    2.8335 O.3       1 RES1    0.0000
      6 O6         1.3275    2.1798    5.6272 O.2       1 RES1    0.0000
      7 O7         0.2979    3.9356    6.3198 O.2       1 RES1    0.0000
      8 N1         5.4981    1.8149   -1.2899 N.am      1 RES1    0.0000
      9 N2         0.6202    1.8626    0.3256 N.am      1 RES1    0.0000
     10 N3         0.4686    3.0308    5.5157 N.pl3     1 RES1    0.0000
     11 C1         2.5992    1.4931   -0.9320 C.ar      1 RES1    0.0000
     12 C2         1.2035    1.5506   -0.9165 C.ar      1 RES1    0.0000
     13 C3         0.4954    1.2887   -2.0832 C.ar      1 RES1    0.0000
     14 H1        -0.4339    1.3136   -2.0727 H         1 RES1    0.0000
     15 C4         1.1602    0.9911   -3.2579 C.ar      1 RES1    0.0000
     16 C5         2.5377    0.9691   -3.2582 C.ar      1 RES1    0.0000
     17 H2         2.9825    0.7761   -4.0524 H         1 RES1    0.0000
     18 C6         3.2893    1.2266   -2.1117 C.ar      1 RES1    0.0000
     19 C7         4.7865    1.2273   -2.2740 C.2       1 RES1    0.0000
     20 C8         6.9013    1.9875   -1.2111 C.ar      1 RES1    0.0000
     21 C9         7.7066    2.2298   -2.3146 C.ar      1 RES1    0.0000
     22 H3         7.3391    2.2252   -3.1692 H         1 RES1    0.0000
     23 C10        9.0545    2.4774   -2.1411 C.ar      1 RES1    0.0000
     24 H4         9.5920    2.6386   -2.8819 H         1 RES1    0.0000
     25 C11        9.6046    2.4895   -0.8922 C.ar      1 RES1    0.0000
     26 H5        10.5109    2.6674   -0.7881 H         1 RES1    0.0000
     27 C12        8.8201    2.2373    0.2161 C.ar      1 RES1    0.0000
     28 H6         9.2009    2.2351    1.0649 H         1 RES1    0.0000
     29 C13        7.4714    1.9898    0.0644 C.ar      1 RES1    0.0000
     30 C14       -0.6565    2.1563    0.6271 C.2       1 RES1    0.0000
     31 C15       -0.9512    2.4895    2.0813 C.ar      1 RES1    0.0000
     32 C16       -2.2950    2.6341    2.3993 C.ar      1 RES1    0.0000
     33 H7        -2.9211    2.5182    1.7219 H         1 RES1    0.0000
     34 C17       -2.7574    2.9392    3.6693 C.ar      1 RES1    0.0000
     35 C18       -1.8085    3.1118    4.6651 C.ar      1 RES1    0.0000
     36 H8        -2.0750    3.3375    5.5271 H         1 RES1    0.0000
     37 C19       -0.4662    2.9475    4.3784 C.ar      1 RES1    0.0000
     38 C20       -0.0055    2.6500    3.0995 C.ar      1 RES1    0.0000
     39 C21        0.3743    0.7087   -4.5235 C.3       1 RES1    0.0000
     40 H9         0.1705    1.5362   -4.9651 H         1 RES1    0.0000
     41 H10       -0.4426    0.2567   -4.2996 H         1 RES1    0.0000
     42 H11        0.8968    0.1529   -5.1066 H         1 RES1    0.0000
     43 C22        3.5146    0.5709    1.0591 C.3       1 RES1    0.0000
     44 H12        2.7081    0.0560    1.1346 H         1 RES1    0.0000
     45 H13        3.8128    0.8283    1.9353 H         1 RES1    0.0000
     46 H14        4.1918    0.0416    0.6317 H         1 RES1    0.0000
     47 C23        7.0938    1.6786    2.4014 C.3       1 RES1    0.0000
     48 H15        7.7775    1.0078    2.4530 H         1 RES1    0.0000
     49 H16        6.3807    1.4552    3.0044 H         1 RES1    0.0000
     50 H17        7.4624    2.5311    2.6452 H         1 RES1    0.0000
     51 C24       -4.2400    3.0558    3.9617 C.3       1 RES1    0.0000
     52 H18       -4.6644    3.5676    3.2685 H         1 RES1    0.0000
     53 H19       -4.3663    3.4950    4.8066 H         1 RES1    0.0000
     54 H20       -4.6296    2.1790    3.9953 H         1 RES1    0.0000
     55 C25        2.2288    3.5767    3.0796 C.3       1 RES1    0.0000
     56 H21        2.2133    4.1741    2.3283 H         1 RES1    0.0000
     57 H22        3.1204    3.2443    3.2051 H         1 RES1    0.0000
     58 H23        1.9482    4.0469    3.8685 H         1 RES1    0.0000
     59 H24        5.0902    2.0518   -0.5874 H         1 RES1    0.0000
     60 H25        1.1929    1.9837    0.9867 H         1 RES1    0.0000
@<TRIPOS>BOND
     1    1   11 1
     2    2   19 2
     3    3   30 2
     4    4   29 1
     5    5   38 1
     6    6   10 2
     7    7   10 2
     8    8   19 1
     9    9   12 1
    10   10   37 1
    11   11   12 ar
    12   12   13 ar
    13   13   14 1
    14   15   13 ar
    15   16   15 ar
    16   17   16 1
    17   18   11 ar
    18   19   18 1
    19   20    8 1
    20   21   20 ar
    21   22   21 1
    22   23   21 ar
    23   24   23 1
    24   25   23 ar
    25   26   25 1
    26   27   25 ar
    27   28   27 1
    28   29   20 ar
    29   30    9 1
    30   31   30 1
    31   32   31 ar
    32   33   32 1
    33   34   32 ar
    34   35   34 ar
    35   36   35 1
    36   37   35 ar
    37   38   31 ar
    38   39   15 1
    39   40   39 1
    40   41   39 1
    41   42   39 1
    42   43    1 1
    43   44   43 1
    44   45   43 1
    45   46   43 1
    46   47    4 1
    47   48   47 1
    48   49   47 1
    49   50   47 1
    50   51   34 1
    51   52   51 1
    52   53   51 1
    53   54   51 1
    54   55    5 1
    55   56   55 1
    56   57   55 1
    57   58   55 1
    58   59    8 1
    59   60    9 1
    60   16   18 ar
    61   27   29 ar
    62   37   38 ar
@<TRIPOS>SUBSTRUCTURE
     1 RES1 1

@<TRIPOS>CRYSIN
  14.7672    7.5714   21.7720  90.0000 103.9700  90.0000 231 1

