# MOL2 file generated by ConQuest
# Please check atom types

@<TRIPOS>MOLECULE
HEXYAL
    57    59     1
SMALL
NO_CHARGES
****
Generated from CSD

@<TRIPOS>ATOM
      1 O1         1.7738   -2.0443   11.6220 O.2       1 RES1    0.0000
      2 O2         0.2030    5.1822   13.2458 O.2       1 RES1    0.0000
      3 O3         2.4072    2.7092   10.7655 O.3       1 RES1    0.0000
      4 O4         3.8598    0.2556    8.8377 O.3       1 RES1    0.0000
      5 O5         5.1628    0.1898    6.6772 O.2       1 RES1    0.0000
      6 O6         5.4534   -1.6614    5.6093 O.2       1 RES1    0.0000
      7 O7         4.4462    5.6428   11.0661 O.3       1 RES1    0.0000
      8 N1         2.2497    0.0713   10.9666 N.am      1 RES1    0.0000
      9 N2         2.1866    5.0981   12.1825 N.am      1 RES1    0.0000
     10 N3         4.9818   -1.0464    6.5517 N.pl3     1 RES1    0.0000
     11 C1         1.5943    0.8121   11.9610 C.ar      1 RES1    0.0000
     12 C2         0.9116    0.2795   13.0402 C.ar      1 RES1    0.0000
     13 H1         0.8729   -0.6440   13.1475 H         1 RES1    0.0000
     14 C3         0.2924    1.0877   13.9543 C.ar      1 RES1    0.0000
     15 C4         0.3737    2.4686   13.8165 C.ar      1 RES1    0.0000
     16 H2        -0.0380    3.0184   14.4448 H         1 RES1    0.0000
     17 C5         1.0669    3.0423   12.7441 C.ar      1 RES1    0.0000
     18 C6         1.6651    2.2073   11.8367 C.ar      1 RES1    0.0000
     19 C7        -0.4699    0.5049   15.1216 C.3       1 RES1    0.0000
     20 H3        -0.9995   -0.2360   14.8211 H         1 RES1    0.0000
     21 H4        -1.0440    1.1774   15.4968 H         1 RES1    0.0000
     22 H5         0.1505    0.2040   15.7906 H         1 RES1    0.0000
     23 C8         1.6000    3.0941    9.6265 C.3       1 RES1    0.0000
     24 H6         1.1330    2.3253    9.2908 H         1 RES1    0.0000
     25 H7         2.1666    3.4510    8.9383 H         1 RES1    0.0000
     26 H8         0.9652    3.7632    9.8965 H         1 RES1    0.0000
     27 C9         2.2884   -1.2821   10.8254 C.2       1 RES1    0.0000
     28 C10        2.9571   -1.8111    9.5846 C.ar      1 RES1    0.0000
     29 C11        3.6805   -1.0800    8.6614 C.ar      1 RES1    0.0000
     30 C12        4.1941   -1.7420    7.5405 C.ar      1 RES1    0.0000
     31 C13        3.9707   -3.0924    7.3246 C.ar      1 RES1    0.0000
     32 H9         4.3185   -3.5051    6.5664 H         1 RES1    0.0000
     33 C14        3.2425   -3.8151    8.2196 C.ar      1 RES1    0.0000
     34 C15        2.7618   -3.1590    9.3598 C.ar      1 RES1    0.0000
     35 H10        2.2899   -3.6526    9.9914 H         1 RES1    0.0000
     36 C16        2.9269   -5.2822    8.0004 C.3       1 RES1    0.0000
     37 H11        2.0107   -5.4494    8.2320 H         1 RES1    0.0000
     38 H12        3.5002   -5.8181    8.5530 H         1 RES1    0.0000
     39 H13        3.0705   -5.5059    7.0783 H         1 RES1    0.0000
     40 C17        1.1070    4.5461   12.7340 C.2       1 RES1    0.0000
     41 C18        2.5708    6.4611   12.1678 C.ar      1 RES1    0.0000
     42 C19        1.8256    7.4721   12.7001 C.ar      1 RES1    0.0000
     43 H14        0.9917    7.2953   13.0718 H         1 RES1    0.0000
     44 C20        2.3277    8.7753   12.6820 C.ar      1 RES1    0.0000
     45 H15        1.8378    9.4731   13.0526 H         1 RES1    0.0000
     46 C21        3.5565    9.0110   12.1079 C.ar      1 RES1    0.0000
     47 H16        3.8934    9.8787   12.0989 H         1 RES1    0.0000
     48 C22        4.2962    7.9983   11.5497 C.ar      1 RES1    0.0000
     49 H17        5.1237    8.1802   11.1678 H         1 RES1    0.0000
     50 C23        3.8093    6.7167   11.5588 C.ar      1 RES1    0.0000
     51 C24        5.7823    5.8038   10.5689 C.3       1 RES1    0.0000
     52 H18        5.7772    6.4154    9.8287 H         1 RES1    0.0000
     53 H19        6.1213    4.9529   10.2785 H         1 RES1    0.0000
     54 H20        6.3441    6.1499   11.2661 H         1 RES1    0.0000
     55 H21        2.7406    0.5506   10.4299 H         1 RES1    0.0000
     56 H22        2.7784    4.6333   11.7520 H         1 RES1    0.0000
     57 H23        4.0599    0.7374    8.1247 H         1 RES1    0.0000
@<TRIPOS>BOND
     1    1   27 2
     2    2   40 2
     3    3   18 1
     4    4   29 1
     5    5   10 2
     6    6   10 2
     7    7   50 1
     8    8   11 1
     9    9   40 1
    10   10   30 1
    11   11   12 ar
    12   12   13 1
    13   14   12 ar
    14   15   14 ar
    15   16   15 1
    16   17   15 ar
    17   18   11 ar
    18   19   14 1
    19   20   19 1
    20   21   19 1
    21   22   19 1
    22   23    3 1
    23   24   23 1
    24   25   23 1
    25   26   23 1
    26   27    8 1
    27   28   27 1
    28   29   28 ar
    29   30   29 ar
    30   31   30 ar
    31   32   31 1
    32   33   31 ar
    33   34   28 ar
    34   35   34 1
    35   36   33 1
    36   37   36 1
    37   38   36 1
    38   39   36 1
    39   40   17 1
    40   41    9 1
    41   42   41 ar
    42   43   42 1
    43   44   42 ar
    44   45   44 1
    45   46   44 ar
    46   47   46 1
    47   48   46 ar
    48   49   48 1
    49   50   41 ar
    50   51    7 1
    51   52   51 1
    52   53   51 1
    53   54   51 1
    54   55    8 1
    55   56    9 1
    56   57    4 1
    57   17   18 ar
    58   33   34 ar
    59   48   50 ar
@<TRIPOS>SUBSTRUCTURE
     1 RES1 1

@<TRIPOS>CRYSIN
   8.0199   24.5800   11.3000  90.0000  90.1000  90.0000 231 1

