# MOL2 file generated by ConQuest
# Please check atom types

@<TRIPOS>MOLECULE
HEYDUK
    17    18     1
SMALL
NO_CHARGES
****
Generated from CSD

@<TRIPOS>ATOM
      1 O1         8.7539    3.3998    9.2229 O.2       1 RES1    0.0000
      2 O2         4.6944    3.6114    7.0507 O.2       1 RES1    0.0000
      3 N1         6.4368    1.2492    9.7944 N.pl3     1 RES1    0.0000
      4 N2         4.7789    1.8558   11.1060 N.2       1 RES1    0.0000
      5 N3         5.0082    2.8791   10.2040 N.2       1 RES1    0.0000
      6 N4         5.9235    3.8117    7.3291 N.pl3     1 RES1    0.0000
      7 N5         7.8590    3.7191    8.3650 N.3       1 RES1    0.0000
      8 C1         7.4672    0.4394    9.1600 C.3       1 RES1    0.0000
      9 C2         5.6366    0.9118   10.8303 C.2       1 RES1    0.0000
     10 C3         6.0042    2.4889    9.4371 C.2       1 RES1    0.0000
     11 C4         6.5909    3.2977    8.3744 C.2       1 RES1    0.0000
     12 C5         6.8518    4.5299    6.3868 C.3       1 RES1    0.0000
     13 C6         8.0716    4.7878    7.3344 C.3       1 RES1    0.0000
     14 C7         7.1256    3.5566    5.2492 C.3       1 RES1    0.0000
     15 C8         6.1704    5.7837    5.8689 C.3       1 RES1    0.0000
     16 C9         9.4315    4.6187    6.6840 C.3       1 RES1    0.0000
     17 C10        7.9880    6.1230    8.0746 C.3       1 RES1    0.0000
@<TRIPOS>BOND
     1    1    7 1
     2    2    6 1
     3    3    8 1
     4    4    5 1
     5    5   10 2
     6    6   11 2
     7    7   11 1
     8    9    3 1
     9   10    3 1
    10   11   10 1
    11   12    6 1
    12   13    7 1
    13   14   12 1
    14   15   12 1
    15   16   13 1
    16   17   13 1
    17    4    9 2
    18   12   13 1
@<TRIPOS>SUBSTRUCTURE
     1 RES1 1

@<TRIPOS>CRYSIN
   9.2830    9.4490   13.3840  90.0000  90.0000  90.0000  19 1

