# MOL2 file generated by ConQuest
# Please check atom types

@<TRIPOS>MOLECULE
HEYLEF
    35    37     1
SMALL
NO_CHARGES
****
Generated from CSD

@<TRIPOS>ATOM
      1 C1         1.1718    7.1042    3.5803 C.ar      1 RES1    0.0000
      2 H1         2.0893    7.0359    3.4445 H         1 RES1    0.0000
      3 C2         0.3714    7.6569    2.5984 C.ar      1 RES1    0.0000
      4 H2         0.7529    7.9512    1.8034 H         1 RES1    0.0000
      5 C3        -0.9854    7.7752    2.7876 C.ar      1 RES1    0.0000
      6 H3        -1.5217    8.1416    2.1223 H         1 RES1    0.0000
      7 C4        -1.5479    7.3439    3.9789 C.ar      1 RES1    0.0000
      8 H4        -2.4630    7.4313    4.1158 H         1 RES1    0.0000
      9 C5        -0.7593    6.7875    4.9589 C.ar      1 RES1    0.0000
     10 H5        -1.1472    6.5015    5.7544 H         1 RES1    0.0000
     11 C6         0.6099    6.6489    4.7728 C.ar      1 RES1    0.0000
     12 C7         1.4630    5.9980    5.7960 C.ar      1 RES1    0.0000
     13 C8         3.4898    5.1873    6.4082 C.ar      1 RES1    0.0000
     14 H6         4.3849    5.0269    6.2116 H         1 RES1    0.0000
     15 C9         3.0230    4.8068    7.6576 C.ar      1 RES1    0.0000
     16 C10        1.6617    5.0473    7.8710 C.ar      1 RES1    0.0000
     17 C11        3.9628    4.2318    8.6722 C.3       1 RES1    0.0000
     18 H7         4.8676    4.3687    8.3832 H         1 RES1    0.0000
     19 H8         3.7952    3.2920    8.7670 H         1 RES1    0.0000
     20 H9         3.8275    4.6682    9.5165 H         1 RES1    0.0000
     21 C12        0.9654    4.6719    9.1346 C.ar      1 RES1    0.0000
     22 C13        0.2696    5.6358    9.8525 C.ar      1 RES1    0.0000
     23 H10        0.2472    6.5116    9.5418 H         1 RES1    0.0000
     24 C14       -0.3914    5.3114   11.0241 C.ar      1 RES1    0.0000
     25 H11       -0.8334    5.9737   11.5040 H         1 RES1    0.0000
     26 C15       -0.3976    4.0101   11.4837 C.ar      1 RES1    0.0000
     27 H12       -0.8474    3.7816   12.2644 H         1 RES1    0.0000
     28 C16        0.2822    3.0583   10.7516 C.ar      1 RES1    0.0000
     29 C17        0.9705    3.3564    9.5862 C.ar      1 RES1    0.0000
     30 H13        1.4246    2.6937    9.1183 H         1 RES1    0.0000
     31 N1         2.7407    5.7677    5.4704 N.ar      1 RES1    0.0000
     32 N2         0.8878    5.6558    6.9590 N.ar      1 RES1    0.0000
     33 N3         0.2810    1.6649   11.2214 N.pl3     1 RES1    0.0000
     34 O1         1.0414    0.8710   10.7056 O.2       1 RES1    0.0000
     35 O2        -0.5047    1.3617   12.1080 O.2       1 RES1    0.0000
@<TRIPOS>BOND
     1    1    2 1
     2    3    1 ar
     3    4    3 1
     4    5    3 ar
     5    6    5 1
     6    7    5 ar
     7    8    7 1
     8    9    7 ar
     9   10    9 1
    10   11    1 ar
    11   12   11 1
    12   13   14 1
    13   15   13 ar
    14   16   15 ar
    15   17   15 1
    16   18   17 1
    17   19   17 1
    18   20   17 1
    19   21   16 1
    20   22   21 ar
    21   23   22 1
    22   24   22 ar
    23   25   24 1
    24   26   24 ar
    25   27   26 1
    26   28   26 ar
    27   29   21 ar
    28   30   29 1
    29   31   12 ar
    30   32   12 ar
    31   33   28 1
    32   34   33 2
    33   35   33 2
    34    9   11 ar
    35   13   31 ar
    36   16   32 ar
    37   28   29 ar
@<TRIPOS>SUBSTRUCTURE
     1 RES1 1

@<TRIPOS>CRYSIN
   7.3790    8.1760   12.1480  91.6690  97.4730  97.9370   2 1

