# MOL2 file generated by ConQuest
# Please check atom types

@<TRIPOS>MOLECULE
HEZQOU
    70    74     1
SMALL
NO_CHARGES
****
Generated from CSD

@<TRIPOS>ATOM
      1 O1         9.2644    2.2721    2.5780 O.3       1 RES1    0.0000
      2 C1         8.2046    2.8008    3.3997 C.3       1 RES1    0.0000
      3 O2         7.5966    3.8434    2.6555 O.3       1 RES1    0.0000
      4 C2         8.5403    4.2578    1.6651 C.3       1 RES1    0.0000
      5 C3         9.2460    2.9816    1.3395 C.3       1 RES1    0.0000
      6 C4         8.8403    3.3615    4.6782 C.3       1 RES1    0.0000
      7 C5         7.7242    3.8754    5.5205 C.2       1 RES1    0.0000
      8 N1         7.4828    5.1049    5.7886 N.2       1 RES1    0.0000
      9 O3         8.4518    5.9838    5.2686 O.3       1 RES1    0.0000
     10 C6         6.6609    2.9004    5.9285 C.3       1 RES1    0.0000
     11 N2         7.1472    1.8418    6.8341 N.3       1 RES1    0.0000
     12 C7         6.0184    0.8791    6.8909 C.3       1 RES1    0.0000
     13 C8         4.9184    1.2652    7.8371 C.2       1 RES1    0.0000
     14 C9         4.8874    0.9369    9.1206 C.2       1 RES1    0.0000
     15 C10        5.9288    0.1254    9.8463 C.3       1 RES1    0.0000
     16 C11        7.1724    0.9307   10.2346 C.3       1 RES1    0.0000
     17 C12        8.1104    1.3094    9.0969 C.3       1 RES1    0.0000
     18 C13        7.5977    2.3852    8.1155 C.3       1 RES1    0.0000
     19 C14        5.5345    0.8152    5.4252 C.3       1 RES1    0.0000
     20 C15        6.0943    2.0975    4.7292 C.3       1 RES1    0.0000
     21 C16        7.2046    1.6930    3.7127 C.3       1 RES1    0.0000
     22 C17        6.5460    1.0906    2.4705 C.3       1 RES1    0.0000
     23 C18        5.4092    1.9107    1.8855 C.3       1 RES1    0.0000
     24 N3         4.3874    2.2303    2.9015 N.3       1 RES1    0.0000
     25 C19        5.0058    2.9201    4.0593 C.3       1 RES1    0.0000
     26 C20        3.3575    3.0848    2.2840 C.3       1 RES1    0.0000
     27 C21        2.1161    3.2447    3.1403 C.3       1 RES1    0.0000
     28 C22        1.0770    4.1644    2.4756 C.3       1 RES1    0.0000
     29 C23        1.3690    5.6361    2.6282 C.3       1 RES1    0.0000
     30 C24        0.3529    6.5324    1.9347 C.2       1 RES1    0.0000
     31 C25       -0.5379    7.2160    2.4976 C.2       1 RES1    0.0000
     32 H1         9.1702    4.9230    2.0229 H         1 RES1    0.0000
     33 H2         8.0701    4.6279    0.9105 H         1 RES1    0.0000
     34 H3        10.1575    3.1439    1.0394 H         1 RES1    0.0000
     35 H4         8.7541    2.4676    0.6681 H         1 RES1    0.0000
     36 H5         9.4782    4.0635    4.4781 H         1 RES1    0.0000
     37 H6         9.2897    2.6373    5.1394 H         1 RES1    0.0000
     38 H7         5.9322    3.3971    6.3551 H         1 RES1    0.0000
     39 H8         6.3759   -0.0012    7.1724 H         1 RES1    0.0000
     40 H9         4.2230    1.7816    7.4810 H         1 RES1    0.0000
     41 H10        4.1471    1.2320    9.6259 H         1 RES1    0.0000
     42 H11        5.5150   -0.2189   10.6568 H         1 RES1    0.0000
     43 H12        6.2035   -0.6320    9.2783 H         1 RES1    0.0000
     44 H13        7.6839    0.3873   10.8620 H         1 RES1    0.0000
     45 H14        6.8989    1.7533   10.6874 H         1 RES1    0.0000
     46 H15        8.9253    1.6512    9.4937 H         1 RES1    0.0000
     47 H16        8.3046    0.4943    8.5797 H         1 RES1    0.0000
     48 H17        8.3242    3.0000    7.9185 H         1 RES1    0.0000
     49 H18        6.8609    2.8807    8.5492 H         1 RES1    0.0000
     50 H19        5.8690    0.0184    4.9952 H         1 RES1    0.0000
     51 H20        4.5724    0.8127    5.3920 H         1 RES1    0.0000
     52 H21        7.7138    0.9824    4.1339 H         1 RES1    0.0000
     53 H22        7.2322    0.9861    1.7973 H         1 RES1    0.0000
     54 H23        6.1747    0.2152    2.6977 H         1 RES1    0.0000
     55 H24        5.7517    2.7320    1.4989 H         1 RES1    0.0000
     56 H25        4.9471    1.4004    1.1954 H         1 RES1    0.0000
     57 H26        5.3828    3.7820    3.7761 H         1 RES1    0.0000
     58 H27        4.3092    3.0775    4.7206 H         1 RES1    0.0000
     59 H28        3.7299    3.9615    2.0703 H         1 RES1    0.0000
     60 H29        3.0747    2.6496    1.4531 H         1 RES1    0.0000
     61 H30        2.3885    3.6652    3.9881 H         1 RES1    0.0000
     62 H31        1.7287    2.3496    3.3200 H         1 RES1    0.0000
     63 H32        0.2023    3.9996    2.8910 H         1 RES1    0.0000
     64 H33        1.0322    3.9639    1.5176 H         1 RES1    0.0000
     65 H34        1.3621    5.8574    3.5743 H         1 RES1    0.0000
     66 H35        2.2598    5.8230    2.2636 H         1 RES1    0.0000
     67 H36        0.3793    6.5939    0.9902 H         1 RES1    0.0000
     68 H37       -1.1448    7.7213    1.9754 H         1 RES1    0.0000
     69 H38       -0.6115    7.2086    3.4353 H         1 RES1    0.0000
     70 H39        8.0816    6.7426    5.3717 H         1 RES1    0.0000
@<TRIPOS>BOND
     1    1    2 1
     2    2    3 1
     3    3    4 1
     4    4    5 1
     5    5    1 1
     6    6    2 1
     7    7    6 1
     8    8    7 2
     9    9    8 1
    10   10    7 1
    11   11   10 1
    12   12   11 1
    13   13   12 1
    14   14   13 2
    15   15   14 1
    16   16   15 1
    17   17   16 1
    18   18   11 1
    19   19   12 1
    20   20   10 1
    21   21    2 1
    22   22   21 1
    23   23   22 1
    24   24   23 1
    25   25   20 1
    26   26   24 1
    27   27   26 1
    28   28   27 1
    29   29   28 1
    30   30   29 1
    31   31   30 2
    32   32    4 1
    33   33    4 1
    34   34    5 1
    35   35    5 1
    36   36    6 1
    37   37    6 1
    38   38   10 1
    39   39   12 1
    40   40   13 1
    41   41   14 1
    42   42   15 1
    43   43   15 1
    44   44   16 1
    45   45   16 1
    46   46   17 1
    47   47   17 1
    48   48   18 1
    49   49   18 1
    50   50   19 1
    51   51   19 1
    52   52   21 1
    53   53   22 1
    54   54   22 1
    55   55   23 1
    56   56   23 1
    57   57   25 1
    58   58   25 1
    59   59   26 1
    60   60   26 1
    61   61   27 1
    62   62   27 1
    63   63   28 1
    64   64   28 1
    65   65   29 1
    66   66   29 1
    67   67   30 1
    68   68   31 1
    69   69   31 1
    70   70    9 1
    71   17   18 1
    72   19   20 1
    73   20   21 1
    74   24   25 1
@<TRIPOS>SUBSTRUCTURE
     1 RES1 1

@<TRIPOS>CRYSIN
  11.4943   12.2951   16.9560  90.0000  90.0000  90.0000  19 1

