# MOL2 file generated by ConQuest
# Please check atom types

@<TRIPOS>MOLECULE
HEZQIO
    54    56     1
SMALL
NO_CHARGES
****
Generated from CSD

@<TRIPOS>ATOM
      1 O1         5.6645    4.3765   10.0396 O.2       1 RES1    0.0000
      2 C1         4.7766    3.5872   10.3628 C.2       1 RES1    0.0000
      3 N1         4.6898    2.9058   11.5170 N.am      1 RES1    0.0000
      4 C2         5.8141    2.8960   12.4797 C.3       1 RES1    0.0000
      5 C3         5.3791    2.8326   13.9450 C.3       1 RES1    0.0000
      6 C4         4.5667    4.0162   14.4677 C.3       1 RES1    0.0000
      7 C5         3.2798    4.3052   13.6741 C.3       1 RES1    0.0000
      8 C6         2.4274    3.0842   13.5200 C.2       1 RES1    0.0000
      9 C7         2.5830    2.0977   12.6409 C.2       1 RES1    0.0000
     10 C8         3.6301    1.8971   11.5683 C.3       1 RES1    0.0000
     11 C9         3.0604    1.9211   10.1272 C.3       1 RES1    0.0000
     12 C10        3.5573    3.2242    9.4806 C.3       1 RES1    0.0000
     13 C11        4.0512    3.0993    8.0113 C.3       1 RES1    0.0000
     14 C12        5.3252    2.2493    7.9086 C.3       1 RES1    0.0000
     15 N2         6.5202    3.0494    7.5037 N.pl3     1 RES1    0.0000
     16 O2         6.3833    3.9350    6.6699 O.2       1 RES1    0.0000
     17 O3         7.6024    2.7390    7.9932 O.2       1 RES1    0.0000
     18 C13        2.9881    2.5874    7.0304 C.3       1 RES1    0.0000
     19 O4         1.7824    3.3339    7.2034 O.3       1 RES1    0.0000
     20 C14        0.7137    2.4215    7.4846 C.3       1 RES1    0.0000
     21 C15        1.2627    1.0836    7.0747 C.3       1 RES1    0.0000
     22 O5         2.6734    1.2371    7.3138 O.3       1 RES1    0.0000
     23 C16        3.4415    2.7595    5.5973 C.2       1 RES1    0.0000
     24 C17        3.7626    1.7749    4.7846 C.2       1 RES1    0.0000
     25 C18        2.5624    4.3747    9.6236 C.2       1 RES1    0.0000
     26 O6         3.0235    5.4807    9.0166 O.3       1 RES1    0.0000
     27 C19        2.2346    6.6803    9.1785 C.3       1 RES1    0.0000
     28 O7         1.5354    4.3355   10.2568 O.2       1 RES1    0.0000
     29 H1         6.3929    2.1156   12.2874 H         1 RES1    0.0000
     30 H2         6.3405    3.7192   12.3609 H         1 RES1    0.0000
     31 H3         4.8344    2.0317   14.0719 H         1 RES1    0.0000
     32 H4         6.1935    2.7524   14.5050 H         1 RES1    0.0000
     33 H5         4.3178    3.8512   15.3942 H         1 RES1    0.0000
     34 H6         5.1459    4.8037   14.4395 H         1 RES1    0.0000
     35 H7         2.7777    4.9892   14.1444 H         1 RES1    0.0000
     36 H8         3.5347    4.6236   12.7728 H         1 RES1    0.0000
     37 H9         1.7122    3.0057   14.1293 H         1 RES1    0.0000
     38 H10        1.9529    1.4029   12.6761 H         1 RES1    0.0000
     39 H11        4.0383    1.0052   11.7365 H         1 RES1    0.0000
     40 H12        3.3979    1.1479    9.6156 H         1 RES1    0.0000
     41 H13        2.0698    1.9122   10.1524 H         1 RES1    0.0000
     42 H14        4.2948    4.0055    7.7132 H         1 RES1    0.0000
     43 H15        5.1866    1.5813    7.2006 H         1 RES1    0.0000
     44 H16        5.4899    1.8141    8.7747 H         1 RES1    0.0000
     45 H17       -0.0869    2.6543    6.9579 H         1 RES1    0.0000
     46 H18        0.5058    2.4438    8.4574 H         1 RES1    0.0000
     47 H19        0.9123    0.3514    7.6145 H         1 RES1    0.0000
     48 H20        1.0773    0.9133    6.1160 H         1 RES1    0.0000
     49 H21        3.5117    3.6505    5.2862 H         1 RES1    0.0000
     50 H22        3.7138    0.8865    5.1170 H         1 RES1    0.0000
     51 H23        4.0499    1.9345    3.8964 H         1 RES1    0.0000
     52 H24        2.6236    7.3884    8.6428 H         1 RES1    0.0000
     53 H25        1.3345    6.5063    8.8663 H         1 RES1    0.0000
     54 H26        2.1943    6.9371   10.1070 H         1 RES1    0.0000
@<TRIPOS>BOND
     1    1    2 2
     2    2    3 1
     3    3    4 1
     4    4    5 1
     5    5    6 1
     6    6    7 1
     7    7    8 1
     8    8    9 2
     9    9   10 1
    10   10    3 1
    11   11   10 1
    12   12    2 1
    13   13   12 1
    14   14   13 1
    15   15   14 1
    16   16   15 2
    17   17   15 2
    18   18   13 1
    19   19   18 1
    20   20   19 1
    21   21   20 1
    22   22   18 1
    23   23   18 1
    24   24   23 2
    25   25   12 1
    26   26   25 1
    27   27   26 1
    28   28   25 2
    29   29    4 1
    30   30    4 1
    31   31    5 1
    32   32    5 1
    33   33    6 1
    34   34    6 1
    35   35    7 1
    36   36    7 1
    37   37    8 1
    38   38    9 1
    39   39   10 1
    40   40   11 1
    41   41   11 1
    42   42   13 1
    43   43   14 1
    44   44   14 1
    45   45   20 1
    46   46   20 1
    47   47   21 1
    48   48   21 1
    49   49   23 1
    50   50   24 1
    51   51   24 1
    52   52   27 1
    53   53   27 1
    54   54   27 1
    55   11   12 1
    56   21   22 1
@<TRIPOS>SUBSTRUCTURE
     1 RES1 1

@<TRIPOS>CRYSIN
  10.3715    8.9189   11.0807  90.0000 114.6519  90.0000   4 1

