# MOL2 file generated by ConQuest
# Please check atom types

@<TRIPOS>MOLECULE
HIBRIW
    43    45     1
SMALL
NO_CHARGES
****
Generated from CSD

@<TRIPOS>ATOM
      1 O1         4.4214    3.6275    8.5209 O.3       1 RES1    0.0000
      2 O2         7.5852    6.3624    5.8145 O.2       1 RES1    0.0000
      3 O3         2.5664    6.2222   11.7567 O.2       1 RES1    0.0000
      4 C1         4.7549    4.5096    9.4806 C.2       1 RES1    0.0000
      5 C2         7.1097    3.7606    9.7985 C.ar      1 RES1    0.0000
      6 C3         5.4237    6.7927    7.9843 C.ar      1 RES1    0.0000
      7 C4         6.1875    4.9461    9.5083 C.3       1 RES1    0.0000
      8 H1         6.2876    5.5877   10.2418 H         1 RES1    0.0000
      9 C5         3.6463    4.8734   10.1747 C.2       1 RES1    0.0000
     10 N1         8.1652    6.8398    6.7709 N.pl3     1 RES1    0.0000
     11 C6         6.4731    5.7040    8.1750 C.3       1 RES1    0.0000
     12 H2         6.3895    5.0659    7.4349 H         1 RES1    0.0000
     13 C7         7.5521    3.5663   11.0946 C.ar      1 RES1    0.0000
     14 H3         7.3231    4.1759   11.7574 H         1 RES1    0.0000
     15 C8         7.8491    6.3127    8.1194 C.2       1 RES1    0.0000
     16 C9         2.5647    4.1564    9.5959 C.2       1 RES1    0.0000
     17 H4         1.6729    4.1875    9.8575 H         1 RES1    0.0000
     18 C10        4.4161    6.6179    7.0444 C.ar      1 RES1    0.0000
     19 H5         4.4257    5.8779    6.4802 H         1 RES1    0.0000
     20 C11        7.4807    2.8600    8.8345 C.ar      1 RES1    0.0000
     21 H6         7.2090    2.9877    7.9552 H         1 RES1    0.0000
     22 C12        3.5792    5.8592   11.2325 C.2       1 RES1    0.0000
     23 H7         4.3769    6.2364   11.5259 H         1 RES1    0.0000
     24 C13        8.7312    6.5035    9.0455 C.2       1 RES1    0.0000
     25 C14        8.2645    1.7508    9.1629 C.ar      1 RES1    0.0000
     26 H8         8.4979    1.1367    8.5042 H         1 RES1    0.0000
     27 C15        3.0715    3.4412    8.6211 C.2       1 RES1    0.0000
     28 H9         2.5760    2.8804    8.0674 H         1 RES1    0.0000
     29 C16        5.4115    7.9082    8.7815 C.ar      1 RES1    0.0000
     30 H10        6.0978    8.0510    9.3921 H         1 RES1    0.0000
     31 C17        8.6868    1.5680   10.4399 C.ar      1 RES1    0.0000
     32 H11        9.2146    0.8323   10.6547 H         1 RES1    0.0000
     33 C18        3.4007    7.5452    6.9504 C.ar      1 RES1    0.0000
     34 H12        2.7275    7.4254    6.3202 H         1 RES1    0.0000
     35 C19        8.3350    2.4660   11.4096 C.ar      1 RES1    0.0000
     36 H13        8.6233    2.3382   12.2849 H         1 RES1    0.0000
     37 O4         8.9455    7.8034    6.6950 O.2       1 RES1    0.0000
     38 C20        3.3694    8.6402    7.7714 C.ar      1 RES1    0.0000
     39 H14        2.6709    9.2516    7.7141 H         1 RES1    0.0000
     40 C21        4.3726    8.8248    8.6784 C.ar      1 RES1    0.0000
     41 H15        4.3604    9.5720    9.2321 H         1 RES1    0.0000
     42 H16        8.5954    6.3446    9.9291 H         1 RES1    0.0000
     43 H17        9.5882    6.8415    8.6641 H         1 RES1    0.0000
@<TRIPOS>BOND
     1    1    4 1
     2    2   10 2
     3    3   22 2
     4    4    7 1
     5    5    7 1
     6    6   11 1
     7    7    8 1
     8    9    4 2
     9   10   15 1
    10   11    7 1
    11   12   11 1
    12   13    5 ar
    13   14   13 1
    14   15   11 1
    15   16    9 1
    16   17   16 1
    17   18    6 ar
    18   19   18 1
    19   20    5 ar
    20   21   20 1
    21   22    9 1
    22   23   22 1
    23   24   15 2
    24   25   20 ar
    25   26   25 1
    26   27    1 1
    27   28   27 1
    28   29    6 ar
    29   30   29 1
    30   31   25 ar
    31   32   31 1
    32   33   18 ar
    33   34   33 1
    34   35   13 ar
    35   36   35 1
    36   37   10 2
    37   38   33 ar
    38   39   38 1
    39   40   29 ar
    40   41   40 1
    41   42   24 1
    42   43   24 1
    43   16   27 2
    44   31   35 ar
    45   38   40 ar
@<TRIPOS>SUBSTRUCTURE
     1 RES1 1

@<TRIPOS>CRYSIN
   8.7086    8.8736   23.8680  90.0000  90.0000  90.0000  19 1

