# MOL2 file generated by ConQuest
# Please check atom types

@<TRIPOS>MOLECULE
HIBWUK
    40    40     1
SMALL
NO_CHARGES
****
Generated from CSD

@<TRIPOS>ATOM
      1 C1         0.0695    4.6026    2.6162 C.ar      1 RES1    0.0000
      2 C2        -0.9619    3.8400    2.1037 C.ar      1 RES1    0.0000
      3 C3        -1.7912    3.1791    2.9792 C.ar      1 RES1    0.0000
      4 C4        -1.6088    3.1867    4.3629 C.ar      1 RES1    0.0000
      5 C5        -0.5183    3.9450    4.7866 C.ar      1 RES1    0.0000
      6 C6         0.3506    4.6751    3.9732 C.ar      1 RES1    0.0000
      7 C7        -2.4988    2.4793    5.4028 C.3       1 RES1    0.0000
      8 C8        -3.6956    3.3749    5.7139 C.3       1 RES1    0.0000
      9 C9        -2.9966    1.1044    4.9288 C.3       1 RES1    0.0000
     10 C10       -1.7218    2.2229    6.6976 C.3       1 RES1    0.0000
     11 C11        1.5207    5.4593    4.6117 C.3       1 RES1    0.0000
     12 C12        1.9137    4.8471    5.9569 C.3       1 RES1    0.0000
     13 C13        2.7845    5.4269    3.7407 C.3       1 RES1    0.0000
     14 C14        1.0695    6.9056    4.8443 C.3       1 RES1    0.0000
     15 N1         0.8000    5.3620    1.5851 N.pl3     1 RES1    0.0000
     16 N2        -2.9027    2.4825    2.3125 N.pl3     1 RES1    0.0000
     17 O1         1.3668    4.7292    0.7185 O.2       1 RES1    0.0000
     18 O2         0.7551    6.5713    1.6118 O.2       1 RES1    0.0000
     19 O3        -4.0370    2.9238    2.4888 O.2       1 RES1    0.0000
     20 O4        -2.6468    1.5522    1.5896 O.2       1 RES1    0.0000
     21 H1        -1.0729    3.8725    1.0815 H         1 RES1    0.0000
     22 H2        -0.3907    3.9266    5.7628 H         1 RES1    0.0000
     23 H3        -3.3803    4.2943    6.0739 H         1 RES1    0.0000
     24 H4        -4.1993    3.5480    4.8147 H         1 RES1    0.0000
     25 H5        -4.1182    2.8449    6.4147 H         1 RES1    0.0000
     26 H6        -3.8230    1.2007    4.2962 H         1 RES1    0.0000
     27 H7        -2.1189    0.6058    4.7554 H         1 RES1    0.0000
     28 H8        -3.3988    0.5409    5.6888 H         1 RES1    0.0000
     29 H9        -0.9335    1.6334    6.5036 H         1 RES1    0.0000
     30 H10       -1.6964    3.1802    7.0665 H         1 RES1    0.0000
     31 H11       -2.4014    1.6875    7.2887 H         1 RES1    0.0000
     32 H12        1.1772    4.9542    6.5776 H         1 RES1    0.0000
     33 H13        2.1445    3.8292    5.7925 H         1 RES1    0.0000
     34 H14        2.7601    5.3220    6.3110 H         1 RES1    0.0000
     35 H15        2.9600    4.4025    3.5258 H         1 RES1    0.0000
     36 H16        2.6388    6.0900    2.9036 H         1 RES1    0.0000
     37 H17        3.4837    5.7979    4.4147 H         1 RES1    0.0000
     38 H18        1.0785    7.2149    3.8221 H         1 RES1    0.0000
     39 H19        0.1983    6.8904    5.3628 H         1 RES1    0.0000
     40 H20        1.8761    7.3988    5.3332 H         1 RES1    0.0000
@<TRIPOS>BOND
     1    1    2 ar
     2    2    3 ar
     3    3    4 ar
     4    4    5 ar
     5    5    6 ar
     6    6    1 ar
     7    7    4 1
     8    8    7 1
     9    9    7 1
    10   10    7 1
    11   11    6 1
    12   12   11 1
    13   13   11 1
    14   14   11 1
    15   15    1 1
    16   16    3 1
    17   17   15 2
    18   18   15 2
    19   19   16 2
    20   20   16 2
    21   21    2 1
    22   22    5 1
    23   23    8 1
    24   24    8 1
    25   25    8 1
    26   26    9 1
    27   27    9 1
    28   28    9 1
    29   29   10 1
    30   30   10 1
    31   31   10 1
    32   32   12 1
    33   33   12 1
    34   34   12 1
    35   35   13 1
    36   36   13 1
    37   37   13 1
    38   38   14 1
    39   39   14 1
    40   40   14 1
@<TRIPOS>SUBSTRUCTURE
     1 RES1 1

@<TRIPOS>CRYSIN
   9.4460   10.8170   15.1000  90.0000 101.1600  90.0000 231 1

