# MOL2 file generated by ConQuest
# Please check atom types

@<TRIPOS>MOLECULE
HIDQIW
    40    42     1
SMALL
NO_CHARGES
****
Generated from CSD

@<TRIPOS>ATOM
      1 N1         2.5897    6.3273   -1.0770 N.pl3     1 RES1    0.0000
      2 O1         1.9840   -0.9826    1.6405 O.3       1 RES1    0.0000
      3 O2         1.6057    0.5620   -2.6657 O.2       1 RES1    0.0000
      4 O3         1.3682   -1.6255   -2.3210 O.3       1 RES1    0.0000
      5 O4         3.4816    6.6407   -1.8445 O.2       1 RES1    0.0000
      6 O5         1.8530    7.1343   -0.5381 O.2       1 RES1    0.0000
      7 C1         2.1713    0.3854    1.6243 C.2       1 RES1    0.0000
      8 C2         1.7697   -1.3681    0.3643 C.2       1 RES1    0.0000
      9 H1         1.6161   -2.2460    0.0991 H         1 RES1    0.0000
     10 C3         1.8084   -0.3165   -0.4717 C.2       1 RES1    0.0000
     11 C4         2.0592    0.8411    0.3478 C.2       1 RES1    0.0000
     12 C5         2.1558    2.2543   -0.0830 C.ar      1 RES1    0.0000
     13 C6         3.1157    2.6549   -1.0033 C.ar      1 RES1    0.0000
     14 H2         3.6676    2.0191   -1.3983 H         1 RES1    0.0000
     15 C7         3.2609    3.9833   -1.3372 C.ar      1 RES1    0.0000
     16 H3         3.9141    4.2509   -1.9426 H         1 RES1    0.0000
     17 C8         2.4235    4.9053   -0.7602 C.ar      1 RES1    0.0000
     18 C9         1.4377    4.5414    0.1242 C.ar      1 RES1    0.0000
     19 H4         0.8705    5.1800    0.4922 H         1 RES1    0.0000
     20 C10        1.3072    3.2086    0.4563 C.ar      1 RES1    0.0000
     21 H5         0.6413    2.9470    1.0504 H         1 RES1    0.0000
     22 C11        2.4549    0.9964    2.9270 C.ar      1 RES1    0.0000
     23 C12        3.1487    2.2011    3.0243 C.ar      1 RES1    0.0000
     24 H6         3.4572    2.6160    2.2504 H         1 RES1    0.0000
     25 C13        3.3836    2.7877    4.2499 C.ar      1 RES1    0.0000
     26 H7         3.8347    3.5996    4.2974 H         1 RES1    0.0000
     27 C14        2.9540    2.1798    5.3953 C.ar      1 RES1    0.0000
     28 H8         3.1163    2.5747    6.2209 H         1 RES1    0.0000
     29 C15        2.2814    0.9800    5.3236 C.ar      1 RES1    0.0000
     30 H9         1.9907    0.5698    6.1061 H         1 RES1    0.0000
     31 C16        2.0300    0.3750    4.0932 C.ar      1 RES1    0.0000
     32 H10        1.5814   -0.4386    4.0539 H         1 RES1    0.0000
     33 C17        1.5932   -0.3747   -1.9290 C.2       1 RES1    0.0000
     34 C18        1.2209   -1.8590   -3.7423 C.3       1 RES1    0.0000
     35 H11        2.0658   -1.7153   -4.1948 H         1 RES1    0.0000
     36 H12        0.5636   -1.2507   -4.1165 H         1 RES1    0.0000
     37 C19        0.7760   -3.2658   -3.9156 C.3       1 RES1    0.0000
     38 H13        1.4362   -3.8573   -3.5478 H         1 RES1    0.0000
     39 H14        0.6627   -3.4530   -4.8504 H         1 RES1    0.0000
     40 H15       -0.0586   -3.3962   -3.4609 H         1 RES1    0.0000
@<TRIPOS>BOND
     1    1    5 2
     2    2    7 1
     3    3   33 2
     4    4   33 1
     5    6    1 2
     6    7   11 2
     7    8    2 1
     8    9    8 1
     9   10    8 2
    10   11   10 1
    11   12   11 1
    12   13   12 ar
    13   14   13 1
    14   15   13 ar
    15   16   15 1
    16   17    1 1
    17   18   17 ar
    18   19   18 1
    19   20   12 ar
    20   21   20 1
    21   22    7 1
    22   23   22 ar
    23   24   23 1
    24   25   23 ar
    25   26   25 1
    26   27   25 ar
    27   28   27 1
    28   29   27 ar
    29   30   29 1
    30   31   22 ar
    31   32   31 1
    32   33   10 1
    33   34    4 1
    34   35   34 1
    35   36   34 1
    36   37   34 1
    37   38   37 1
    38   39   37 1
    39   40   37 1
    40   15   17 ar
    41   18   20 ar
    42   29   31 ar
@<TRIPOS>SUBSTRUCTURE
     1 RES1 1

@<TRIPOS>CRYSIN
   8.0434   11.8212   17.4583  90.0000  95.0220  90.0000 231 1

