# MOL2 file generated by ConQuest
# Please check atom types

@<TRIPOS>MOLECULE
HIDYEZ
    41    42     1
SMALL
NO_CHARGES
****
Generated from CSD

@<TRIPOS>ATOM
      1 N1         1.7007   11.3143    0.5268 N.2       1 RES1    0.0000
      2 O1         0.7121   11.7745   -0.3327 O.3       1 RES1    0.0000
      3 O2         4.0086   11.2277    1.7729 O.3       1 RES1    0.0000
      4 H1         3.4498   11.5067    1.2418 H         1 RES1    0.0000
      5 C1         1.1590   12.9634   -1.0071 C.3       1 RES1    0.0000
      6 H2         1.9182   12.7634   -1.5764 H         1 RES1    0.0000
      7 H3         1.4242   13.6380   -0.3628 H         1 RES1    0.0000
      8 C2         0.0000   13.4550   -1.8331 C.3       1 RES1    0.0000
      9 H4        -0.3061   12.7338   -2.4053 H         1 RES1    0.0000
     10 H5         0.3061   14.1762   -2.4053 H         1 RES1    0.0000
     11 C3         1.3469   10.2837    1.1764 C.2       1 RES1    0.0000
     12 H6         0.4990    9.9271    1.0353 H         1 RES1    0.0000
     13 C4         2.2312    9.6486    2.1338 C.ar      1 RES1    0.0000
     14 C5         3.5183   10.1386    2.4149 C.ar      1 RES1    0.0000
     15 C6         4.3103    9.5299    3.3541 C.ar      1 RES1    0.0000
     16 H7         5.1506    9.8787    3.5463 H         1 RES1    0.0000
     17 C7         3.8716    8.4102    4.0109 C.ar      1 RES1    0.0000
     18 H8         4.4234    7.9950    4.6333 H         1 RES1    0.0000
     19 C8         2.6158    7.8965    3.7561 C.ar      1 RES1    0.0000
     20 H9         2.3179    7.1392    4.2059 H         1 RES1    0.0000
     21 C9         1.8113    8.5165    2.8317 C.ar      1 RES1    0.0000
     22 H10        0.9635    8.1726    2.6663 H         1 RES1    0.0000
     23 N1A       -1.7007   15.5957    0.5268 N.2       1 RES1    0.0000
     24 O1A       -0.7121   15.1355   -0.3327 O.3       1 RES1    0.0000
     25 O2A       -4.0086   15.6823    1.7729 O.3       1 RES1    0.0000
     26 H1A       -3.4498   15.4033    1.2418 H         1 RES1    0.0000
     27 C1A       -1.1590   13.9466   -1.0071 C.3       1 RES1    0.0000
     28 H2A       -1.9182   14.1466   -1.5764 H         1 RES1    0.0000
     29 H3A       -1.4242   13.2720   -0.3628 H         1 RES1    0.0000
     30 C3A       -1.3469   16.6263    1.1764 C.2       1 RES1    0.0000
     31 H6A       -0.4990   16.9829    1.0353 H         1 RES1    0.0000
     32 C4A       -2.2312   17.2614    2.1338 C.ar      1 RES1    0.0000
     33 C5A       -3.5183   16.7714    2.4149 C.ar      1 RES1    0.0000
     34 C6A       -4.3103   17.3801    3.3541 C.ar      1 RES1    0.0000
     35 H7A       -5.1506   17.0313    3.5463 H         1 RES1    0.0000
     36 C7A       -3.8716   18.4998    4.0109 C.ar      1 RES1    0.0000
     37 H8A       -4.4234   18.9150    4.6333 H         1 RES1    0.0000
     38 C8A       -2.6158   19.0135    3.7561 C.ar      1 RES1    0.0000
     39 H9A       -2.3179   19.7708    4.2059 H         1 RES1    0.0000
     40 C9A       -1.8113   18.3935    2.8317 C.ar      1 RES1    0.0000
     41 H10A      -0.9635   18.7374    2.6663 H         1 RES1    0.0000
@<TRIPOS>BOND
     1    1    2 1
     2    2    5 1
     3    3    4 1
     4    5    6 1
     5    7    5 1
     6    8    5 1
     7    9    8 1
     8   10    8 1
     9   11    1 2
    10   12   11 1
    11   13   11 1
    12   14    3 1
    13   15   14 ar
    14   16   15 1
    15   17   15 ar
    16   18   17 1
    17   19   17 ar
    18   20   19 1
    19   21   13 ar
    20   22   21 1
    21   23   24 1
    22   24   27 1
    23   25   26 1
    24   27    8 1
    25   28   27 1
    26   29   27 1
    27   30   23 2
    28   31   30 1
    29   32   30 1
    30   33   25 1
    31   34   33 ar
    32   35   34 1
    33   36   34 ar
    34   37   36 1
    35   38   36 ar
    36   39   38 1
    37   40   32 ar
    38   41   40 1
    39   13   14 ar
    40   19   21 ar
    41   32   33 ar
    42   38   40 ar
@<TRIPOS>SUBSTRUCTURE
     1 RES1 1

@<TRIPOS>CRYSIN
   6.2850   26.9100    4.7800  90.0000  90.0000  90.0000  34 1

