# MOL2 file generated by ConQuest
# Please check atom types

@<TRIPOS>MOLECULE
HIFFOU
    51    55     1
SMALL
NO_CHARGES
****
Generated from CSD

@<TRIPOS>ATOM
      1 C1         3.0631    3.1044    8.6798 C.ar      1 RES1    0.0000
      2 H1         3.2044    3.9078    8.1933 H         1 RES1    0.0000
      3 C2         1.8458    2.8836    9.3060 C.ar      1 RES1    0.0000
      4 H2         1.1602    3.5379    9.2374 H         1 RES1    0.0000
      5 C3         1.6135    1.7252   10.0314 C.ar      1 RES1    0.0000
      6 H3         0.7707    1.5702   10.4404 H         1 RES1    0.0000
      7 C4         2.6346    0.7961   10.1457 C.ar      1 RES1    0.0000
      8 H4         2.4961    0.0070   10.6563 H         1 RES1    0.0000
      9 C5         3.8507    1.0019    9.5258 C.ar      1 RES1    0.0000
     10 H5         4.5407    0.3553    9.6198 H         1 RES1    0.0000
     11 C6         4.0810    2.1542    8.7611 C.ar      1 RES1    0.0000
     12 C7         5.3825    2.3218    8.1133 C.2       1 RES1    0.0000
     13 C8         6.5751    1.6424    8.3013 C.2       1 RES1    0.0000
     14 H6         6.7040    0.8994    8.8792 H         1 RES1    0.0000
     15 C9         7.5572    2.2320    7.5010 C.2       1 RES1    0.0000
     16 H7         8.4647    1.9593    7.4400 H         1 RES1    0.0000
     17 C10        6.9779    3.2800    6.8125 C.2       1 RES1    0.0000
     18 C11        7.6241    4.2158    5.8852 C.ar      1 RES1    0.0000
     19 C12        9.0090    4.2850    5.8712 C.ar      1 RES1    0.0000
     20 H8         9.5165    3.7687    6.4860 H         1 RES1    0.0000
     21 C13        9.6496    5.1016    4.9642 C.ar      1 RES1    0.0000
     22 C14        8.9603    5.8531    4.0204 C.ar      1 RES1    0.0000
     23 H9         9.4314    6.3912    3.3954 H         1 RES1    0.0000
     24 C15        7.5727    5.8048    4.0039 C.ar      1 RES1    0.0000
     25 C16        6.9215    5.0160    4.9592 C.ar      1 RES1    0.0000
     26 C17        6.8206    6.4918    2.9470 C.2       1 RES1    0.0000
     27 C18        5.7721    6.0577    2.1633 C.2       1 RES1    0.0000
     28 H10        5.2928    5.2447    2.2687 H         1 RES1    0.0000
     29 C19        5.5416    7.0417    1.1763 C.2       1 RES1    0.0000
     30 H11        4.8866    6.9945    0.4903 H         1 RES1    0.0000
     31 C20        6.4196    8.0756    1.3719 C.2       1 RES1    0.0000
     32 C21        6.5693    9.3578    0.6796 C.ar      1 RES1    0.0000
     33 C22        5.6239    9.7320   -0.2731 C.ar      1 RES1    0.0000
     34 H12        4.9203    9.1335   -0.4954 H         1 RES1    0.0000
     35 C23        5.6956   10.9671   -0.9019 C.ar      1 RES1    0.0000
     36 H13        5.0426   11.2136   -1.5472 H         1 RES1    0.0000
     37 C24        6.7256   11.8401   -0.5856 C.ar      1 RES1    0.0000
     38 H14        6.7612   12.6970   -0.9934 H         1 RES1    0.0000
     39 C25        7.6911   11.4706    0.3125 C.ar      1 RES1    0.0000
     40 H15        8.4106   12.0596    0.5056 H         1 RES1    0.0000
     41 C26        7.6185   10.2332    0.9425 C.ar      1 RES1    0.0000
     42 H16        8.2933    9.9826    1.5624 H         1 RES1    0.0000
     43 N1         7.1959    7.7174    2.4568 N.pl3     1 RES1    0.0000
     44 H17        7.8444    8.2093    2.7895 H         1 RES1    0.0000
     45 N2         5.6591    3.3165    7.1891 N.pl3     1 RES1    0.0000
     46 H18        5.0682    3.8937    6.8849 H         1 RES1    0.0000
     47 N3        11.1029    5.1491    4.9909 N.pl3     1 RES1    0.0000
     48 O1         5.5675    4.9505    5.0363 O.3       1 RES1    0.0000
     49 H19        5.2301    5.5129    4.5120 H         1 RES1    0.0000
     50 O2        11.6855    4.6131    5.9392 O.2       1 RES1    0.0000
     51 O3        11.7078    5.7465    4.0850 O.2       1 RES1    0.0000
@<TRIPOS>BOND
     1    1    2 1
     2    3    1 ar
     3    4    3 1
     4    5    3 ar
     5    6    5 1
     6    7    5 ar
     7    8    7 1
     8    9    7 ar
     9   10    9 1
    10   11    1 ar
    11   12   11 1
    12   13   12 2
    13   14   13 1
    14   15   13 1
    15   16   15 1
    16   17   15 2
    17   18   17 1
    18   19   18 ar
    19   20   19 1
    20   21   19 ar
    21   22   21 ar
    22   23   22 1
    23   24   22 ar
    24   25   18 ar
    25   26   24 1
    26   27   26 2
    27   28   27 1
    28   29   27 1
    29   30   29 1
    30   31   29 2
    31   32   31 1
    32   33   32 ar
    33   34   33 1
    34   35   33 ar
    35   36   35 1
    36   37   35 ar
    37   38   37 1
    38   39   37 ar
    39   40   39 1
    40   41   32 ar
    41   42   41 1
    42   43   26 1
    43   44   43 1
    44   45   12 1
    45   46   45 1
    46   47   21 1
    47   48   25 1
    48   49   48 1
    49   50   47 2
    50   51   47 2
    51    9   11 ar
    52   17   45 1
    53   24   25 ar
    54   31   43 1
    55   39   41 ar
@<TRIPOS>SUBSTRUCTURE
     1 RES1 1

@<TRIPOS>CRYSIN
   8.7945    9.5621   13.2379  73.6560  83.3250  66.6700   2 1

