# MOL2 file generated by ConQuest
# Please check atom types

@<TRIPOS>MOLECULE
HIFRAQ
    30    31     1
SMALL
NO_CHARGES
****
Generated from CSD

@<TRIPOS>ATOM
      1 C1         2.4905    4.5974   16.1628 C.ar      1 RES1    0.0000
      2 C2         1.5189    4.2371   17.0898 C.ar      1 RES1    0.0000
      3 C3         1.0778    5.1418   18.0357 C.ar      1 RES1    0.0000
      4 C4         1.6181    6.4148   18.0118 C.ar      1 RES1    0.0000
      5 N1         1.1309    7.3912   18.9986 N.pl3     1 RES1    0.0000
      6 O1         0.3928    7.0001   19.8983 O.2       1 RES1    0.0000
      7 O2         1.4574    8.5627   18.8559 O.2       1 RES1    0.0000
      8 C5         2.5859    6.7980   17.1101 C.ar      1 RES1    0.0000
      9 C6         3.0289    5.8833   16.1821 C.ar      1 RES1    0.0000
     10 C7         3.0148    3.6578   15.1449 C.2       1 RES1    0.0000
     11 O3         4.1776    3.7563   14.7203 O.2       1 RES1    0.0000
     12 N2         2.1969    2.6724   14.7447 N.am      1 RES1    0.0000
     13 N3         2.6479    1.7806   13.7792 N.3       1 RES1    0.0000
     14 C8         3.4560    0.7226   14.1624 C.ar      1 RES1    0.0000
     15 C9         4.0311    0.6271   15.4342 C.ar      1 RES1    0.0000
     16 C10        4.9204   -0.3961   15.7138 C.ar      1 RES1    0.0000
     17 C11        5.2516   -1.3288   14.7542 C.ar      1 RES1    0.0000
     18 C12        4.6747   -1.2422   13.4960 C.ar      1 RES1    0.0000
     19 C13        3.7914   -0.2349   13.1951 C.ar      1 RES1    0.0000
     20 H1         1.1548    3.3602   17.0723 H         1 RES1    0.0000
     21 H2         0.4247    4.8980   18.6823 H         1 RES1    0.0000
     22 H3         2.9411    7.6779   17.1289 H         1 RES1    0.0000
     23 H4         3.7003    6.1272   15.5549 H         1 RES1    0.0000
     24 H5         1.3427    2.6535   14.9556 H         1 RES1    0.0000
     25 H6         2.1621    1.7249   13.0472 H         1 RES1    0.0000
     26 H7         3.8116    1.2631   16.1052 H         1 RES1    0.0000
     27 H8         5.3076   -0.4569   16.5785 H         1 RES1    0.0000
     28 H9         5.8685   -2.0235   14.9530 H         1 RES1    0.0000
     29 H10        4.8936   -1.8871   12.8338 H         1 RES1    0.0000
     30 H11        3.4062   -0.1871   12.3271 H         1 RES1    0.0000
@<TRIPOS>BOND
     1    1    2 ar
     2    2    3 ar
     3    3    4 ar
     4    4    5 1
     5    5    6 2
     6    7    5 2
     7    8    4 ar
     8    9    1 ar
     9   10    1 1
    10   11   10 2
    11   12   10 1
    12   13   12 1
    13   14   13 1
    14   15   14 ar
    15   16   15 ar
    16   17   16 ar
    17   18   17 ar
    18   19   14 ar
    19   20    2 1
    20   21    3 1
    21   22    8 1
    22   23    9 1
    23   24   12 1
    24   25   13 1
    25   26   15 1
    26   27   16 1
    27   28   17 1
    28   29   18 1
    29   30   19 1
    30    8    9 ar
    31   18   19 ar
@<TRIPOS>SUBSTRUCTURE
     1 RES1 1

@<TRIPOS>CRYSIN
   4.6982    9.9532   25.7190  90.0000  90.0000  90.0000  19 1

