# MOL2 file generated by ConQuest
# Please check atom types

@<TRIPOS>MOLECULE
HIFSUL
    28    29     1
SMALL
NO_CHARGES
****
Generated from CSD

@<TRIPOS>ATOM
      1 C1         3.8769   10.4256    8.1501 C.3       1 RES1    0.0000
      2 H1         3.8490   11.3345    7.8116 H         1 RES1    0.0000
      3 H2         3.8555    9.8224    7.3915 H         1 RES1    0.0000
      4 O1         2.7488   10.1946    8.9627 O.3       1 RES1    0.0000
      5 C2         2.6932   11.1541   10.0156 C.3       1 RES1    0.0000
      6 H3         1.9179   10.9854   10.5743 H         1 RES1    0.0000
      7 H4         2.6105   12.0457    9.6436 H         1 RES1    0.0000
      8 C3         3.9693   11.0580   10.8563 C.3       1 RES1    0.0000
      9 C4         5.1822   11.1713    9.9321 C.3       1 RES1    0.0000
     10 H5         5.2331   12.0693    9.5691 H         1 RES1    0.0000
     11 H6         5.9933   11.0024   10.4363 H         1 RES1    0.0000
     12 O2         5.0742   10.2307    8.8694 O.3       1 RES1    0.0000
     13 N1         3.9525   12.2596   11.7668 N.2       1 RES1    0.0000
     14 O3         3.5071   12.0309   12.8619 O.2       1 RES1    0.0000
     15 O4         3.8849    9.8193   11.5458 O.3       1 RES1    0.0000
     16 C5         4.8617    9.5355   12.4495 C.2       1 RES1    0.0000
     17 O5         5.7517   10.3059   12.7289 O.2       1 RES1    0.0000
     18 C6         4.7102    8.1717   13.0128 C.ar      1 RES1    0.0000
     19 C7         5.6516    7.7518   13.9547 C.ar      1 RES1    0.0000
     20 H7         6.3307    8.3263   14.2273 H         1 RES1    0.0000
     21 C8         5.5664    6.4659   14.4831 C.ar      1 RES1    0.0000
     22 H8         6.1850    6.1813   15.1164 H         1 RES1    0.0000
     23 C9         4.5588    5.6119   14.0647 C.ar      1 RES1    0.0000
     24 H9         4.5086    4.7522   14.4154 H         1 RES1    0.0000
     25 C10        3.6211    6.0285   13.1253 C.ar      1 RES1    0.0000
     26 H10        2.9497    5.4484   12.8472 H         1 RES1    0.0000
     27 C11        3.6907    7.3170   12.6035 C.ar      1 RES1    0.0000
     28 H11        3.0596    7.6057   11.9849 H         1 RES1    0.0000
@<TRIPOS>BOND
     1    1    2 1
     2    3    1 1
     3    4    1 1
     4    5    4 1
     5    6    5 1
     6    7    5 1
     7    8    5 1
     8    9    8 1
     9   10    9 1
    10   11    9 1
    11   12    1 1
    12   13    8 1
    13   14   13 2
    14   15    8 1
    15   16   15 1
    16   17   16 2
    17   18   16 1
    18   19   18 ar
    19   20   19 1
    20   21   19 ar
    21   22   21 1
    22   23   21 ar
    23   24   23 1
    24   25   23 ar
    25   26   25 1
    26   27   18 ar
    27   28   27 1
    28    9   12 1
    29   25   27 ar
@<TRIPOS>SUBSTRUCTURE
     1 RES1 1

@<TRIPOS>CRYSIN
   9.3969    9.4328   12.2133  90.0000  90.0000  90.0000  19 1

