# MOL2 file generated by ConQuest
# Please check atom types

@<TRIPOS>MOLECULE
HIFXOL
    31    32     1
SMALL
NO_CHARGES
****
Generated from CSD

@<TRIPOS>ATOM
      1 O1         2.1261    6.9105    5.2267 O.3       1 RES1    0.0000
      2 O2        -2.8853    0.6973    8.1754 O.2       1 RES1    0.0000
      3 O3        -3.1508    2.3017    9.6035 O.2       1 RES1    0.0000
      4 N1         1.1812    6.2272    6.0021 N.2       1 RES1    0.0000
      5 N2        -2.6258    1.8189    8.6012 N.pl3     1 RES1    0.0000
      6 C1         1.1814    4.9620    5.7413 C.2       1 RES1    0.0000
      7 C2         0.2331    4.1377    6.5244 C.ar      1 RES1    0.0000
      8 C3        -0.3287    4.6123    7.7190 C.ar      1 RES1    0.0000
      9 H1        -0.0574    5.4547    8.0636 H         1 RES1    0.0000
     10 C4        -1.2760    3.8641    8.4009 C.ar      1 RES1    0.0000
     11 H2        -1.6683    4.1891    9.2022 H         1 RES1    0.0000
     12 C5        -1.6373    2.6264    7.8821 C.ar      1 RES1    0.0000
     13 C6        -1.0983    2.1207    6.7111 C.ar      1 RES1    0.0000
     14 H3        -1.3646    1.2716    6.3786 H         1 RES1    0.0000
     15 C7        -0.1575    2.8867    6.0352 C.ar      1 RES1    0.0000
     16 H4         0.2260    2.5567    5.2308 H         1 RES1    0.0000
     17 C8         2.0289    4.3274    4.6960 C.ar      1 RES1    0.0000
     18 C9         1.8860    4.7045    3.3562 C.ar      1 RES1    0.0000
     19 H5         1.2534    5.3709    3.1151 H         1 RES1    0.0000
     20 C10        2.6694    4.1056    2.3773 C.ar      1 RES1    0.0000
     21 H6         2.5634    4.3568    1.4669 H         1 RES1    0.0000
     22 C11        3.6097    3.1375    2.7253 C.ar      1 RES1    0.0000
     23 H7         4.1493    2.7346    2.0553 H         1 RES1    0.0000
     24 C12        3.7561    2.7633    4.0566 C.ar      1 RES1    0.0000
     25 H8         4.4025    2.1094    4.2971 H         1 RES1    0.0000
     26 C13        2.9571    3.3449    5.0404 C.ar      1 RES1    0.0000
     27 H9         3.0445    3.0717    5.9465 H         1 RES1    0.0000
     28 C14        1.9354    8.3158    5.4009 C.3       1 RES1    0.0000
     29 H10        1.0049    8.5468    5.1967 H         1 RES1    0.0000
     30 H11        2.5328    8.8043    4.7974 H         1 RES1    0.0000
     31 H12        2.1372    8.5603    6.3287 H         1 RES1    0.0000
@<TRIPOS>BOND
     1    1    4 1
     2    2    5 2
     3    3    5 2
     4    4    6 2
     5    5   12 1
     6    6    7 1
     7    7    8 ar
     8    8    9 1
     9   10    8 ar
    10   11   10 1
    11   12   10 ar
    12   13   12 ar
    13   14   13 1
    14   15    7 ar
    15   16   15 1
    16   17    6 1
    17   18   17 ar
    18   19   18 1
    19   20   18 ar
    20   21   20 1
    21   22   20 ar
    22   23   22 1
    23   24   22 ar
    24   25   24 1
    25   26   17 ar
    26   27   26 1
    27   28    1 1
    28   29   28 1
    29   30   28 1
    30   31   28 1
    31   13   15 ar
    32   24   26 ar
@<TRIPOS>SUBSTRUCTURE
     1 RES1 1

@<TRIPOS>CRYSIN
  11.0615    8.4714   13.8200  90.0000 108.1440  90.0000  14 1

