# MOL2 file generated by ConQuest
# Please check atom types

@<TRIPOS>MOLECULE
HIFXEB
    43    33     2
SMALL
NO_CHARGES
****
Generated from CSD

@<TRIPOS>ATOM
      1 O1         4.7799    3.8405    9.3009 O.3       1 RES1    0.0000
      2 N1         3.6786    2.9659    9.3602 N.2       1 RES1    0.0000
      3 C1         2.7937    3.2786    8.4752 C.2       1 RES1    0.0000
      4 C2         1.5622    2.4552    8.4206 C.ar      1 RES1    0.0000
      5 C3         0.7303    2.5310    7.2952 C.ar      1 RES1    0.0000
      6 H1         0.9480    3.1270    6.5876 H         1 RES1    0.0000
      7 C4        -0.4135    1.7382    7.2044 C.ar      1 RES1    0.0000
      8 H2        -0.9656    1.7888    6.4330 H         1 RES1    0.0000
      9 C5        -0.7460    0.8754    8.2403 C.ar      1 RES1    0.0000
     10 H3        -1.5267    0.3368    8.1805 H         1 RES1    0.0000
     11 C6         0.0666    0.8015    9.3665 C.ar      1 RES1    0.0000
     12 H4        -0.1635    0.2147   10.0776 H         1 RES1    0.0000
     13 C7         1.2153    1.5822    9.4586 C.ar      1 RES1    0.0000
     14 H5         1.7670    1.5225   10.2297 H         1 RES1    0.0000
     15 C8         2.9396    4.4317    7.5346 C.ar      1 RES1    0.0000
     16 C9         2.3231    5.6456    7.8358 C.ar      1 RES1    0.0000
     17 H6         1.8225    5.7359    8.6381 H         1 RES1    0.0000
     18 C10        2.4376    6.7270    6.9642 C.ar      1 RES1    0.0000
     19 H7         2.0270    7.5573    7.1760 H         1 RES1    0.0000
     20 C11        3.1556    6.5814    5.7848 C.ar      1 RES1    0.0000
     21 H8         3.2328    7.3138    5.1846 H         1 RES1    0.0000
     22 C12        3.7627    5.3666    5.4779 C.ar      1 RES1    0.0000
     23 H9         4.2461    5.2784    4.6654 H         1 RES1    0.0000
     24 C13        3.6725    4.2734    6.3478 C.ar      1 RES1    0.0000
     25 C14        4.3414    2.9623    6.0303 C.3       1 RES1    0.0000
     26 H10        4.7376    3.0064    5.1356 H         1 RES1    0.0000
     27 H11        3.6777    2.2417    6.0584 H         1 RES1    0.0000
     28 H12        5.0434    2.7856    6.6907 H         1 RES1    0.0000
     29 C15        5.7173    3.4789   10.3264 C.3       1 RES1    0.0000
     30 H13        5.2929    3.5715   11.2040 H         1 RES1    0.0000
     31 H14        6.4990    4.0684   10.2775 H         1 RES1    0.0000
     32 H15        6.0004    2.5497   10.1970 H         1 RES1    0.0000
     33 C16        3.2430    3.9599    7.1685 Du        2 SUP2    0.0000
     34 C17        3.9429    3.3455    6.1753 Du        2 SUP2    0.0000
     35 H16        4.2250    2.4526    6.3199 Du        2 SUP2    0.0000
     36 C18        4.2745    3.9417    4.9671 Du        2 SUP2    0.0000
     37 H17        4.7084    3.4744    4.2631 Du        2 SUP2    0.0000
     38 C19        3.9161    5.2708    4.8779 Du        2 SUP2    0.0000
     39 H18        4.1399    5.7442    4.0858 Du        2 SUP2    0.0000
     40 C20        3.2734    5.9247    5.8447 Du        2 SUP2    0.0000
     41 H19        3.0880    6.8510    5.7214 Du        2 SUP2    0.0000
     42 C21        2.8451    5.2928    7.0767 Du        2 SUP2    0.0000
     43 C22        2.0790    5.9096    8.1730 Du        2 SUP2    0.0000
@<TRIPOS>BOND
     1    1    2 1
     2    2    3 2
     3    3    4 1
     4    4    5 ar
     5    5    6 1
     6    7    5 ar
     7    8    7 1
     8    9    7 ar
     9   10    9 1
    10   11    9 ar
    11   12   11 1
    12   13    4 ar
    13   14   13 1
    14   15    3 1
    15   16   15 ar
    16   17   16 1
    17   18   16 ar
    18   19   18 1
    19   20   18 ar
    20   21   20 1
    21   22   20 ar
    22   23   22 1
    23   24   15 ar
    24   25   24 1
    25   26   25 1
    26   27   25 1
    27   28   25 1
    28   29    1 1
    29   30   29 1
    30   31   29 1
    31   32   29 1
    32   11   13 ar
    33   22   24 ar
@<TRIPOS>SUBSTRUCTURE
     1 RES1 1
     2 SUP2 33

@<TRIPOS>CRYSIN
  12.7930    7.5861   12.6160  90.0000  94.7950  90.0000  14 1

