# MOL2 file generated by ConQuest
# Please check atom types

@<TRIPOS>MOLECULE
HIFYAY
    38    39     1
SMALL
NO_CHARGES
****
Generated from CSD

@<TRIPOS>ATOM
      1 O1         7.3935    5.3584    7.8668 O.3       1 RES1    0.0000
      2 N1         6.8240    4.3975    7.0047 N.2       1 RES1    0.0000
      3 C1         7.7293    3.7644    6.3361 C.2       1 RES1    0.0000
      4 C2         7.2532    2.6840    5.4319 C.ar      1 RES1    0.0000
      5 C3         7.9899    2.3248    4.3025 C.ar      1 RES1    0.0000
      6 H1         8.7951    2.7881    4.1052 H         1 RES1    0.0000
      7 C4         7.5672    1.2994    3.4583 C.ar      1 RES1    0.0000
      8 H2         8.0707    1.0899    2.6810 H         1 RES1    0.0000
      9 C5         6.4075    0.5781    3.7488 C.ar      1 RES1    0.0000
     10 C6         5.6670    0.9444    4.8745 C.ar      1 RES1    0.0000
     11 H3         4.8697    0.4704    5.0796 H         1 RES1    0.0000
     12 C7         6.0705    1.9857    5.7003 C.ar      1 RES1    0.0000
     13 H4         5.5399    2.2254    6.4513 H         1 RES1    0.0000
     14 C8         9.1960    4.0105    6.4509 C.ar      1 RES1    0.0000
     15 C9         9.7591    5.2289    6.0644 C.ar      1 RES1    0.0000
     16 H5         9.2017    5.9277    5.7412 H         1 RES1    0.0000
     17 C10       11.1339    5.4200    6.1511 C.ar      1 RES1    0.0000
     18 H6        11.5144    6.2430    5.8686 H         1 RES1    0.0000
     19 C11       11.9541    4.4147    6.6485 C.ar      1 RES1    0.0000
     20 H7        12.8933    4.5484    6.7115 H         1 RES1    0.0000
     21 C12       11.3891    3.2135    7.0523 C.ar      1 RES1    0.0000
     22 H8        11.9420    2.5301    7.4119 H         1 RES1    0.0000
     23 C13       10.0252    3.0023    6.9359 C.ar      1 RES1    0.0000
     24 H9         9.6538    2.1656    7.1876 H         1 RES1    0.0000
     25 C14        5.9783   -0.5822    2.8863 C.3       1 RES1    0.0000
     26 H10        6.6762   -0.7728    2.2242 H         1 RES1    0.0000
     27 H11        5.1437   -0.3550    2.4249 H         1 RES1    0.0000
     28 H12        5.8366   -1.3722    3.4492 H         1 RES1    0.0000
     29 C15        6.3370    5.9495    8.6706 C.3       1 RES1    0.0000
     30 H13        5.5992    6.2596    8.0721 H         1 RES1    0.0000
     31 C16        5.7877    4.9490    9.6686 C.3       1 RES1    0.0000
     32 H14        5.4526    4.1614    9.1904 H         1 RES1    0.0000
     33 H15        5.0564    5.3602   10.1745 H         1 RES1    0.0000
     34 H16        6.4999    4.6780   10.2852 H         1 RES1    0.0000
     35 C17        6.9860    7.1507    9.3319 C.3       1 RES1    0.0000
     36 H17        7.7618    6.8566    9.8534 H         1 RES1    0.0000
     37 H18        6.3393    7.5856    9.9254 H         1 RES1    0.0000
     38 H19        7.2766    7.7850    8.6437 H         1 RES1    0.0000
@<TRIPOS>BOND
     1    1    2 1
     2    2    3 2
     3    3    4 1
     4    4    5 ar
     5    5    6 1
     6    7    5 ar
     7    8    7 1
     8    9    7 ar
     9   10    9 ar
    10   11   10 1
    11   12    4 ar
    12   13   12 1
    13   14    3 1
    14   15   14 ar
    15   16   15 1
    16   17   15 ar
    17   18   17 1
    18   19   17 ar
    19   20   19 1
    20   21   19 ar
    21   22   21 1
    22   23   14 ar
    23   24   23 1
    24   25    9 1
    25   26   25 1
    26   27   25 1
    27   28   25 1
    28   29    1 1
    29   30   29 1
    30   31   29 1
    31   32   31 1
    32   33   31 1
    33   34   31 1
    34   35   29 1
    35   36   35 1
    36   37   35 1
    37   38   35 1
    38   10   12 ar
    39   21   23 ar
@<TRIPOS>SUBSTRUCTURE
     1 RES1 1

@<TRIPOS>CRYSIN
  17.4540    5.9170   13.8410  90.0000  90.0000  90.0000  33 1

