# MOL2 file generated by ConQuest
# Please check atom types

@<TRIPOS>MOLECULE
HIFYUS
    35    36     1
SMALL
NO_CHARGES
****
Generated from CSD

@<TRIPOS>ATOM
      1 O1         4.3840    3.7765   11.7786 O.3       1 RES1    0.0000
      2 O2         0.7547    3.5016    4.9849 O.3       1 RES1    0.0000
      3 N1         3.9392    3.9934   10.4711 N.2       1 RES1    0.0000
      4 C1         3.0705    3.0992   10.1088 C.2       1 RES1    0.0000
      5 C2         2.4922    3.2205    8.7532 C.ar      1 RES1    0.0000
      6 C3         2.7695    4.3374    7.9564 C.ar      1 RES1    0.0000
      7 H1         3.3417    5.0190    8.2886 H         1 RES1    0.0000
      8 C4         2.2207    4.4635    6.6856 C.ar      1 RES1    0.0000
      9 H2         2.4182    5.2239    6.1509 H         1 RES1    0.0000
     10 C5         1.3759    3.4618    6.2008 C.ar      1 RES1    0.0000
     11 C6         1.1002    2.3382    6.9784 C.ar      1 RES1    0.0000
     12 H3         0.5331    1.6541    6.6412 H         1 RES1    0.0000
     13 C7         1.6556    2.2195    8.2467 C.ar      1 RES1    0.0000
     14 H4         1.4655    1.4526    8.7744 H         1 RES1    0.0000
     15 C8         2.6600    2.0382   10.9743 C.1       1 RES1    0.0000
     16 C9         2.3097    1.1709   11.7384 C.1       1 RES1    0.0000
     17 C10        1.8927    0.1777   12.6756 C.ar      1 RES1    0.0000
     18 C11        2.3933    0.2000   13.9828 C.ar      1 RES1    0.0000
     19 H5         3.0156    0.8703   14.2407 H         1 RES1    0.0000
     20 C12        1.9809   -0.7580   14.9067 C.ar      1 RES1    0.0000
     21 H6         2.3273   -0.7455   15.7910 H         1 RES1    0.0000
     22 C13        1.0610   -1.7341   14.5321 C.ar      1 RES1    0.0000
     23 H7         0.7663   -2.3778   15.1653 H         1 RES1    0.0000
     24 C14        0.5733   -1.7663   13.2302 C.ar      1 RES1    0.0000
     25 H8        -0.0439   -2.4419   12.9761 H         1 RES1    0.0000
     26 C15        0.9808   -0.8181   12.2972 C.ar      1 RES1    0.0000
     27 H9         0.6437   -0.8451   11.4096 H         1 RES1    0.0000
     28 C16        0.9749    4.6529    4.1761 C.3       1 RES1    0.0000
     29 H10        0.6505    5.4495    4.6463 H         1 RES1    0.0000
     30 H11        0.4923    4.5546    3.3287 H         1 RES1    0.0000
     31 H12        1.9338    4.7476    3.9971 H         1 RES1    0.0000
     32 C17        5.2960    4.8303   12.0970 C.3       1 RES1    0.0000
     33 H13        6.0555    4.8037   11.4774 H         1 RES1    0.0000
     34 H14        5.6192    4.7161   13.0158 H         1 RES1    0.0000
     35 H15        4.8392    5.6934   12.0162 H         1 RES1    0.0000
@<TRIPOS>BOND
     1    1    3 1
     2    2   10 1
     3    3    4 2
     4    4    5 1
     5    5    6 ar
     6    6    7 1
     7    8    6 ar
     8    9    8 1
     9   10    8 ar
    10   11   10 ar
    11   12   11 1
    12   13    5 ar
    13   14   13 1
    14   15    4 1
    15   16   15 3
    16   17   16 1
    17   18   17 ar
    18   19   18 1
    19   20   18 ar
    20   21   20 1
    21   22   20 ar
    22   23   22 1
    23   24   22 ar
    24   25   24 1
    25   26   17 ar
    26   27   26 1
    27   28    2 1
    28   29   28 1
    29   30   28 1
    30   31   28 1
    31   32    1 1
    32   33   32 1
    33   34   32 1
    34   35   32 1
    35   11   13 ar
    36   24   26 ar
@<TRIPOS>SUBSTRUCTURE
     1 RES1 1

@<TRIPOS>CRYSIN
   8.0955    5.7255   14.7233  90.0000  90.7230  90.0000   4 1

