# MOL2 file generated by ConQuest
# Please check atom types

@<TRIPOS>MOLECULE
HIGBII
    37    38     2
SMALL
NO_CHARGES
****
Generated from CSD

@<TRIPOS>ATOM
      1 N1         6.7336    3.7882    3.6310 N.3       1 RES1    0.0000
      2 O1         7.2624    4.1701    4.7248 O.2       1 RES1    0.0000
      3 O2         7.7488    3.5532    4.2786 Du        2 SUP2    0.0000
      4 C1         5.5489    2.9062    3.6707 C.3       1 RES1    0.0000
      5 C2         5.5779    2.0393    2.4200 C.3       1 RES1    0.0000
      6 C3         4.3073    3.7697    3.6416 C.3       1 RES1    0.0000
      7 C4         6.8352    4.6759    2.4490 C.3       1 RES1    0.0000
      8 C5         5.5779    5.5382    2.4200 C.3       1 RES1    0.0000
      9 C6         5.6091    2.0486    4.9397 C.3       1 RES1    0.0000
     10 C7         8.1036    5.5011    2.5062 C.3       1 RES1    0.0000
     11 H1         4.7591    1.3206    2.4500 H         1 RES1    0.0000
     12 H2         4.2872    4.4247    4.4228 H         1 RES1    0.0000
     13 H3         3.4181    3.1597    3.6000 H         1 RES1    0.0000
     14 H4         5.6047    6.0902    3.1179 H         1 RES1    0.0000
     15 H5         6.3666    1.2731    4.8100 H         1 RES1    0.0000
     16 H6         5.4953    2.6493    5.6889 H         1 RES1    0.0000
     17 H7         4.7501    1.3414    5.0065 H         1 RES1    0.0000
     18 H8         8.1493    6.0555    1.8750 H         1 RES1    0.0000
     19 H9         8.9704    4.9282    2.5168 H         1 RES1    0.0000
     20 H10        8.0924    6.0995    3.2225 H         1 RES1    0.0000
     21 C1C        5.6069    2.9062    1.1693 C.3       1 RES1    0.0000
     22 H1C        6.3967    1.3206    2.3900 H         1 RES1    0.0000
     23 C4C        4.3206    4.6759    2.3910 C.3       1 RES1    0.0000
     24 C3C        6.8485    3.7697    1.1984 C.3       1 RES1    0.0000
     25 H4C        5.5511    6.0902    1.7221 H         1 RES1    0.0000
     26 N1C        4.4222    3.7882    1.2090 N.3       1 RES1    0.0000
     27 C6C        5.5467    2.0486   -0.0997 C.3       1 RES1    0.0000
     28 C7C        3.0522    5.5011    2.3338 C.3       1 RES1    0.0000
     29 H2C        6.8686    4.4247    0.4172 H         1 RES1    0.0000
     30 H3C        7.7377    3.1597    1.2400 H         1 RES1    0.0000
     31 O1C        3.8934    4.1701    0.1152 O.2       1 RES1    0.0000
     32 H5C        4.7892    1.2731    0.0300 H         1 RES1    0.0000
     33 H6C        5.6605    2.6493   -0.8489 H         1 RES1    0.0000
     34 H7C        6.4057    1.3414   -0.1665 H         1 RES1    0.0000
     35 H8C        3.0065    6.0555    2.9650 H         1 RES1    0.0000
     36 H9C        2.1854    4.9282    2.3232 H         1 RES1    0.0000
     37 H10C       3.0634    6.0995    1.6175 H         1 RES1    0.0000
@<TRIPOS>BOND
     1    1    2 1
     2    4    1 1
     3    5    4 1
     4    6    4 1
     5    7    1 1
     6    8    7 1
     7    9    4 1
     8   10    7 1
     9   11    5 1
    10   12    6 1
    11   13    6 1
    12   14    8 1
    13   15    9 1
    14   16    9 1
    15   17    9 1
    16   18   10 1
    17   19   10 1
    18   20   10 1
    19   21    5 1
    20   22    5 1
    21   23    6 1
    22   24    7 1
    23   25    8 1
    24   26   21 1
    25   27   21 1
    26   28   23 1
    27   29   24 1
    28   30   24 1
    29   31   26 1
    30   32   27 1
    31   33   27 1
    32   34   27 1
    33   35   28 1
    34   36   28 1
    35   37   28 1
    36    8   23 1
    37   21   24 1
    38   23   26 1
@<TRIPOS>SUBSTRUCTURE
     1 RES1 1
     2 SUP2 3

@<TRIPOS>CRYSIN
  11.1558   11.5740    9.6800  90.0000  90.0000  90.0000  60 1

