# MOL2 file generated by ConQuest
# Please check atom types

@<TRIPOS>MOLECULE
HIGCEF
    42    45     1
SMALL
NO_CHARGES
****
Generated from CSD

@<TRIPOS>ATOM
      1 N1         0.9306    5.5856   -1.0705 N.3       1 RES1    0.0000
      2 O1         2.7303    5.6552   -3.0748 O.2       1 RES1    0.0000
      3 O2         0.9470    6.9115    1.5602 O.3       1 RES1    0.0000
      4 O3         1.6489    5.2099    0.1253 O.3       1 RES1    0.0000
      5 C1         2.3074    9.2332   -3.1169 C.ar      1 RES1    0.0000
      6 C2         2.5952   10.3341   -3.9038 C.ar      1 RES1    0.0000
      7 C3         3.1292   10.1463   -5.1554 C.ar      1 RES1    0.0000
      8 C4         3.4058    8.8770   -5.6143 C.ar      1 RES1    0.0000
      9 C5         3.1305    7.7761   -4.8240 C.ar      1 RES1    0.0000
     10 C6         2.5664    7.9428   -3.5633 C.ar      1 RES1    0.0000
     11 C7         2.2960    6.7383   -2.7491 C.2       1 RES1    0.0000
     12 C8         1.4593    6.8969   -1.4884 C.3       1 RES1    0.0000
     13 C9         2.3495    7.3697   -0.3200 C.3       1 RES1    0.0000
     14 C10        2.0240    6.4193    0.7983 C.3       1 RES1    0.0000
     15 C11        3.1186    6.0421    1.7822 C.3       1 RES1    0.0000
     16 C12        2.5011    6.1619    3.1226 C.3       1 RES1    0.0000
     17 C13        1.0462    6.3416    2.8732 C.3       1 RES1    0.0000
     18 C14       -0.4579    5.4139   -0.9771 C.ar      1 RES1    0.0000
     19 C15       -1.0767    4.7388    0.0695 C.ar      1 RES1    0.0000
     20 C16       -2.4397    4.5219    0.0296 C.ar      1 RES1    0.0000
     21 C17       -3.2168    4.9784   -1.0147 C.ar      1 RES1    0.0000
     22 C18       -2.5873    5.6309   -2.0578 C.ar      1 RES1    0.0000
     23 C19       -1.2332    5.8462   -2.0487 C.ar      1 RES1    0.0000
     24 H1         1.8896    9.3513   -2.2161 H         1 RES1    0.0000
     25 H2         2.4379   11.2585   -3.5576 H         1 RES1    0.0000
     26 H3         3.2954   10.9380   -5.7441 H         1 RES1    0.0000
     27 H4         3.7840    8.7653   -6.5333 H         1 RES1    0.0000
     28 H5         3.3750    6.8581   -5.1349 H         1 RES1    0.0000
     29 H6         0.7027    7.5235   -1.6752 H         1 RES1    0.0000
     30 H7         2.1560    8.3152   -0.0569 H         1 RES1    0.0000
     31 H8         3.3113    7.2871   -0.5797 H         1 RES1    0.0000
     32 H9         3.9240    6.6282    1.6888 H         1 RES1    0.0000
     33 H10        3.3816    5.0885    1.6399 H         1 RES1    0.0000
     34 H11        2.8419    6.9892    3.5679 H         1 RES1    0.0000
     35 H12        2.6744    5.3702    3.7102 H         1 RES1    0.0000
     36 H13        0.5977    6.9261    3.5519 H         1 RES1    0.0000
     37 H14        0.6104    5.4415    2.8686 H         1 RES1    0.0000
     38 H15       -0.5574    4.4199    0.8621 H         1 RES1    0.0000
     39 H16       -2.8671    4.0054    0.7721 H         1 RES1    0.0000
     40 H17       -4.2096    4.8651   -1.0033 H         1 RES1    0.0000
     41 H18       -3.1130    5.9482   -2.8482 H         1 RES1    0.0000
     42 H19       -0.7987    6.3125   -2.8197 H         1 RES1    0.0000
@<TRIPOS>BOND
     1    1    4 1
     2    2   11 2
     3    3   14 1
     4    4   14 1
     5    5    6 ar
     6    6    7 ar
     7    7    8 ar
     8    8    9 ar
     9    9   10 ar
    10   10    5 ar
    11   11   10 1
    12   12    1 1
    13   13   12 1
    14   14   13 1
    15   15   14 1
    16   16   15 1
    17   17    3 1
    18   18    1 1
    19   19   18 ar
    20   20   19 ar
    21   21   20 ar
    22   22   21 ar
    23   23   18 ar
    24   24    5 1
    25   25    6 1
    26   26    7 1
    27   27    8 1
    28   28    9 1
    29   29   12 1
    30   30   13 1
    31   31   13 1
    32   32   15 1
    33   33   15 1
    34   34   16 1
    35   35   16 1
    36   36   17 1
    37   37   17 1
    38   38   19 1
    39   39   20 1
    40   40   21 1
    41   41   22 1
    42   42   23 1
    43   11   12 1
    44   16   17 1
    45   22   23 ar
@<TRIPOS>SUBSTRUCTURE
     1 RES1 1

@<TRIPOS>CRYSIN
   8.6780   16.1900   11.5300  90.0000  99.0000  90.0000 231 1

