# MOL2 file generated by ConQuest
# Please check atom types

@<TRIPOS>MOLECULE
HIGDUY
    58    62     1
SMALL
NO_CHARGES
****
Generated from CSD

@<TRIPOS>ATOM
      1 O1        10.7553   13.6753   12.0837 O.2       1 RES1    0.0000
      2 O2         9.7547   14.4052    8.8843 O.2       1 RES1    0.0000
      3 O3        13.5094   10.2245    7.1547 O.3       1 RES1    0.0000
      4 O4        11.6608   11.9993    8.3637 O.3       1 RES1    0.0000
      5 O5        19.0527    7.1982    8.3192 O.3       1 RES1    0.0000
      6 N1        13.9516   11.3637    7.9470 N.3       1 RES1    0.0000
      7 C1        12.9246   12.3798    7.7891 C.3       1 RES1    0.0000
      8 C2        13.2994   13.7090    8.4490 C.3       1 RES1    0.0000
      9 C3        12.5272   13.7361    9.7786 C.3       1 RES1    0.0000
     10 C4        11.3955   12.7319    9.5941 C.3       1 RES1    0.0000
     11 C5         9.9959   13.2935    9.2936 C.2       1 RES1    0.0000
     12 C6         8.9894   12.1863    9.5707 C.3       1 RES1    0.0000
     13 C7         9.8050   11.0095   10.1595 C.3       1 RES1    0.0000
     14 C8         9.0701   10.1681   11.2108 C.3       1 RES1    0.0000
     15 C9        14.1449   10.8644    9.3189 C.3       1 RES1    0.0000
     16 C10       13.0025   10.0595    9.9750 C.3       1 RES1    0.0000
     17 C11       12.2424   10.7673   11.1047 C.3       1 RES1    0.0000
     18 C12       11.0915   11.7160   10.7124 C.3       1 RES1    0.0000
     19 C13       10.6525   12.4651   11.9796 C.2       1 RES1    0.0000
     20 C14       10.0093   11.6248   13.0569 C.3       1 RES1    0.0000
     21 C15        8.7471   10.9506   12.4871 C.3       1 RES1    0.0000
     22 C16       14.5217    9.8935    6.1854 C.3       1 RES1    0.0000
     23 C17       15.7478    9.2414    6.7801 C.ar      1 RES1    0.0000
     24 C18       17.0289    9.7029    6.5018 C.ar      1 RES1    0.0000
     25 C19       18.1662    9.0573    7.0015 C.ar      1 RES1    0.0000
     26 C20       18.0105    7.9245    7.7948 C.ar      1 RES1    0.0000
     27 C21       16.7318    7.4574    8.1033 C.ar      1 RES1    0.0000
     28 C22       15.6210    8.1064    7.5907 C.ar      1 RES1    0.0000
     29 C23       20.2979    7.2612    7.6151 C.3       1 RES1    0.0000
     30 H1        12.7778   12.4721    6.8389 H         1 RES1    0.0000
     31 H2        14.2627   13.7788    8.5701 H         1 RES1    0.0000
     32 H3        12.9771   14.4504    7.8616 H         1 RES1    0.0000
     33 H4        13.0959   13.4832   10.5292 H         1 RES1    0.0000
     34 H5        12.1810   14.6307    9.9825 H         1 RES1    0.0000
     35 H6         8.3250   12.5629   10.2055 H         1 RES1    0.0000
     36 H7         8.5303   11.9423    8.7392 H         1 RES1    0.0000
     37 H8        10.0916   10.4162    9.4406 H         1 RES1    0.0000
     38 H9         9.6238    9.3685   11.4416 H         1 RES1    0.0000
     39 H10        8.2458    9.8042   10.8182 H         1 RES1    0.0000
     40 H11       14.3724   11.6417    9.8698 H         1 RES1    0.0000
     41 H12       14.9311   10.3082    9.2583 H         1 RES1    0.0000
     42 H13       12.3731    9.7383    9.2679 H         1 RES1    0.0000
     43 H14       13.4276    9.2629   10.3806 H         1 RES1    0.0000
     44 H15       11.8634   10.0792   11.6886 H         1 RES1    0.0000
     45 H16       12.8876   11.2679   11.6778 H         1 RES1    0.0000
     46 H17       10.6389   10.9196   13.3456 H         1 RES1    0.0000
     47 H18        9.7923   12.2025   13.8216 H         1 RES1    0.0000
     48 H19        8.0891   11.6621   12.3085 H         1 RES1    0.0000
     49 H20        8.3561   10.3453   13.1741 H         1 RES1    0.0000
     50 H21       14.7660   10.6994    5.6615 H         1 RES1    0.0000
     51 H22       14.0552    9.2699    5.5871 H         1 RES1    0.0000
     52 H23       17.1408   10.4918    5.9288 H         1 RES1    0.0000
     53 H24       19.0467    9.4038    6.7909 H         1 RES1    0.0000
     54 H25       16.6353    6.6858    8.6505 H         1 RES1    0.0000
     55 H26       14.7381    7.7565    7.7836 H         1 RES1    0.0000
     56 H27       20.7320    8.0977    7.7477 H         1 RES1    0.0000
     57 H28       20.1442    7.1244    6.6686 H         1 RES1    0.0000
     58 H29       20.8657    6.5408    7.9910 H         1 RES1    0.0000
@<TRIPOS>BOND
     1    1   19 2
     2    2   11 2
     3    3    6 1
     4    4    7 1
     5    5   26 1
     6    6    7 1
     7    7    8 1
     8    8    9 1
     9    9   10 1
    10   10    4 1
    11   11   10 1
    12   12   11 1
    13   13   12 1
    14   14   13 1
    15   15    6 1
    16   16   15 1
    17   17   16 1
    18   18   10 1
    19   19   18 1
    20   20   19 1
    21   21   14 1
    22   22    3 1
    23   23   22 1
    24   24   23 ar
    25   25   24 ar
    26   26   25 ar
    27   27   26 ar
    28   28   23 ar
    29   29    5 1
    30   30    7 1
    31   31    8 1
    32   32    8 1
    33   33    9 1
    34   34    9 1
    35   35   12 1
    36   36   12 1
    37   37   13 1
    38   38   14 1
    39   39   14 1
    40   40   15 1
    41   41   15 1
    42   42   16 1
    43   43   16 1
    44   44   17 1
    45   45   17 1
    46   46   20 1
    47   47   20 1
    48   48   21 1
    49   49   21 1
    50   50   22 1
    51   51   22 1
    52   52   24 1
    53   53   25 1
    54   54   27 1
    55   55   28 1
    56   56   29 1
    57   57   29 1
    58   58   29 1
    59   13   18 1
    60   17   18 1
    61   20   21 1
    62   27   28 ar
@<TRIPOS>SUBSTRUCTURE
     1 RES1 1

@<TRIPOS>CRYSIN
   8.3685   10.2980   12.6902  70.9236  83.1057  72.6356   2 1

