# MOL2 file generated by ConQuest
# Please check atom types

@<TRIPOS>MOLECULE
HIGDOS
    43    47     1
SMALL
NO_CHARGES
****
Generated from CSD

@<TRIPOS>ATOM
      1 O1         2.1381    1.6808    5.7024 O.3       1 RES1    0.0000
      2 O2         3.4199    3.5139    6.4120 O.3       1 RES1    0.0000
      3 O3         5.2543    5.8393    5.5879 O.3       1 RES1    0.0000
      4 O4         6.9120    4.4459    6.4139 O.3       1 RES1    0.0000
      5 N1         3.1518    0.6269    5.6186 N.3       1 RES1    0.0000
      6 C1         2.6793    2.9470    5.3478 C.3       1 RES1    0.0000
      7 C2         3.6140    2.9539    4.1476 C.3       1 RES1    0.0000
      8 C3         5.0162    2.8612    4.7582 C.3       1 RES1    0.0000
      9 C4         4.8365    3.4190    6.1765 C.3       1 RES1    0.0000
     10 C5         5.4909    4.7873    6.4453 C.3       1 RES1    0.0000
     11 C6         5.1169    5.0814    7.8900 C.3       1 RES1    0.0000
     12 C7         5.2152    3.6719    8.5494 C.3       1 RES1    0.0000
     13 C8         6.2257    3.5850    9.6960 C.3       1 RES1    0.0000
     14 C9         3.2186   -0.0298    6.9270 C.3       1 RES1    0.0000
     15 C10        3.9247    0.8284    7.9614 C.3       1 RES1    0.0000
     16 C11        5.3617    1.2441    7.5744 C.3       1 RES1    0.0000
     17 C12        5.5780    2.7356    7.3470 C.3       1 RES1    0.0000
     18 C13        7.0228    3.0757    6.9373 C.3       1 RES1    0.0000
     19 C14        8.0565    3.0309    8.0517 C.3       1 RES1    0.0000
     20 C15        7.6490    3.8935    9.2395 C.3       1 RES1    0.0000
     21 H1         2.7442    0.0360    5.0538 H         1 RES1    0.0000
     22 H2         5.5711    5.6236    4.8150 H         1 RES1    0.0000
     23 H3         1.8889    3.5097    5.2375 H         1 RES1    0.0000
     24 H4         3.4976    3.7981    3.6969 H         1 RES1    0.0000
     25 H5         3.4407    2.2159    3.5313 H         1 RES1    0.0000
     26 H6         5.6930    3.3965    4.2469 H         1 RES1    0.0000
     27 H7         5.3049    1.9191    4.8016 H         1 RES1    0.0000
     28 H8         4.2060    5.4409    7.9152 H         1 RES1    0.0000
     29 H9         5.7492    5.7647    8.2797 H         1 RES1    0.0000
     30 H10        4.3423    3.4186    8.8896 H         1 RES1    0.0000
     31 H11        6.1911    2.6652   10.0867 H         1 RES1    0.0000
     32 H12        5.9724    4.2097   10.4112 H         1 RES1    0.0000
     33 H13        3.7131   -0.8889    6.7600 H         1 RES1    0.0000
     34 H14        2.3263   -0.2555    7.2377 H         1 RES1    0.0000
     35 H15        3.9558    0.3413    8.8125 H         1 RES1    0.0000
     36 H16        3.3805    1.6192    8.1207 H         1 RES1    0.0000
     37 H17        5.6563    0.7637    6.7609 H         1 RES1    0.0000
     38 H18        6.0125    0.9404    8.3025 H         1 RES1    0.0000
     39 H19        7.3231    2.4806    6.1757 H         1 RES1    0.0000
     40 H20        8.8918    3.3272    7.7144 H         1 RES1    0.0000
     41 H21        8.1694    2.0753    8.3082 H         1 RES1    0.0000
     42 H22        8.2806    3.7654   10.0153 H         1 RES1    0.0000
     43 H23        7.6942    4.8439    8.9629 H         1 RES1    0.0000
@<TRIPOS>BOND
     1    1    5 1
     2    2    6 1
     3    3   10 1
     4    4   10 1
     5    5   14 1
     6    6    1 1
     7    7    6 1
     8    8    7 1
     9    9    2 1
    10   10    9 1
    11   11   10 1
    12   12   11 1
    13   13   12 1
    14   14   15 1
    15   15   16 1
    16   16   17 1
    17   17    9 1
    18   18    4 1
    19   19   18 1
    20   20   13 1
    21   21    5 1
    22   22    3 1
    23   23    6 1
    24   24    7 1
    25   25    7 1
    26   26    8 1
    27   27    8 1
    28   28   11 1
    29   29   11 1
    30   30   12 1
    31   31   13 1
    32   32   13 1
    33   33   14 1
    34   34   14 1
    35   35   15 1
    36   36   15 1
    37   37   16 1
    38   38   16 1
    39   39   18 1
    40   40   19 1
    41   41   19 1
    42   42   20 1
    43   43   20 1
    44    8    9 1
    45   12   17 1
    46   17   18 1
    47   19   20 1
@<TRIPOS>SUBSTRUCTURE
     1 RES1 1

@<TRIPOS>CRYSIN
   8.0216    9.3199   10.0691  79.3150  72.1780  76.0400   2 1

