# MOL2 file generated by ConQuest
# Please check atom types

@<TRIPOS>MOLECULE
HIHCEH
    30    31     1
SMALL
USER_CHARGES
****
Generated from CSD

@<TRIPOS>ATOM
      1 N1        15.0123    6.2227    0.1980 N.3       1 RES1    0.0000
      2 C1        15.2604    3.8308   -0.2176 C.2       1 RES1    0.0000
      3 C2        14.5487    4.9767    0.2676 C.2       1 RES1    0.0000
      4 N2        14.9113    2.5659    0.1229 N.2       1 RES1    0.0000
      5 N3        13.3533    4.9966    0.8671 N.pl3     1 RES1    1.0000
      6 N4        15.7672    1.7325   -0.4069 N.2       1 RES1    0.0000
      7 N5        16.6512    2.4568   -1.0695 N.pl3     1 RES1    0.0000
      8 O1        16.1090    6.5500   -0.3362 O.2       1 RES1    0.0000
      9 O2        12.6093    3.9845    1.0717 O.2       1 RES1   -1.0000
     10 C3        12.9146    6.3826    1.1935 C.3       1 RES1    0.0000
     11 C4        14.1654    7.1833    0.9748 C.3       1 RES1    0.0000
     12 C5        16.3911    3.7524   -0.9629 C.2       1 RES1    0.0000
     13 C6        14.1239    8.4984    0.3144 C.3       1 RES1    0.0000
     14 H1        13.6530    8.4237   -0.5190 H         1 RES1    0.0000
     15 H2        15.0179    8.8033    0.1491 H         1 RES1    0.0000
     16 H3        13.6696    9.1269    0.8813 H         1 RES1    0.0000
     17 C7        12.1575    6.4428    2.3860 C.3       1 RES1    0.0000
     18 H4        12.7238    6.2395    3.1345 H         1 RES1    0.0000
     19 H5        11.4418    5.8060    2.3424 H         1 RES1    0.0000
     20 H6        11.7965    7.3264    2.4893 H         1 RES1    0.0000
     21 C8        11.9086    6.7477   -0.0065 C.3       1 RES1    0.0000
     22 H7        11.0913    6.2519    0.0979 H         1 RES1    0.0000
     23 H8        12.3151    6.5175   -0.8454 H         1 RES1    0.0000
     24 H9        11.7177    7.6874    0.0098 H         1 RES1    0.0000
     25 C9        14.9308    7.3492    2.3098 C.3       1 RES1    0.0000
     26 H10       15.7315    7.8574    2.1586 H         1 RES1    0.0000
     27 H11       15.1631    6.4843    2.6558 H         1 RES1    0.0000
     28 H12       14.3749    7.8097    2.9430 H         1 RES1    0.0000
     29 H13       16.9055    4.3768   -1.2729 H         1 RES1    0.0000
     30 H14       17.3619    2.1573   -1.6755 H         1 RES1    0.0000
@<TRIPOS>BOND
     1    1    3 1
     2    2    3 1
     3    3    5 2
     4    4    2 1
     5    5    9 1
     6    6    4 2
     7    7    6 1
     8    8    1 1
     9   10    5 1
    10   11    1 1
    11   12    2 2
    12   13   11 1
    13   14   13 1
    14   15   13 1
    15   16   13 1
    16   17   10 1
    17   18   17 1
    18   19   17 1
    19   20   17 1
    20   21   10 1
    21   22   21 1
    22   23   21 1
    23   24   21 1
    24   25   11 1
    25   26   25 1
    26   27   25 1
    27   28   25 1
    28   29   12 1
    29   30    7 1
    30    7   12 1
    31   10   11 1
@<TRIPOS>SUBSTRUCTURE
     1 RES1 1

@<TRIPOS>CRYSIN
  20.7430   20.7430   10.8799  90.0000  90.0000  90.0000  88 1

