# MOL2 file generated by ConQuest
# Please check atom types

@<TRIPOS>MOLECULE
HIHHAH01
    19    19     1
SMALL
NO_CHARGES
****
Generated from CSD

@<TRIPOS>ATOM
      1 C1         1.2488    3.3579    5.5695 C.ar      1 RES1    0.0000
      2 C2         1.5154    1.9147    5.8906 C.2       1 RES1    0.0000
      3 O1         2.1490    1.6245    6.8856 O.2       1 RES1    0.0000
      4 C3         0.9933    0.8545    4.9663 C.3       1 RES1    0.0000
      5 H1         1.2463   -0.0286    5.3070 H         1 RES1    0.0000
      6 H2         1.3760    0.9824    4.0738 H         1 RES1    0.0000
      7 H3         0.0171    0.9173    4.9151 H         1 RES1    0.0000
      8 C4         1.5811    4.3185    6.5278 C.ar      1 RES1    0.0000
      9 H4         1.9532    4.0627    7.3636 H         1 RES1    0.0000
     10 C5         1.3577    5.6457    6.2335 C.ar      1 RES1    0.0000
     11 N1         1.7313    6.6553    7.2402 N.pl3     1 RES1    0.0000
     12 O2         1.5209    7.8342    6.9780 O.2       1 RES1    0.0000
     13 O3         2.2444    6.2813    8.2871 O.2       1 RES1    0.0000
     14 C6         0.8141    6.0727    5.0259 C.ar      1 RES1    0.0000
     15 H5         0.6747    6.9960    4.8513 H         1 RES1    0.0000
     16 C7         0.4837    5.1126    4.0870 C.ar      1 RES1    0.0000
     17 H6         0.1085    5.3755    3.2548 H         1 RES1    0.0000
     18 C8         0.6979    3.7662    4.3539 C.ar      1 RES1    0.0000
     19 H7         0.4668    3.1158    3.7009 H         1 RES1    0.0000
@<TRIPOS>BOND
     1    1    2 1
     2    2    3 2
     3    4    2 1
     4    5    4 1
     5    6    4 1
     6    7    4 1
     7    8    1 ar
     8    9    8 1
     9   10    8 ar
    10   11   10 1
    11   12   11 2
    12   13   11 2
    13   14   10 ar
    14   15   14 1
    15   16   14 ar
    16   17   16 1
    17   18    1 ar
    18   19   18 1
    19   16   18 ar
@<TRIPOS>SUBSTRUCTURE
     1 RES1 1

@<TRIPOS>CRYSIN
   7.3045    9.8633   10.7436  90.0000  98.6080  90.0000 231 1

