# MOL2 file generated by ConQuest
# Please check atom types

@<TRIPOS>MOLECULE
HIHHUB
    24    25     1
SMALL
NO_CHARGES
****
Generated from CSD

@<TRIPOS>ATOM
      1 O1         6.0240    0.3467    4.1354 O.3       1 RES1    0.0000
      2 H1         6.6934    0.0573    3.6964 H         1 RES1    0.0000
      3 N1         3.9731    1.4771    5.2683 N.pl3     1 RES1    0.0000
      4 C1         2.7656    2.1854    5.7016 C.3       1 RES1    0.0000
      5 H2         2.0089    1.6001    5.7734 H         1 RES1    0.0000
      6 H3         2.9077    2.6306    6.5414 H         1 RES1    0.0000
      7 N2         2.5967    3.1300    4.6162 N.pl3     1 RES1    0.0000
      8 H4         3.8436    0.7782    5.6715 H         1 RES1    0.0000
      9 C2         3.5357    2.9491    3.5400 C.3       1 RES1    0.0000
     10 H5         4.0487    3.7489    3.3975 H         1 RES1    0.0000
     11 H6         3.0927    2.7034    2.7245 H         1 RES1    0.0000
     12 N3         5.4106    1.3967    3.4033 N.2       1 RES1    0.0000
     13 C3         4.3974    1.8338    4.0729 C.2       1 RES1    0.0000
     14 C4         1.5314    3.9840    4.5478 C.ar      1 RES1    0.0000
     15 C5         1.3252    4.8431    3.4601 C.ar      1 RES1    0.0000
     16 H7         1.9344    4.8331    2.7187 H         1 RES1    0.0000
     17 C6         0.2523    5.7274    3.4439 C.ar      1 RES1    0.0000
     18 H8         0.1359    6.3106    2.6909 H         1 RES1    0.0000
     19 C7        -0.6427    5.7776    4.4911 C.ar      1 RES1    0.0000
     20 H9        -1.3634    6.4096    4.4899 H         1 RES1    0.0000
     21 C8        -0.4771    4.9034    5.5394 C.ar      1 RES1    0.0000
     22 H10       -1.1162    4.8884    6.2564 H         1 RES1    0.0000
     23 C9         0.5863    4.0443    5.5938 C.ar      1 RES1    0.0000
     24 H11        0.6952    3.4625    6.3503 H         1 RES1    0.0000
@<TRIPOS>BOND
     1    1    2 1
     2    3    4 1
     3    4    5 1
     4    6    4 1
     5    7    4 1
     6    8    3 1
     7    9    7 1
     8   10    9 1
     9   11    9 1
    10   12    1 1
    11   13    3 1
    12   14    7 1
    13   15   14 ar
    14   16   15 1
    15   17   15 ar
    16   18   17 1
    17   19   17 ar
    18   20   19 1
    19   21   19 ar
    20   22   21 1
    21   23   14 ar
    22   24   23 1
    23    9   13 1
    24   12   13 2
    25   21   23 ar
@<TRIPOS>SUBSTRUCTURE
     1 RES1 1

@<TRIPOS>CRYSIN
  15.3120    5.0240   12.5140  90.0000 112.2300  90.0000  14 1

