# MOL2 file generated by ConQuest
# Please check atom types

@<TRIPOS>MOLECULE
HIHMAM
    65    68     1
SMALL
NO_CHARGES
****
Generated from CSD

@<TRIPOS>ATOM
      1 O1        14.8349   11.5812   -1.2508 O.2       1 RES1    0.0000
      2 O2        13.6242   11.4619    0.6103 O.3       1 RES1    0.0000
      3 O3         9.9173    4.0866    2.9098 O.3       1 RES1    0.0000
      4 O4         6.0493    1.1114    7.0387 O.2       1 RES1    0.0000
      5 O5         6.3793   -0.3692    5.3770 O.3       1 RES1    0.0000
      6 O6         3.5180   -3.1107    8.2812 O.2       1 RES1    0.0000
      7 O7        -0.8683   -6.7371   12.3222 O.2       1 RES1    0.0000
      8 O8        -0.4897   -8.4782   11.1346 O.2       1 RES1    0.0000
      9 N1         3.0843   -4.5724    6.6250 N.2       1 RES1    0.0000
     10 N2        -0.3370   -7.2925   11.3807 N.pl3     1 RES1    0.0000
     11 C1        15.2410   14.3430   -0.6790 C.2       1 RES1    0.0000
     12 C2        14.4646   13.5472    0.0316 C.2       1 RES1    0.0000
     13 C3        14.3423   12.1172   -0.2996 C.2       1 RES1    0.0000
     14 C4        13.4756   10.0288    0.4206 C.3       1 RES1    0.0000
     15 C5        12.6310    9.5136    1.5545 C.3       1 RES1    0.0000
     16 C6        12.3559    8.0242    1.3937 C.3       1 RES1    0.0000
     17 C7        11.4642    7.4635    2.4892 C.3       1 RES1    0.0000
     18 C8        11.1165    6.0045    2.2335 C.3       1 RES1    0.0000
     19 C9        10.1631    5.4553    3.2685 C.3       1 RES1    0.0000
     20 C10        9.0939    3.3522    3.7125 C.ar      1 RES1    0.0000
     21 C11        8.4653    3.8320    4.8382 C.ar      1 RES1    0.0000
     22 C12        7.6491    2.9840    5.5735 C.ar      1 RES1    0.0000
     23 C13        7.4652    1.6715    5.1955 C.ar      1 RES1    0.0000
     24 C14        8.0968    1.2046    4.0520 C.ar      1 RES1    0.0000
     25 C15        8.9081    2.0375    3.3166 C.ar      1 RES1    0.0000
     26 C16        6.5617    0.8188    6.0037 C.2       1 RES1    0.0000
     27 C17        5.4807   -1.3646    5.7549 C.ar      1 RES1    0.0000
     28 C18        4.9716   -1.5392    7.0277 C.ar      1 RES1    0.0000
     29 C19        4.1590   -2.6627    7.1459 C.ar      1 RES1    0.0000
     30 C20        3.8758   -3.5391    6.1302 C.ar      1 RES1    0.0000
     31 C21        4.3730   -3.3099    4.8574 C.ar      1 RES1    0.0000
     32 C22        5.1809   -2.2017    4.6828 C.ar      1 RES1    0.0000
     33 C23        2.9147   -4.2768    7.8606 C.2       1 RES1    0.0000
     34 C24        2.1271   -5.0392    8.8324 C.ar      1 RES1    0.0000
     35 C25        1.6469   -4.4745   10.0021 C.ar      1 RES1    0.0000
     36 C26        0.8331   -5.2090   10.8446 C.ar      1 RES1    0.0000
     37 C27        0.5353   -6.5112   10.5038 C.ar      1 RES1    0.0000
     38 C28        1.0184   -7.1093    9.3574 C.ar      1 RES1    0.0000
     39 C29        1.8222   -6.3665    8.5245 C.ar      1 RES1    0.0000
     40 H1        15.4172   15.2997   -0.4261 H         1 RES1    0.0000
     41 H2        15.8656   13.9497   -1.3195 H         1 RES1    0.0000
     42 H3        13.9547   13.8673    0.7972 H         1 RES1    0.0000
     43 H4        14.4425    9.6209    0.4398 H         1 RES1    0.0000
     44 H5        13.0654    9.8549   -0.4398 H         1 RES1    0.0000
     45 H6        13.0778    9.6905    2.4603 H         1 RES1    0.0000
     46 H7        11.8217   10.0284    1.5944 H         1 RES1    0.0000
     47 H8        13.2641    7.5102    1.3195 H         1 RES1    0.0000
     48 H9        11.9155    7.8744    0.5223 H         1 RES1    0.0000
     49 H10       11.9325    7.5542    3.3125 H         1 RES1    0.0000
     50 H11       10.6162    8.0693    2.5565 H         1 RES1    0.0000
     51 H12       11.9243    5.4356    2.2267 H         1 RES1    0.0000
     52 H13       10.7059    5.9477    1.3058 H         1 RES1    0.0000
     53 H14       10.6487    5.4508    4.2059 H         1 RES1    0.0000
     54 H15        9.2656    5.9654    3.2300 H         1 RES1    0.0000
     55 H16        8.5618    4.7202    5.0993 H         1 RES1    0.0000
     56 H17        7.2540    3.3322    6.4051 H         1 RES1    0.0000
     57 H18        8.0086    0.3160    3.7523 H         1 RES1    0.0000
     58 H19        9.3318    1.7658    2.5015 H         1 RES1    0.0000
     59 H20        5.1877   -0.9036    7.7795 H         1 RES1    0.0000
     60 H21        4.1171   -3.9603    4.0959 H         1 RES1    0.0000
     61 H22        5.5576   -1.9923    3.8073 H         1 RES1    0.0000
     62 H23        1.8596   -3.5653   10.1849 H         1 RES1    0.0000
     63 H24        0.4791   -4.7967   11.6418 H         1 RES1    0.0000
     64 H25        0.8089   -7.9748    9.1265 H         1 RES1    0.0000
     65 H26        2.1738   -6.7178    7.6971 H         1 RES1    0.0000
@<TRIPOS>BOND
     1    1   13 2
     2    2   13 1
     3    3   19 1
     4    4   26 2
     5    5   26 1
     6    6   29 1
     7    7   10 2
     8    8   10 2
     9    9   30 1
    10   10   37 1
    11   11   12 2
    12   12   13 1
    13   14    2 1
    14   15   14 1
    15   16   15 1
    16   17   16 1
    17   18   17 1
    18   19   18 1
    19   20    3 1
    20   21   20 ar
    21   22   21 ar
    22   23   22 ar
    23   24   23 ar
    24   25   20 ar
    25   26   23 1
    26   27    5 1
    27   28   27 ar
    28   29   28 ar
    29   30   29 ar
    30   31   30 ar
    31   32   27 ar
    32   33    6 2
    33   34   33 1
    34   35   34 ar
    35   36   35 ar
    36   37   36 ar
    37   38   37 ar
    38   39   34 ar
    39   40   11 1
    40   41   11 1
    41   42   12 1
    42   43   14 1
    43   44   14 1
    44   45   15 1
    45   46   15 1
    46   47   16 1
    47   48   16 1
    48   49   17 1
    49   50   17 1
    50   51   18 1
    51   52   18 1
    52   53   19 1
    53   54   19 1
    54   55   21 1
    55   56   22 1
    56   57   24 1
    57   58   25 1
    58   59   28 1
    59   60   31 1
    60   61   32 1
    61   62   35 1
    62   63   36 1
    63   64   38 1
    64   65   39 1
    65    9   33 1
    66   24   25 ar
    67   31   32 ar
    68   38   39 ar
@<TRIPOS>SUBSTRUCTURE
     1 RES1 1

@<TRIPOS>CRYSIN
   8.7440   11.0870   14.5110 106.1600 102.9800  75.3100   2 1

