# MOL2 file generated by ConQuest
# Please check atom types

@<TRIPOS>MOLECULE
HIHWEA01
    49    50     1
SMALL
NO_CHARGES
****
Generated from CSD

@<TRIPOS>ATOM
      1 O1         1.5768    8.2793    6.1421 O.2       1 RES1    0.0000
      2 O2        -0.4300    7.5837    5.5729 O.3       1 RES1    0.0000
      3 O3        -1.4685    3.2437    3.8168 O.2       1 RES1    0.0000
      4 O4         0.1373    1.8777    3.1036 O.3       1 RES1    0.0000
      5 O5        -4.1695    6.0688    7.4522 O.2       1 RES1    0.0000
      6 O6        -4.2814    4.7939    9.1546 O.2       1 RES1    0.0000
      7 N1         2.9419    4.4217    4.9378 N.pl3     1 RES1    0.0000
      8 H1         3.7563    4.1717    5.0558 H         1 RES1    0.0000
      9 N2        -3.6874    5.2433    8.1932 N.pl3     1 RES1    0.0000
     10 C1         2.5826    5.6821    5.3768 C.2       1 RES1    0.0000
     11 C2         1.2913    6.0352    5.4029 C.2       1 RES1    0.0000
     12 C3         0.1951    5.0110    5.0870 C.3       1 RES1    0.0000
     13 H2        -0.4663    5.4421    4.5074 H         1 RES1    0.0000
     14 C4         0.7461    3.8079    4.3539 C.2       1 RES1    0.0000
     15 C5         2.0790    3.5404    4.3252 C.2       1 RES1    0.0000
     16 C6         3.7649    6.5167    5.7942 C.3       1 RES1    0.0000
     17 H3         4.0289    7.0839    5.0662 H         1 RES1    0.0000
     18 H4         4.4952    5.9404    6.0328 H         1 RES1    0.0000
     19 H5         3.5253    7.0579    6.5508 H         1 RES1    0.0000
     20 C7         2.7907    2.3603    3.7292 C.3       1 RES1    0.0000
     21 H6         2.6228    1.5822    4.2654 H         1 RES1    0.0000
     22 H7         3.7333    2.5345    3.7049 H         1 RES1    0.0000
     23 H8         2.4693    2.2105    2.8372 H         1 RES1    0.0000
     24 C8         0.8824    7.3942    5.7551 C.2       1 RES1    0.0000
     25 C9        -0.9642    8.8770    5.8775 C.3       1 RES1    0.0000
     26 H9        -0.5266    9.5496    5.3317 H         1 RES1    0.0000
     27 H10       -0.7992    9.0879    6.8093 H         1 RES1    0.0000
     28 C10       -2.4033    8.8892    5.6163 C.3       1 RES1    0.0000
     29 H11       -2.5597    8.7394    4.6810 H         1 RES1    0.0000
     30 H12       -2.7663    9.7407    5.8705 H         1 RES1    0.0000
     31 H13       -2.8265    8.1952    6.1265 H         1 RES1    0.0000
     32 C11       -0.2884    2.9748    3.7456 C.2       1 RES1    0.0000
     33 C12       -0.8637    0.9829    2.5691 C.3       1 RES1    0.0000
     34 H14       -1.4491    1.4553    1.9574 H         1 RES1    0.0000
     35 H15       -1.4018    0.6099    3.2858 H         1 RES1    0.0000
     36 C13       -0.1320   -0.0948    1.8568 C.3       1 RES1    0.0000
     37 H16        0.3831    0.2874    1.1436 H         1 RES1    0.0000
     38 H17       -0.7619   -0.7246    1.4967 H         1 RES1    0.0000
     39 H18        0.4534   -0.5442    2.4711 H         1 RES1    0.0000
     40 C14       -0.5036    4.6089    6.3868 C.ar      1 RES1    0.0000
     41 C15       -1.7591    5.0782    6.7043 C.ar      1 RES1    0.0000
     42 H19       -2.2124    5.6331    6.1117 H         1 RES1    0.0000
     43 C16       -2.3373    4.7266    7.8947 C.ar      1 RES1    0.0000
     44 C17       -1.7232    3.9272    8.8240 C.ar      1 RES1    0.0000
     45 H20       -2.1378    3.7101    9.6283 H         1 RES1    0.0000
     46 C18       -0.4620    3.4579    8.5142 C.ar      1 RES1    0.0000
     47 H21       -0.0057    2.9198    9.1199 H         1 RES1    0.0000
     48 C19        0.1248    3.7850    7.3073 C.ar      1 RES1    0.0000
     49 H22        0.9656    3.4426    7.1061 H         1 RES1    0.0000
@<TRIPOS>BOND
     1    1   24 2
     2    2   24 1
     3    3   32 2
     4    4   32 1
     5    5    9 2
     6    6    9 2
     7    7    8 1
     8    9   43 1
     9   10    7 1
    10   11   10 2
    11   12   11 1
    12   13   12 1
    13   14   12 1
    14   15    7 1
    15   16   10 1
    16   17   16 1
    17   18   16 1
    18   19   16 1
    19   20   15 1
    20   21   20 1
    21   22   20 1
    22   23   20 1
    23   24   11 1
    24   25    2 1
    25   26   25 1
    26   27   25 1
    27   28   25 1
    28   29   28 1
    29   30   28 1
    30   31   28 1
    31   32   14 1
    32   33    4 1
    33   34   33 1
    34   35   33 1
    35   36   33 1
    36   37   36 1
    37   38   36 1
    38   39   36 1
    39   40   12 1
    40   41   40 ar
    41   42   41 1
    42   43   41 ar
    43   44   43 ar
    44   45   44 1
    45   46   44 ar
    46   47   46 1
    47   48   40 ar
    48   49   48 1
    49   14   15 2
    50   46   48 ar
@<TRIPOS>SUBSTRUCTURE
     1 RES1 1

@<TRIPOS>CRYSIN
  14.3479   15.2867    8.6765  90.0000  90.0000  90.0000  33 1

