# MOL2 file generated by ConQuest
# Please check atom types

@<TRIPOS>MOLECULE
HIHWEA
    49    50     1
SMALL
NO_CHARGES
****
Generated from CSD

@<TRIPOS>ATOM
      1 N1         2.9430    4.4194    5.5074 N.pl3     1 RES1    0.0000
      2 H1         3.8786    4.1610    5.7545 H         1 RES1    0.0000
      3 C1         2.0804    3.5401    6.1145 C.2       1 RES1    0.0000
      4 C2         2.7782    2.3565    6.7302 C.3       1 RES1    0.0000
      5 H2         2.1248    1.7876    7.1492 H         1 RES1    0.0000
      6 H3         3.2367    1.8687    6.0459 H         1 RES1    0.0000
      7 H4         3.4101    2.6516    7.3929 H         1 RES1    0.0000
      8 C3         0.7637    3.7970    6.1058 C.2       1 RES1    0.0000
      9 C4        -0.2909    2.9789    6.7042 C.2       1 RES1    0.0000
     10 C5        -0.8726    0.9848    7.8664 C.3       1 RES1    0.0000
     11 C6        -0.1318   -0.0856    8.5949 C.3       1 RES1    0.0000
     12 H5        -1.3884    0.6071    7.1518 H         1 RES1    0.0000
     13 H6        -1.4615    1.4558    8.4622 H         1 RES1    0.0000
     14 H7        -0.7494   -0.7187    8.9757 H         1 RES1    0.0000
     15 H8         0.4571   -0.5367    7.9913 H         1 RES1    0.0000
     16 H9         0.3826    0.3135    9.3061 H         1 RES1    0.0000
     17 O1        -1.4643    3.2465    6.6348 O.2       1 RES1    0.0000
     18 O2         0.1347    1.8717    7.3460 O.3       1 RES1    0.0000
     19 C7         0.1877    5.0142    5.3616 C.3       1 RES1    0.0000
     20 H10       -0.4685    5.4256    5.9289 H         1 RES1    0.0000
     21 C8         1.2881    6.0327    5.0477 C.2       1 RES1    0.0000
     22 C9         0.8812    7.4013    4.7094 C.2       1 RES1    0.0000
     23 C10       -0.9714    8.8694    4.5707 C.3       1 RES1    0.0000
     24 C11       -2.3527    8.9183    4.8222 C.3       1 RES1    0.0000
     25 H11       -0.7608    9.1293    3.6748 H         1 RES1    0.0000
     26 H12       -0.5760    9.5055    5.1743 H         1 RES1    0.0000
     27 H13       -2.7109    9.7915    4.6531 H         1 RES1    0.0000
     28 H14       -2.7424    8.2852    4.2203 H         1 RES1    0.0000
     29 H15       -2.5561    8.6629    5.7303 H         1 RES1    0.0000
     30 O3         1.5789    8.2852    4.3105 O.2       1 RES1    0.0000
     31 O4        -0.4313    7.5894    4.8872 O.3       1 RES1    0.0000
     32 C12        2.5819    5.6840    5.0824 C.2       1 RES1    0.0000
     33 C13        3.7425    6.5389    4.6401 C.3       1 RES1    0.0000
     34 H16        3.4258    7.3998    4.3669 H         1 RES1    0.0000
     35 H17        4.3471    6.6459    5.3851 H         1 RES1    0.0000
     36 H18        4.1981    6.1122    3.9185 H         1 RES1    0.0000
     37 C14       -0.4929    4.5968    4.0590 C.ar      1 RES1    0.0000
     38 C15        0.1404    3.7832    3.1396 C.ar      1 RES1    0.0000
     39 H19        1.0130    3.4453    3.3573 H         1 RES1    0.0000
     40 C16       -0.4685    3.4652    1.9514 C.ar      1 RES1    0.0000
     41 H20        0.0029    2.9070    1.3304 H         1 RES1    0.0000
     42 C17       -1.7294    3.9331    1.6305 C.ar      1 RES1    0.0000
     43 H21       -2.1578    3.7190    0.8005 H         1 RES1    0.0000
     44 C18       -2.3455    4.7390    2.5412 C.ar      1 RES1    0.0000
     45 C19       -1.7537    5.0831    3.7554 C.ar      1 RES1    0.0000
     46 H22       -2.2151    5.6611    4.3703 H         1 RES1    0.0000
     47 N2        -3.6780    5.2528    2.2637 N.pl3     1 RES1    0.0000
     48 O5        -4.2783    4.8063    1.2836 O.2       1 RES1    0.0000
     49 O6        -4.1752    6.0770    3.0182 O.2       1 RES1    0.0000
@<TRIPOS>BOND
     1    1    2 1
     2    3    1 1
     3    4    3 1
     4    5    4 1
     5    6    4 1
     6    7    4 1
     7    8    3 2
     8    9    8 1
     9   10   11 1
    10   11   14 1
    11   12   10 1
    12   13   10 1
    13   15   11 1
    14   16   11 1
    15   17    9 2
    16   18    9 1
    17   19    8 1
    18   20   19 1
    19   21   19 1
    20   22   21 1
    21   23   24 1
    22   24   27 1
    23   25   23 1
    24   26   23 1
    25   28   24 1
    26   29   24 1
    27   30   22 2
    28   31   22 1
    29   32    1 1
    30   33   32 1
    31   34   33 1
    32   35   33 1
    33   36   33 1
    34   37   19 1
    35   38   37 ar
    36   39   38 1
    37   40   38 ar
    38   41   40 1
    39   42   40 ar
    40   43   42 1
    41   44   42 ar
    42   45   37 ar
    43   46   45 1
    44   47   44 1
    45   48   47 2
    46   49   47 2
    47   10   18 1
    48   21   32 2
    49   23   31 1
    50   44   45 ar
@<TRIPOS>SUBSTRUCTURE
     1 RES1 1

@<TRIPOS>CRYSIN
  14.3280   15.2920    8.6730  90.0000  90.0000  90.0000  33 1

