# MOL2 file generated by ConQuest
# Please check atom types

@<TRIPOS>MOLECULE
HIJFOW
    76    78     1
SMALL
NO_CHARGES
****
Generated from CSD

@<TRIPOS>ATOM
      1 N1         1.1501    8.5574    3.2472 N.3       1 RES1    0.0000
      2 C1         2.0178    8.9669    4.3525 C.3       1 RES1    0.0000
      3 C2         1.9690    8.0161    5.5147 C.3       1 RES1    0.0000
      4 N2         2.2724    6.6857    5.0850 N.am      1 RES1    0.0000
      5 C3         2.7563    5.7397    5.8693 C.2       1 RES1    0.0000
      6 O1         3.0604    5.9248    7.0498 O.2       1 RES1    0.0000
      7 N3         2.9195    4.5158    5.2597 N.am      1 RES1    0.0000
      8 C4         3.4975    3.3640    5.8279 C.ar      1 RES1    0.0000
      9 C5         4.5591    3.4115    6.6860 C.ar      1 RES1    0.0000
     10 C6         5.1200    2.2389    7.1739 C.ar      1 RES1    0.0000
     11 C7         4.5319    1.0327    6.8063 C.ar      1 RES1    0.0000
     12 C8         3.4894    0.9584    5.9638 C.ar      1 RES1    0.0000
     13 C9         2.9340    2.1340    5.4836 C.ar      1 RES1    0.0000
     14 N4         5.1872   -0.1979    7.2891 N.pl3     1 RES1    0.0000
     15 O2         6.2671   -0.1291    7.8391 O.2       1 RES1    0.0000
     16 O3         4.5475   -1.2497    7.1428 O.2       1 RES1    0.0000
     17 C10       -0.2140    9.0937    3.3961 C.3       1 RES1    0.0000
     18 C11       -1.2350    8.2966    2.6389 C.3       1 RES1    0.0000
     19 N5        -1.4501    6.9911    3.2330 N.am      1 RES1    0.0000
     20 C12       -2.1731    6.0578    2.6169 C.2       1 RES1    0.0000
     21 O4        -2.6371    6.2052    1.4884 O.2       1 RES1    0.0000
     22 N6        -2.3393    4.9129    3.3637 N.am      1 RES1    0.0000
     23 C13       -3.0002    3.7302    3.0168 C.ar      1 RES1    0.0000
     24 C14       -3.9330    3.6383    2.0164 C.ar      1 RES1    0.0000
     25 C15       -4.5352    2.4245    1.7330 C.ar      1 RES1    0.0000
     26 C16       -4.1681    1.3196    2.4733 C.ar      1 RES1    0.0000
     27 C17       -3.2653    1.3910    3.4750 C.ar      1 RES1    0.0000
     28 C18       -2.6423    2.5925    3.7403 C.ar      1 RES1    0.0000
     29 N7        -4.8567    0.0539    2.2144 N.pl3     1 RES1    0.0000
     30 O5        -5.5087   -0.0698    1.2140 O.2       1 RES1    0.0000
     31 O6        -4.7157   -0.8301    3.0311 O.2       1 RES1    0.0000
     32 C19        1.7249    8.8446    1.9362 C.3       1 RES1    0.0000
     33 C20        2.4034    7.6397    1.3279 C.3       1 RES1    0.0000
     34 N8         1.4569    6.6010    0.9215 N.am      1 RES1    0.0000
     35 C21        1.3013    5.4285    1.5647 C.2       1 RES1    0.0000
     36 O7         1.9385    5.1320    2.5833 O.2       1 RES1    0.0000
     37 N9         0.4631    4.5567    0.9448 N.am      1 RES1    0.0000
     38 C22        0.1992    3.2309    1.2554 C.ar      1 RES1    0.0000
     39 C23        0.8680    2.4987    2.2092 C.ar      1 RES1    0.0000
     40 C24        0.5852    1.1762    2.4124 C.ar      1 RES1    0.0000
     41 C25       -0.4404    0.5767    1.7213 C.ar      1 RES1    0.0000
     42 C26       -1.1534    1.2696    0.7947 C.ar      1 RES1    0.0000
     43 C27       -0.8556    2.5940    0.5708 C.ar      1 RES1    0.0000
     44 N10       -0.7505   -0.8342    1.9595 N.pl3     1 RES1    0.0000
     45 O8         0.0223   -1.4783    2.6842 O.2       1 RES1    0.0000
     46 O9        -1.7528   -1.3067    1.4275 O.2       1 RES1    0.0000
     47 H1         2.0020    9.9312    4.5945 H         1 RES1    0.0000
     48 H2         2.6591    8.9379    4.0380 H         1 RES1    0.0000
     49 H3         2.4865    8.3026    6.2900 H         1 RES1    0.0000
     50 H4         1.0944    8.0322    5.9017 H         1 RES1    0.0000
     51 H5         1.9673    6.5086    4.3098 H         1 RES1    0.0000
     52 H6         2.5963    4.3882    4.5427 H         1 RES1    0.0000
     53 H7         4.6642    4.2201    6.9759 H         1 RES1    0.0000
     54 H8         5.8752    2.2682    7.7395 H         1 RES1    0.0000
     55 H9         3.1503    0.1087    5.7205 H         1 RES1    0.0000
     56 H10        2.3687    2.1520    4.9310 H         1 RES1    0.0000
     57 H11       -0.3279   10.0420    3.0803 H         1 RES1    0.0000
     58 H12       -0.4006    9.0777    4.3227 H         1 RES1    0.0000
     59 H13       -2.1477    8.8069    2.6661 H         1 RES1    0.0000
     60 H14       -0.8925    8.1192    1.6825 H         1 RES1    0.0000
     61 H15       -0.9080    6.8384    4.0380 H         1 RES1    0.0000
     62 H16       -2.0443    4.9344    4.1286 H         1 RES1    0.0000
     63 H17       -4.0127    4.4039    1.5401 H         1 RES1    0.0000
     64 H18       -5.1870    2.3683    1.1130 H         1 RES1    0.0000
     65 H19       -3.2891    0.6036    4.0380 H         1 RES1    0.0000
     66 H20       -1.9447    2.6439    4.4133 H         1 RES1    0.0000
     67 H21        1.1193    9.0924    1.1907 H         1 RES1    0.0000
     68 H22        2.2434    9.6043    2.0061 H         1 RES1    0.0000
     69 H23        3.0454    7.9511    0.4400 H         1 RES1    0.0000
     70 H24        3.1042    7.2145    1.9802 H         1 RES1    0.0000
     71 H25        0.9723    6.7194    0.1294 H         1 RES1    0.0000
     72 H26        0.3854    4.8292    0.2071 H         1 RES1    0.0000
     73 H27        1.7281    2.8209    2.4461 H         1 RES1    0.0000
     74 H28        0.8469    0.6262    3.0803 H         1 RES1    0.0000
     75 H29       -1.9370    0.8592    0.3494 H         1 RES1    0.0000
     76 H30       -1.4327    3.0666   -0.1424 H         1 RES1    0.0000
@<TRIPOS>BOND
     1    1    2 1
     2    2    3 1
     3    3    4 1
     4    4    5 1
     5    5    6 2
     6    7    5 1
     7    8    7 1
     8    9    8 ar
     9   10    9 ar
    10   11   10 ar
    11   12   11 ar
    12   13    8 ar
    13   14   11 1
    14   15   14 2
    15   16   14 2
    16   17    1 1
    17   18   17 1
    18   19   18 1
    19   20   19 1
    20   21   20 2
    21   22   20 1
    22   23   22 1
    23   24   23 ar
    24   25   24 ar
    25   26   25 ar
    26   27   26 ar
    27   28   23 ar
    28   29   26 1
    29   30   29 2
    30   31   29 2
    31   32    1 1
    32   33   32 1
    33   34   33 1
    34   35   34 1
    35   36   35 2
    36   37   35 1
    37   38   37 1
    38   39   38 ar
    39   40   39 ar
    40   41   40 ar
    41   42   41 ar
    42   43   38 ar
    43   44   41 1
    44   45   44 2
    45   46   44 2
    46   47    2 1
    47   48    2 1
    48   49    3 1
    49   50    3 1
    50   51    4 1
    51   52    7 1
    52   53    9 1
    53   54   10 1
    54   55   12 1
    55   56   13 1
    56   57   17 1
    57   58   17 1
    58   59   18 1
    59   60   18 1
    60   61   19 1
    61   62   22 1
    62   63   24 1
    63   64   25 1
    64   65   27 1
    65   66   28 1
    66   67   32 1
    67   68   32 1
    68   69   33 1
    69   70   33 1
    70   71   34 1
    71   72   37 1
    72   73   39 1
    73   74   40 1
    74   75   42 1
    75   76   43 1
    76   12   13 ar
    77   27   28 ar
    78   42   43 ar
@<TRIPOS>SUBSTRUCTURE
     1 RES1 1

@<TRIPOS>CRYSIN
   8.9805   13.0210   13.7100  90.8780 108.5910 102.2590   2 1

