# MOL2 file generated by ConQuest
# Please check atom types

@<TRIPOS>MOLECULE
HIJZOQ
    42    45     1
SMALL
NO_CHARGES
****
Generated from CSD

@<TRIPOS>ATOM
      1 O1         4.1757   17.1509   -0.4758 O.3       1 RES1    0.0000
      2 O2         6.1987   16.6988    0.4070 O.3       1 RES1    0.0000
      3 O3         7.4254   12.3146    1.8670 O.3       1 RES1    0.0000
      4 O4         9.0316   13.6540    1.1573 O.2       1 RES1    0.0000
      5 O5         2.2043   17.6639    0.5941 O.3       1 RES1    0.0000
      6 N1         5.1078   16.1149   -0.4097 N.3       1 RES1    0.0000
      7 C1         3.5141   17.2847    0.8270 C.3       1 RES1    0.0000
      8 H1         3.9827   17.9640    1.3927 H         1 RES1    0.0000
      9 C2         3.5804   15.8988    1.4785 C.3       1 RES1    0.0000
     10 H2         2.6621   15.5020    1.4851 H         1 RES1    0.0000
     11 C3         4.4575   15.1083    0.4720 C.3       1 RES1    0.0000
     12 H3         3.8383   14.5724   -0.1007 H         1 RES1    0.0000
     13 C4         5.5024   14.1611    1.0063 C.2       1 RES1    0.0000
     14 C5         6.8187   14.4511    0.8886 C.2       1 RES1    0.0000
     15 C6         7.2931   15.7775    0.3469 C.3       1 RES1    0.0000
     16 H4         8.0027   16.1169    0.9645 H         1 RES1    0.0000
     17 C7         7.9083   15.6781   -1.0441 C.3       1 RES1    0.0000
     18 H5         7.2814   15.2266   -1.6466 H         1 RES1    0.0000
     19 H6         8.7431   15.1676   -0.9961 H         1 RES1    0.0000
     20 H7         8.0962   16.5793   -1.3837 H         1 RES1    0.0000
     21 C8         7.8409   13.4907    1.2910 C.2       1 RES1    0.0000
     22 C9         6.0869   12.0364    2.0596 C.ar      1 RES1    0.0000
     23 C10        5.7912   10.8517    2.7202 C.ar      1 RES1    0.0000
     24 H8         6.4863   10.2732    3.0122 H         1 RES1    0.0000
     25 C11        4.4655   10.5285    2.9450 C.ar      1 RES1    0.0000
     26 H9         4.2469    9.7297    3.4088 H         1 RES1    0.0000
     27 C12        3.4474   11.3689    2.4955 C.ar      1 RES1    0.0000
     28 H10        2.5391   11.1316    2.6411 H         1 RES1    0.0000
     29 C13        3.7535   12.5443    1.8395 C.ar      1 RES1    0.0000
     30 H11        3.0537   13.1114    1.5362 H         1 RES1    0.0000
     31 C14        5.0928   12.9100    1.6174 C.ar      1 RES1    0.0000
     32 C15        4.0958   15.9634    2.9112 C.3       1 RES1    0.0000
     33 H12        4.1241   15.0593    3.2894 H         1 RES1    0.0000
     34 H13        3.4979   16.5227    3.4486 H         1 RES1    0.0000
     35 H14        4.9966   16.3481    2.9176 H         1 RES1    0.0000
     36 C16        2.1005   19.0262    0.1351 C.3       1 RES1    0.0000
     37 H15        2.4753   19.1052   -0.7782 H         1 RES1    0.0000
     38 H16        2.6100   19.6266    0.7354 H         1 RES1    0.0000
     39 C17        0.6529   19.4119    0.1322 C.3       1 RES1    0.0000
     40 H17        0.1515   18.7953   -0.4402 H         1 RES1    0.0000
     41 H18        0.5591   20.3251   -0.2118 H         1 RES1    0.0000
     42 H19        0.3013   19.3683    1.0456 H         1 RES1    0.0000
@<TRIPOS>BOND
     1    1    6 1
     2    2    6 1
     3    3   21 1
     4    4   21 2
     5    5    7 1
     6    6   11 1
     7    7    1 1
     8    8    7 1
     9    9    7 1
    10   10    9 1
    11   11    9 1
    12   12   11 1
    13   13   11 1
    14   14   13 2
    15   15    2 1
    16   16   15 1
    17   17   15 1
    18   18   17 1
    19   19   17 1
    20   20   17 1
    21   21   14 1
    22   22    3 1
    23   23   22 ar
    24   24   23 1
    25   25   23 ar
    26   26   25 1
    27   27   25 ar
    28   28   27 1
    29   29   27 ar
    30   30   29 1
    31   31   13 1
    32   32    9 1
    33   33   32 1
    34   34   32 1
    35   35   32 1
    36   36    5 1
    37   37   36 1
    38   38   36 1
    39   39   36 1
    40   40   39 1
    41   41   39 1
    42   42   39 1
    43   14   15 1
    44   22   31 ar
    45   29   31 ar
@<TRIPOS>SUBSTRUCTURE
     1 RES1 1

@<TRIPOS>CRYSIN
   8.2199   24.5947    8.0807  90.0000 111.6290  90.0000  14 1

