# MOL2 file generated by ConQuest
# Please check atom types

@<TRIPOS>MOLECULE
HIKQIB
    16    16     1
SMALL
NO_CHARGES
****
Generated from CSD

@<TRIPOS>ATOM
      1 O1        -2.1865    5.7003   10.6583 O.3       1 RES1    0.0000
      2 N1        -2.4481    4.6686    9.7720 N.2       1 RES1    0.0000
      3 N2        -1.2751    1.3269    9.6149 N.2       1 RES1    0.0000
      4 N3        -0.2628    1.5124   10.5676 N.2       1 RES1    0.0000
      5 N4         1.5753    0.4076   11.3990 N.3       1 RES1    0.0000
      6 C1        -1.9272    3.5786   10.1832 C.2       1 RES1    0.0000
      7 C2        -2.0456    2.3519    9.4080 C.2       1 RES1    0.0000
      8 C3         0.5104    0.4834   10.6046 C.2       1 RES1    0.0000
      9 C4        -3.0550    2.2151    8.3302 C.ar      1 RES1    0.0000
     10 C5        -2.6663    1.6790    7.1017 C.ar      1 RES1    0.0000
     11 C6        -3.6122    1.4610    6.1120 C.ar      1 RES1    0.0000
     12 C7        -4.9182    1.7548    6.3316 C.ar      1 RES1    0.0000
     13 C8        -5.3169    2.3059    7.5282 C.ar      1 RES1    0.0000
     14 C9        -4.3775    2.5509    8.5345 C.ar      1 RES1    0.0000
     15 C10        1.9792    1.5178   12.2456 C.3       1 RES1    0.0000
     16 C11        2.4560   -0.7379   11.3824 C.3       1 RES1    0.0000
@<TRIPOS>BOND
     1    1    2 1
     2    2    6 2
     3    3    4 1
     4    4    8 2
     5    5    8 1
     6    6    7 1
     7    7    3 2
     8    9    7 1
     9   10    9 ar
    10   11   10 ar
    11   12   11 ar
    12   13   12 ar
    13   14    9 ar
    14   15    5 1
    15   16    5 1
    16   13   14 ar
@<TRIPOS>SUBSTRUCTURE
     1 RES1 1

@<TRIPOS>CRYSIN
   6.9050   13.5400   13.0970  90.0000 102.8200  90.0000  14 1

