# MOL2 file generated by ConQuest
# Please check atom types

@<TRIPOS>MOLECULE
HIKXAA
    46    49     1
SMALL
NO_CHARGES
****
Generated from CSD

@<TRIPOS>ATOM
      1 O1         6.1687    3.7095    5.6027 O.2       1 RES1    0.0000
      2 O2         6.8776    1.8442    4.7713 O.2       1 RES1    0.0000
      3 N1         6.1886    2.8256    4.8857 N.pl3     1 RES1    0.0000
      4 C1         0.8138    3.5099    0.9861 C.2       1 RES1    0.0000
      5 H1         0.8092    4.3562    1.3747 H         1 RES1    0.0000
      6 C2         1.7492    2.4955    1.2156 C.2       1 RES1    0.0000
      7 C3         1.4150    1.4136    0.3903 C.2       1 RES1    0.0000
      8 H2         1.9088    0.6303    0.3052 H         1 RES1    0.0000
      9 C4         0.2405    1.6912   -0.2751 C.2       1 RES1    0.0000
     10 C5        -0.6379    1.0399   -1.1761 C.2       1 RES1    0.0000
     11 H3        -0.4699    0.1531   -1.3979 H         1 RES1    0.0000
     12 C6        -1.7026    1.6492   -1.7263 C.2       1 RES1    0.0000
     13 H4        -2.2372    1.2170   -2.3530 H         1 RES1    0.0000
     14 C7        -1.9725    2.9667   -1.3145 C.2       1 RES1    0.0000
     15 H5        -2.7408    3.3703   -1.6498 H         1 RES1    0.0000
     16 C8        -1.2187    3.6810   -0.4849 C.2       1 RES1    0.0000
     17 N2        -1.3813    5.0075   -0.0017 N.3       1 RES1    0.0000
     18 N3        -0.1060    3.0192    0.0696 N.pl3     1 RES1    0.0000
     19 C9         2.8957    2.5645    2.1527 C.ar      1 RES1    0.0000
     20 C10        2.8823    3.4694    3.1353 C.ar      1 RES1    0.0000
     21 H6         2.1440    4.0261    3.2368 H         1 RES1    0.0000
     22 C11        3.9682    3.5924    4.0165 C.ar      1 RES1    0.0000
     23 H7         4.0047    4.2662    4.6579 H         1 RES1    0.0000
     24 C12        4.9733    2.6681    3.8850 C.ar      1 RES1    0.0000
     25 C13        5.0478    1.7947    2.9419 C.ar      1 RES1    0.0000
     26 H8         5.7955    1.2455    2.8714 H         1 RES1    0.0000
     27 C14        3.9744    1.6732    2.0031 C.ar      1 RES1    0.0000
     28 H9         3.9884    1.0339    1.3265 H         1 RES1    0.0000
     29 C15       -2.7527    5.4817   -0.0318 C.3       1 RES1    0.0000
     30 H10       -3.3551    4.7389    0.1315 H         1 RES1    0.0000
     31 H11       -2.9508    5.8403   -0.9113 H         1 RES1    0.0000
     32 C16       -2.9850    6.5711    1.0282 C.3       1 RES1    0.0000
     33 H12       -3.9236    6.5546    1.2732 H         1 RES1    0.0000
     34 H13       -2.4782    6.3295    1.8191 H         1 RES1    0.0000
     35 C17       -2.6507    7.8887    0.6843 C.3       1 RES1    0.0000
     36 H14       -2.7074    8.4229    1.4924 H         1 RES1    0.0000
     37 H15       -3.3377    8.2143    0.0817 H         1 RES1    0.0000
     38 C18       -1.2967    8.1813    0.0361 C.3       1 RES1    0.0000
     39 H16       -1.4538    8.3103   -0.9121 H         1 RES1    0.0000
     40 H17       -0.9886    9.0321    0.3877 H         1 RES1    0.0000
     41 C19       -0.2053    7.2464    0.1651 C.3       1 RES1    0.0000
     42 H18       -0.1080    7.0063    1.1004 H         1 RES1    0.0000
     43 H19        0.6147    7.6831   -0.1135 H         1 RES1    0.0000
     44 C20       -0.3876    5.9319   -0.6766 C.3       1 RES1    0.0000
     45 H20       -0.7038    6.1555   -1.5655 H         1 RES1    0.0000
     46 H21        0.4668    5.4817   -0.7651 H         1 RES1    0.0000
@<TRIPOS>BOND
     1    1    3 2
     2    2    3 2
     3    3   24 1
     4    4    5 1
     5    6    4 2
     6    7    6 1
     7    8    7 1
     8    9    7 2
     9   10    9 1
    10   11   10 1
    11   12   10 2
    12   13   12 1
    13   14   12 1
    14   15   14 1
    15   16   14 2
    16   17   16 1
    17   18    4 1
    18   19    6 1
    19   20   19 ar
    20   21   20 1
    21   22   20 ar
    22   23   22 1
    23   24   22 ar
    24   25   24 ar
    25   26   25 1
    26   27   19 ar
    27   28   27 1
    28   29   17 1
    29   30   29 1
    30   31   29 1
    31   32   29 1
    32   33   32 1
    33   34   32 1
    34   35   32 1
    35   36   35 1
    36   37   35 1
    37   38   35 1
    38   39   38 1
    39   40   38 1
    40   41   38 1
    41   42   41 1
    42   43   41 1
    43   44   17 1
    44   45   44 1
    45   46   44 1
    46    9   18 1
    47   16   18 1
    48   25   27 ar
    49   41   44 1
@<TRIPOS>SUBSTRUCTURE
     1 RES1 1

