# MOL2 file generated by ConQuest
# Please check atom types

@<TRIPOS>MOLECULE
HILVEE
    54    57     1
SMALL
NO_CHARGES
****
Generated from CSD

@<TRIPOS>ATOM
      1 N1         2.4204    5.5480    1.6698 N.2       1 RES1    0.0000
      2 O1         2.5819    6.5671    0.6980 O.3       1 RES1    0.0000
      3 C1         3.7539    7.3270    0.9981 C.3       1 RES1    0.0000
      4 H1         4.5267    6.7432    1.0513 H         1 RES1    0.0000
      5 H2         3.6498    7.7780    1.8513 H         1 RES1    0.0000
      6 C2         3.9432    8.3367   -0.1027 C.3       1 RES1    0.0000
      7 H3         4.0329    7.8687   -0.9476 H         1 RES1    0.0000
      8 H4         3.1523    8.8959   -0.1576 H         1 RES1    0.0000
      9 C3         1.3004    4.9642    1.4960 C.2       1 RES1    0.0000
     10 H5         0.7510    5.3018    0.8259 H         1 RES1    0.0000
     11 C4         0.7957    3.8153    2.2475 C.ar      1 RES1    0.0000
     12 C5        -0.3067    3.1940    1.7107 C.ar      1 RES1    0.0000
     13 H6        -0.7084    3.5667    0.9596 H         1 RES1    0.0000
     14 C6        -0.8483    2.0206    2.2527 C.ar      1 RES1    0.0000
     15 H7        -1.5950    1.6239    1.8653 H         1 RES1    0.0000
     16 C7        -0.2717    1.4701    3.3483 C.ar      1 RES1    0.0000
     17 H8        -0.6044    0.6698    3.6847 H         1 RES1    0.0000
     18 C8         0.8248    2.0884    3.9883 C.ar      1 RES1    0.0000
     19 C9         1.3742    3.2923    3.4510 C.ar      1 RES1    0.0000
     20 C10        2.4320    3.9124    4.1521 C.ar      1 RES1    0.0000
     21 H9         2.7979    4.7004    3.8203 H         1 RES1    0.0000
     22 C11        2.9276    3.3801    5.3030 C.ar      1 RES1    0.0000
     23 H10        3.6232    3.8077    5.7474 H         1 RES1    0.0000
     24 C12        2.3934    2.1890    5.8206 C.ar      1 RES1    0.0000
     25 H11        2.7319    1.8334    6.6112 H         1 RES1    0.0000
     26 C13        1.3840    1.5561    5.1717 C.ar      1 RES1    0.0000
     27 H12        1.0537    0.7558    5.5120 H         1 RES1    0.0000
     28 N1B        6.6706   12.0017   -1.6698 N.2       1 RES1    0.0000
     29 O1B        6.5091   10.9826   -0.6980 O.3       1 RES1    0.0000
     30 C1B        5.3371   10.2227   -0.9981 C.3       1 RES1    0.0000
     31 H1B        4.5643   10.8065   -1.0513 H         1 RES1    0.0000
     32 H2B        5.4412    9.7717   -1.8513 H         1 RES1    0.0000
     33 C2B        5.1478    9.2130    0.1027 C.3       1 RES1    0.0000
     34 H3B        5.0581    9.6810    0.9476 H         1 RES1    0.0000
     35 H4B        5.9387    8.6538    0.1576 H         1 RES1    0.0000
     36 C3B        7.7906   12.5855   -1.4960 C.2       1 RES1    0.0000
     37 H5B        8.3400   12.2479   -0.8259 H         1 RES1    0.0000
     38 C4B        8.2953   13.7344   -2.2475 C.ar      1 RES1    0.0000
     39 C5B        9.3977   14.3557   -1.7107 C.ar      1 RES1    0.0000
     40 H6B        9.7994   13.9830   -0.9596 H         1 RES1    0.0000
     41 C6B        9.9393   15.5291   -2.2527 C.ar      1 RES1    0.0000
     42 H7B       10.6860   15.9258   -1.8653 H         1 RES1    0.0000
     43 C7B        9.3627   16.0796   -3.3483 C.ar      1 RES1    0.0000
     44 H8B        9.6954   16.8799   -3.6847 H         1 RES1    0.0000
     45 C8B        8.2662   15.4613   -3.9883 C.ar      1 RES1    0.0000
     46 C9B        7.7168   14.2574   -3.4510 C.ar      1 RES1    0.0000
     47 C10B       6.6590   13.6373   -4.1521 C.ar      1 RES1    0.0000
     48 H9B        6.2931   12.8493   -3.8203 H         1 RES1    0.0000
     49 C11B       6.1634   14.1696   -5.3030 C.ar      1 RES1    0.0000
     50 H10B       5.4678   13.7420   -5.7474 H         1 RES1    0.0000
     51 C12B       6.6976   15.3607   -5.8206 C.ar      1 RES1    0.0000
     52 H11B       6.3591   15.7163   -6.6112 H         1 RES1    0.0000
     53 C13B       7.7070   15.9936   -5.1717 C.ar      1 RES1    0.0000
     54 H12B       8.0373   16.7939   -5.5120 H         1 RES1    0.0000
@<TRIPOS>BOND
     1    1    2 1
     2    2    3 1
     3    3    4 1
     4    5    3 1
     5    6    3 1
     6    7    6 1
     7    8    6 1
     8    9    1 2
     9   10    9 1
    10   11    9 1
    11   12   11 ar
    12   13   12 1
    13   14   12 ar
    14   15   14 1
    15   16   14 ar
    16   17   16 1
    17   18   16 ar
    18   19   11 ar
    19   20   19 ar
    20   21   20 1
    21   22   20 ar
    22   23   22 1
    23   24   22 ar
    24   25   24 1
    25   26   18 ar
    26   27   26 1
    27   28   29 1
    28   29   30 1
    29   30   31 1
    30   32   30 1
    31   33    6 1
    32   34   33 1
    33   35   33 1
    34   36   28 2
    35   37   36 1
    36   38   36 1
    37   39   38 ar
    38   40   39 1
    39   41   39 ar
    40   42   41 1
    41   43   41 ar
    42   44   43 1
    43   45   43 ar
    44   46   38 ar
    45   47   46 ar
    46   48   47 1
    47   49   47 ar
    48   50   49 1
    49   51   49 ar
    50   52   51 1
    51   53   45 ar
    52   54   53 1
    53   18   19 ar
    54   24   26 ar
    55   30   33 1
    56   45   46 ar
    57   51   53 ar
@<TRIPOS>SUBSTRUCTURE
     1 RES1 1

@<TRIPOS>CRYSIN
   9.0910    5.8499   20.0190  90.0000  94.7790  90.0000  14 1

