# MOL2 file generated by ConQuest
# Please check atom types

@<TRIPOS>MOLECULE
HIMWIJ01
    20    21     1
SMALL
NO_CHARGES
****
Generated from CSD

@<TRIPOS>ATOM
      1 C1         3.5778    0.8469    7.1732 C.ar      1 RES1    0.0000
      2 C2         4.0668   -0.4485    6.9946 C.ar      1 RES1    0.0000
      3 C3         3.4987   -1.2874    6.0575 C.ar      1 RES1    0.0000
      4 C4         2.4518   -0.8716    5.3810 C.ar      1 RES1    0.0000
      5 C5         1.9716    0.4305    5.4608 C.ar      1 RES1    0.0000
      6 C6         2.5451    1.3074    6.4168 C.ar      1 RES1    0.0000
      7 C7         1.8403   -1.6723    4.3136 C.2       1 RES1    0.0000
      8 C8         0.7954   -1.6194    3.6307 C.2       1 RES1    0.0000
      9 C9         0.1163   -2.5473    2.6978 C.ar      1 RES1    0.0000
     10 C10        0.5164   -3.8513    2.4268 C.ar      1 RES1    0.0000
     11 C11       -0.1917   -4.6654    1.5632 C.ar      1 RES1    0.0000
     12 C12       -1.3166   -4.1426    0.9581 C.ar      1 RES1    0.0000
     13 C13       -1.7387   -2.8659    1.1934 C.ar      1 RES1    0.0000
     14 C14       -1.0381   -2.0693    2.0570 C.ar      1 RES1    0.0000
     15 N1        -2.0859   -4.9673    0.0336 N.pl3     1 RES1    0.0000
     16 O1        -1.7857   -6.1442   -0.0756 O.2       1 RES1    0.0000
     17 O2        -2.9927   -4.4492   -0.5841 O.2       1 RES1    0.0000
     18 O3         4.1177    1.6703    8.1124 O.3       1 RES1    0.0000
     19 O4         5.1196   -0.7819    7.7930 O.3       1 RES1    0.0000
     20 C15        5.3006   -2.1061    8.1670 C.3       1 RES1    0.0000
@<TRIPOS>BOND
     1    1    2 ar
     2    2    3 ar
     3    3    4 ar
     4    4    5 ar
     5    5    6 ar
     6    6    1 ar
     7    7    4 1
     8    8    7 2
     9    9    8 1
    10   10    9 ar
    11   11   10 ar
    12   12   11 ar
    13   13   12 ar
    14   14    9 ar
    15   15   12 1
    16   16   15 2
    17   17   15 2
    18   18    1 1
    19   19    2 1
    20   20   19 1
    21   13   14 ar
@<TRIPOS>SUBSTRUCTURE
     1 RES1 1

@<TRIPOS>CRYSIN
  18.7880    6.6945   21.0130  90.0000  90.7610  90.0000  15 1

