# MOL2 file generated by ConQuest
# Please check atom types

@<TRIPOS>MOLECULE
HINHAN
    40    43     1
SMALL
NO_CHARGES
****
Generated from CSD

@<TRIPOS>ATOM
      1 O1        -6.2711   -5.4838   -1.6467 O.3       1 RES1    0.0000
      2 O2       -11.6439   -6.6429   -4.8639 O.3       1 RES1    0.0000
      3 N1        -6.9757   -4.2711   -1.2208 N.3       1 RES1    0.0000
      4 N2        -8.5729   -1.4207   -2.9672 N.3       1 RES1    0.0000
      5 C1        -7.4457   -3.6537   -2.4797 C.3       1 RES1    0.0000
      6 C2        -5.9400   -3.4558   -0.5805 C.3       1 RES1    0.0000
      7 C3        -6.5449   -2.1887   -0.0131 C.3       1 RES1    0.0000
      8 C4        -7.4056   -1.5625   -1.0462 C.2       1 RES1    0.0000
      9 C5        -7.9386   -0.2215   -1.1628 C.ar      1 RES1    0.0000
     10 C6        -7.8495    0.9127   -0.3579 C.ar      1 RES1    0.0000
     11 C7        -8.5059    2.0587   -0.7788 C.ar      1 RES1    0.0000
     12 C8        -9.2162    2.0824   -1.9690 C.ar      1 RES1    0.0000
     13 C9        -9.3192    0.9777   -2.7902 C.ar      1 RES1    0.0000
     14 C10       -8.6604   -0.1713   -2.3587 C.ar      1 RES1    0.0000
     15 C11       -7.8364   -2.2389   -2.1492 C.2       1 RES1    0.0000
     16 C12       -8.5819   -4.4542   -3.0788 C.ar      1 RES1    0.0000
     17 C13       -8.4544   -5.0272   -4.3246 C.ar      1 RES1    0.0000
     18 C14       -9.5006   -5.7479   -4.8945 C.ar      1 RES1    0.0000
     19 C15      -10.6793   -5.9133   -4.2049 C.ar      1 RES1    0.0000
     20 C16      -10.8322   -5.3551   -2.9498 C.ar      1 RES1    0.0000
     21 C17       -9.7737   -4.6314   -2.3999 C.ar      1 RES1    0.0000
     22 C18      -12.9542   -6.5720   -4.3520 C.3       1 RES1    0.0000
     23 H1        -5.2412   -3.2313   -1.2115 H         1 RES1    0.0000
     24 H2        -5.5093   -3.9757    0.1228 H         1 RES1    0.0000
     25 H3        -5.8289   -1.5596    0.2675 H         1 RES1    0.0000
     26 H4        -7.0386   -2.3777    0.7931 H         1 RES1    0.0000
     27 H5        -8.9424   -1.6836   -3.8283 H         1 RES1    0.0000
     28 H6        -7.3141    0.8950    0.4645 H         1 RES1    0.0000
     29 H7        -8.5010    2.8415   -0.2120 H         1 RES1    0.0000
     30 H8        -9.6143    2.9389   -2.2446 H         1 RES1    0.0000
     31 H9        -9.8603    1.0072   -3.6288 H         1 RES1    0.0000
     32 H10       -6.6953   -3.6271   -3.1468 H         1 RES1    0.0000
     33 H11       -7.5936   -4.9150   -4.8140 H         1 RES1    0.0000
     34 H12       -9.4017   -6.1614   -5.7786 H         1 RES1    0.0000
     35 H13      -11.6692   -5.4791   -2.4491 H         1 RES1    0.0000
     36 H14       -9.8897   -4.2090   -1.5457 H         1 RES1    0.0000
     37 H15      -13.3285   -5.7095   -4.3215 H         1 RES1    0.0000
     38 H16      -12.9967   -6.9264   -3.4187 H         1 RES1    0.0000
     39 H17      -13.5868   -7.1509   -4.8352 H         1 RES1    0.0000
     40 H18       -6.8613   -6.3239   -1.2632 H         1 RES1    0.0000
@<TRIPOS>BOND
     1    1    3 1
     2    2   19 1
     3    3    5 1
     4    4   14 1
     5    5   15 1
     6    6    3 1
     7    7    6 1
     8    8    7 1
     9    9    8 1
    10   10    9 ar
    11   11   10 ar
    12   12   11 ar
    13   13   12 ar
    14   14    9 ar
    15   15    4 1
    16   16    5 1
    17   17   16 ar
    18   18   17 ar
    19   19   18 ar
    20   20   19 ar
    21   21   16 ar
    22   22    2 1
    23   23    6 1
    24   24    6 1
    25   25    7 1
    26   26    7 1
    27   27    4 1
    28   28   10 1
    29   29   11 1
    30   30   12 1
    31   31   13 1
    32   32    5 1
    33   33   17 1
    34   34   18 1
    35   35   20 1
    36   36   21 1
    37   37   22 1
    38   38   22 1
    39   39   22 1
    40   40    1 1
    41    8   15 2
    42   13   14 ar
    43   20   21 ar
@<TRIPOS>SUBSTRUCTURE
     1 RES1 1

@<TRIPOS>CRYSIN
   8.1740   29.5370    6.2350  90.0000  90.0000  90.0000  19 1

