# MOL2 file generated by ConQuest
# Please check atom types

@<TRIPOS>MOLECULE
HIPSII
    39    42     1
SMALL
NO_CHARGES
****
Generated from CSD

@<TRIPOS>ATOM
      1 O1         9.5577    0.2015    4.3458 O.3       1 RES1    0.0000
      2 O2         7.1259    0.7368    5.0877 O.2       1 RES1    0.0000
      3 O3         6.3261    0.5609    3.0996 O.2       1 RES1    0.0000
      4 N1        12.4527    1.2380    4.2402 N.pl3     1 RES1    0.0000
      5 N2         7.2474    0.5744    3.8970 N.pl3     1 RES1    0.0000
      6 C1        11.5230    2.2104    3.6914 C.3       1 RES1    0.0000
      7 H1        12.0847    2.9157    3.1913 H         1 RES1    0.0000
      8 H2        10.9345    2.6551    4.3875 H         1 RES1    0.0000
      9 C2        10.6687    1.3933    2.7286 C.3       1 RES1    0.0000
     10 H3        11.0912    1.3632    1.8700 H         1 RES1    0.0000
     11 C3         9.1603    1.7142    2.6314 C.3       1 RES1    0.0000
     12 H4         8.8905    2.5377    3.2524 H         1 RES1    0.0000
     13 C4         8.6118    0.4133    3.3219 C.3       1 RES1    0.0000
     14 C5         8.7913   -0.7836    2.4119 C.2       1 RES1    0.0000
     15 H5         8.1082   -1.1584    1.8617 H         1 RES1    0.0000
     16 C6        10.0905   -1.0359    2.4813 C.2       1 RES1    0.0000
     17 H6        10.6266   -1.6597    1.9603 H         1 RES1    0.0000
     18 C7        10.6730   -0.0058    3.4163 C.3       1 RES1    0.0000
     19 C8        11.9806   -0.1425    4.1304 C.3       1 RES1    0.0000
     20 H7        11.8429   -0.5686    5.0196 H         1 RES1    0.0000
     21 H8        12.6462   -0.7317    3.5664 H         1 RES1    0.0000
     22 C9         8.6356    1.9748    1.2282 C.3       1 RES1    0.0000
     23 H9         9.0766    2.7610    0.8280 H         1 RES1    0.0000
     24 H10        8.8898    1.2425    0.6182 H         1 RES1    0.0000
     25 H11        7.7279    2.0133    1.1517 H         1 RES1    0.0000
     26 C10       13.4771    1.5724    5.0974 C.ar      1 RES1    0.0000
     27 C11       13.7301    2.8945    5.4684 C.ar      1 RES1    0.0000
     28 H12       13.1629    3.5633    5.2099 H         1 RES1    0.0000
     29 C12       14.7793    3.2071    6.3117 C.ar      1 RES1    0.0000
     30 H13       14.9082    4.1094    6.6354 H         1 RES1    0.0000
     31 C13       15.6283    2.2521    6.8216 C.ar      1 RES1    0.0000
     32 C14       15.3780    0.9287    6.4589 C.ar      1 RES1    0.0000
     33 H14       15.9670    0.2696    6.8174 H         1 RES1    0.0000
     34 C15       14.3265    0.5930    5.6212 C.ar      1 RES1    0.0000
     35 H15       14.1809   -0.2792    5.2961 H         1 RES1    0.0000
     36 C16       16.7741    2.6070    7.7399 C.3       1 RES1    0.0000
     37 H16       17.0078    1.7303    8.3262 H         1 RES1    0.0000
     38 H17       16.4326    3.3964    8.3929 H         1 RES1    0.0000
     39 H18       17.6641    2.9311    7.2342 H         1 RES1    0.0000
@<TRIPOS>BOND
     1    1   13 1
     2    2    5 2
     3    3    5 2
     4    4    6 1
     5    5   13 1
     6    6    7 1
     7    8    6 1
     8    9    6 1
     9   10    9 1
    10   11    9 1
    11   12   11 1
    12   13   11 1
    13   14   13 1
    14   15   14 1
    15   16   14 2
    16   17   16 1
    17   18    1 1
    18   19    4 1
    19   20   19 1
    20   21   19 1
    21   22   11 1
    22   23   22 1
    23   24   22 1
    24   25   22 1
    25   26    4 1
    26   27   26 ar
    27   28   27 1
    28   29   27 ar
    29   30   29 1
    30   31   29 ar
    31   32   31 ar
    32   33   32 1
    33   34   26 ar
    34   35   34 1
    35   36   31 1
    36   37   36 1
    37   38   36 1
    38   39   36 1
    39    9   18 1
    40   16   18 1
    41   18   19 1
    42   32   34 ar
@<TRIPOS>SUBSTRUCTURE
     1 RES1 1

@<TRIPOS>CRYSIN
  15.6690    6.4180   15.0930  90.0000 113.0000  90.0000  14 1

