# MOL2 file generated by ConQuest
# Please check atom types

@<TRIPOS>MOLECULE
HIPXEL
    47    51     1
SMALL
NO_CHARGES
****
Generated from CSD

@<TRIPOS>ATOM
      1 O1         1.5941    4.3017    8.9267 O.3       1 RES1    0.0000
      2 N1         1.0404    3.4498    6.7170 N.3       1 RES1    0.0000
      3 C1         4.1094    5.6645    6.5699 C.ar      1 RES1    0.0000
      4 C2         2.6284    5.0035    8.3733 C.ar      1 RES1    0.0000
      5 C3         3.0532    4.8381    7.0686 C.ar      1 RES1    0.0000
      6 C4         4.7257    6.6144    7.4405 C.ar      1 RES1    0.0000
      7 C5         3.2359    5.9555    9.2283 C.ar      1 RES1    0.0000
      8 H1         2.9300    6.0581   10.1000 H         1 RES1    0.0000
      9 C6         2.3828    3.8004    6.1888 C.3       1 RES1    0.0000
     10 H2         2.2631    4.1932    5.2993 H         1 RES1    0.0000
     11 C7         4.2584    6.7140    8.7794 C.ar      1 RES1    0.0000
     12 H3         4.6672    7.3161    9.3592 H         1 RES1    0.0000
     13 C8         1.0978    3.1627    8.1239 C.3       1 RES1    0.0000
     14 H4         1.7124    2.4103    8.2533 H         1 RES1    0.0000
     15 C9         4.5661    5.6013    5.2273 C.ar      1 RES1    0.0000
     16 H5         4.1759    4.9956    4.6397 H         1 RES1    0.0000
     17 C10        5.5744    6.4193    4.7837 C.ar      1 RES1    0.0000
     18 H6         5.8519    6.3687    3.8976 H         1 RES1    0.0000
     19 C11        6.1871    7.3274    5.6514 C.ar      1 RES1    0.0000
     20 H7         6.8833    7.8631    5.3464 H         1 RES1    0.0000
     21 C12        5.7677    7.4283    6.9432 C.ar      1 RES1    0.0000
     22 H8         6.1738    8.0444    7.5086 H         1 RES1    0.0000
     23 C13        3.1738    2.5084    6.0275 C.ar      1 RES1    0.0000
     24 C14        3.3937    0.4032    4.9172 C.ar      1 RES1    0.0000
     25 C15        4.1768    2.1162    6.8972 C.ar      1 RES1    0.0000
     26 H9         4.4561    2.6972    7.5675 H         1 RES1    0.0000
     27 C16        2.7969    1.6385    5.0008 C.ar      1 RES1    0.0000
     28 H10        2.1505    1.8917    4.3819 H         1 RES1    0.0000
     29 C17        4.7718    0.8647    6.7822 C.ar      1 RES1    0.0000
     30 H11        5.4476    0.6179    7.3712 H         1 RES1    0.0000
     31 C18        4.3639   -0.0123    5.7993 C.ar      1 RES1    0.0000
     32 H12        4.7355   -0.8623    5.7339 H         1 RES1    0.0000
     33 N2         2.9920   -0.5010    3.8243 N.pl3     1 RES1    0.0000
     34 O2         2.1611   -0.0963    3.0139 O.2       1 RES1    0.0000
     35 O3         3.5073   -1.6011    3.7589 O.2       1 RES1    0.0000
     36 C19        0.0000    4.4138    6.3320 C.3       1 RES1    0.0000
     37 H13       -0.0213    4.5022    5.3674 H         1 RES1    0.0000
     38 H14        0.2048    5.2825    6.7115 H         1 RES1    0.0000
     39 C20       -0.2350    2.7792    8.7114 C.3       1 RES1    0.0000
     40 H15       -0.1578    2.7351    9.6773 H         1 RES1    0.0000
     41 H16       -0.4833    1.8980    8.3920 H         1 RES1    0.0000
     42 C21       -1.3213    3.7711    8.3410 C.3       1 RES1    0.0000
     43 H17       -1.1466    4.6236    8.7677 H         1 RES1    0.0000
     44 H18       -2.1815    3.4476    8.6512 H         1 RES1    0.0000
     45 C22       -1.3524    3.9489    6.8306 C.3       1 RES1    0.0000
     46 H19       -1.5829    3.1071    6.4079 H         1 RES1    0.0000
     47 H20       -2.0290    4.6015    6.5924 H         1 RES1    0.0000
@<TRIPOS>BOND
     1    1    4 1
     2    2    9 1
     3    3    5 ar
     4    4    5 ar
     5    5    9 1
     6    6    3 ar
     7    7    4 ar
     8    8    7 1
     9    9   10 1
    10   11    6 ar
    11   12   11 1
    12   13    1 1
    13   14   13 1
    14   15    3 ar
    15   16   15 1
    16   17   15 ar
    17   18   17 1
    18   19   17 ar
    19   20   19 1
    20   21    6 ar
    21   22   21 1
    22   23    9 1
    23   24   27 ar
    24   25   23 ar
    25   26   25 1
    26   27   23 ar
    27   28   27 1
    28   29   25 ar
    29   30   29 1
    30   31   24 ar
    31   32   31 1
    32   33   24 1
    33   34   33 2
    34   35   33 2
    35   36    2 1
    36   37   36 1
    37   38   36 1
    38   39   13 1
    39   40   39 1
    40   41   39 1
    41   42   39 1
    42   43   42 1
    43   44   42 1
    44   45   36 1
    45   46   45 1
    46   47   45 1
    47    2   13 1
    48    7   11 ar
    49   19   21 ar
    50   29   31 ar
    51   42   45 1
@<TRIPOS>SUBSTRUCTURE
     1 RES1 1

@<TRIPOS>CRYSIN
   8.8679   15.7640   13.0880  90.0000  90.0000  90.0000  29 1

