# MOL2 file generated by ConQuest
# Please check atom types

@<TRIPOS>MOLECULE
HIQTAC
    51    54     1
SMALL
NO_CHARGES
****
Generated from CSD

@<TRIPOS>ATOM
      1 O1         8.0624    4.8063    5.0726 O.3       1 RES1    0.0000
      2 O2         9.0624    8.0104    8.8336 O.3       1 RES1    0.0000
      3 O3         9.7531    6.8167    7.1201 O.2       1 RES1    0.0000
      4 N1         7.1889    6.6697    6.0567 N.3       1 RES1    0.0000
      5 N2         8.0588    5.8760    4.1220 N.2       1 RES1    0.0000
      6 C1         7.4089    5.2308    6.2833 C.3       1 RES1    0.0000
      7 H1         8.0148    5.1081    7.0436 H         1 RES1    0.0000
      8 C2         6.1574    4.4533    6.5109 C.ar      1 RES1    0.0000
      9 C3         6.0048    3.7268    7.6760 C.ar      1 RES1    0.0000
     10 H2         6.6841    3.7262    8.3122 H         1 RES1    0.0000
     11 C4         4.8414    2.9937    7.9064 C.ar      1 RES1    0.0000
     12 H3         4.7387    2.5170    8.6984 H         1 RES1    0.0000
     13 C5         3.8482    2.9801    6.9587 C.ar      1 RES1    0.0000
     14 H4         3.0794    2.4761    7.1005 H         1 RES1    0.0000
     15 C6         3.9861    3.7066    5.8002 C.ar      1 RES1    0.0000
     16 H5         3.3068    3.7066    5.1649 H         1 RES1    0.0000
     17 C7         5.1363    4.4353    5.5875 C.ar      1 RES1    0.0000
     18 H6         5.2243    4.9264    4.8021 H         1 RES1    0.0000
     19 C8         7.5966    6.8997    4.7489 C.2       1 RES1    0.0000
     20 C9         7.3912    8.1843    4.0633 C.ar      1 RES1    0.0000
     21 C10        6.2660    8.9428    4.3394 C.ar      1 RES1    0.0000
     22 H7         5.6615    8.6557    4.9849 H         1 RES1    0.0000
     23 C11        6.0401   10.1238    3.6622 C.ar      1 RES1    0.0000
     24 H8         5.2874   10.6323    3.8599 H         1 RES1    0.0000
     25 C12        6.9218   10.5506    2.6986 C.ar      1 RES1    0.0000
     26 H9         6.7633   11.3467    2.2434 H         1 RES1    0.0000
     27 C13        8.0236    9.8090    2.4094 C.ar      1 RES1    0.0000
     28 H10        8.6104   10.0966    1.7481 H         1 RES1    0.0000
     29 C14        8.2862    8.6148    3.0969 C.ar      1 RES1    0.0000
     30 H11        9.0491    8.1199    2.9066 H         1 RES1    0.0000
     31 C15        7.4857    7.6078    7.1285 C.3       1 RES1    0.0000
     32 H12        7.4807    8.4983    6.7199 H         1 RES1    0.0000
     33 C16        6.3863    7.6227    8.1984 C.3       1 RES1    0.0000
     34 H13        6.1970    6.7139    8.4782 H         1 RES1    0.0000
     35 H14        6.6988    8.1154    8.9735 H         1 RES1    0.0000
     36 C17        5.1205    8.2571    7.6816 C.ar      1 RES1    0.0000
     37 C18        5.0263    9.6492    7.5706 C.ar      1 RES1    0.0000
     38 H15        5.7217   10.1843    7.8803 H         1 RES1    0.0000
     39 C19        3.9216   10.2297    7.0081 C.ar      1 RES1    0.0000
     40 H16        3.8775   11.1560    6.9316 H         1 RES1    0.0000
     41 C20        2.8726    9.4609    6.5567 C.ar      1 RES1    0.0000
     42 H17        2.1317    9.8589    6.1602 H         1 RES1    0.0000
     43 C21        2.9415    8.1199    6.6975 C.ar      1 RES1    0.0000
     44 H18        2.2285    7.5947    6.4158 H         1 RES1    0.0000
     45 C22        4.0492    7.5176    7.2516 C.ar      1 RES1    0.0000
     46 H19        4.0697    6.5913    7.3355 H         1 RES1    0.0000
     47 C23        8.8818    7.4043    7.6732 C.2       1 RES1    0.0000
     48 C24       10.3768    7.9126    9.4381 C.3       1 RES1    0.0000
     49 H20       10.3827    8.3893   10.2711 H         1 RES1    0.0000
     50 H21       11.0297    8.2925    8.8467 H         1 RES1    0.0000
     51 H22       10.5881    6.9893    9.5976 H         1 RES1    0.0000
@<TRIPOS>BOND
     1    1    5 1
     2    2   47 1
     3    3   47 2
     4    4    6 1
     5    5   19 2
     6    6    1 1
     7    7    6 1
     8    8    6 1
     9    9    8 ar
    10   10    9 1
    11   11    9 ar
    12   12   11 1
    13   13   11 ar
    14   14   13 1
    15   15   13 ar
    16   16   15 1
    17   17    8 ar
    18   18   17 1
    19   19    4 1
    20   20   19 1
    21   21   20 ar
    22   22   21 1
    23   23   21 ar
    24   24   23 1
    25   25   23 ar
    26   26   25 1
    27   27   25 ar
    28   28   27 1
    29   29   20 ar
    30   30   29 1
    31   31    4 1
    32   32   31 1
    33   33   31 1
    34   34   33 1
    35   35   33 1
    36   36   33 1
    37   37   36 ar
    38   38   37 1
    39   39   37 ar
    40   40   39 1
    41   41   39 ar
    42   42   41 1
    43   43   41 ar
    44   44   43 1
    45   45   36 ar
    46   46   45 1
    47   47   31 1
    48   48    2 1
    49   49   48 1
    50   50   48 1
    51   51   48 1
    52   15   17 ar
    53   27   29 ar
    54   43   45 ar
@<TRIPOS>SUBSTRUCTURE
     1 RES1 1

@<TRIPOS>CRYSIN
  14.6710   15.1350    9.3280  90.0000  90.0000  90.0000  19 1

