# MOL2 file generated by ConQuest
# Please check atom types

@<TRIPOS>MOLECULE
HIQWOT
    56    60     1
SMALL
NO_CHARGES
****
Generated from CSD

@<TRIPOS>ATOM
      1 O1         5.3153    7.8210    2.7953 O.3       1 RES1    0.0000
      2 O2         4.9276    5.4677    0.4584 O.2       1 RES1    0.0000
      3 N1         6.1512    6.7539    3.2751 N.3       1 RES1    0.0000
      4 C1         6.6051    6.1241    2.0261 C.3       1 RES1    0.0000
      5 H1         7.4098    5.5878    2.1814 H         1 RES1    0.0000
      6 C2         6.9051    7.2846    1.0916 C.3       1 RES1    0.0000
      7 H2         6.7175    7.0464    0.1603 H         1 RES1    0.0000
      8 C3         5.9519    8.3621    1.5876 C.3       1 RES1    0.0000
      9 H3         5.2787    8.5689    0.9065 H         1 RES1    0.0000
     10 C4         6.8238    9.5444    1.8411 C.2       1 RES1    0.0000
     11 H4         6.5122   10.3752    2.1206 H         1 RES1    0.0000
     12 C5         8.1007    9.2624    1.6187 C.2       1 RES1    0.0000
     13 H5         8.7897    9.8817    1.7005 H         1 RES1    0.0000
     14 C6         8.2982    7.8857    1.2363 C.2       1 RES1    0.0000
     15 C7         9.4104    7.1798    1.0470 C.2       1 RES1    0.0000
     16 H6         9.2698    6.2937    0.8014 H         1 RES1    0.0000
     17 C8        10.8218    7.5675    1.1609 C.ar      1 RES1    0.0000
     18 C9        11.7784    6.8206    0.4851 C.ar      1 RES1    0.0000
     19 H7        11.5129    6.0851   -0.0184 H         1 RES1    0.0000
     20 C10       13.1224    7.1550    0.5490 C.ar      1 RES1    0.0000
     21 H8        13.7356    6.6367    0.0811 H         1 RES1    0.0000
     22 C11       13.5722    8.2097    1.2676 C.ar      1 RES1    0.0000
     23 C12       12.6296    8.9385    1.9677 C.ar      1 RES1    0.0000
     24 H9        12.9072    9.6645    2.4799 H         1 RES1    0.0000
     25 C13       11.2931    8.6203    1.9283 C.ar      1 RES1    0.0000
     26 H10       10.6921    9.1224    2.4283 H         1 RES1    0.0000
     27 C14       15.0469    8.5431    1.3155 C.3       1 RES1    0.0000
     28 H11       15.1834    9.3110    1.8737 H         1 RES1    0.0000
     29 H12       15.3596    8.7327    0.4274 H         1 RES1    0.0000
     30 H13       15.5327    7.7962    1.6729 H         1 RES1    0.0000
     31 C15        5.4562    5.2419    1.5310 C.2       1 RES1    0.0000
     32 C16        4.9891    4.1396    2.4025 C.ar      1 RES1    0.0000
     33 C17        5.7323    3.6204    3.4582 C.ar      1 RES1    0.0000
     34 H14        6.5763    3.9672    3.6406 H         1 RES1    0.0000
     35 C18        5.2325    2.6038    4.2283 C.ar      1 RES1    0.0000
     36 H15        5.7566    2.2542    4.9137 H         1 RES1    0.0000
     37 C19        3.9704    2.0846    4.0146 C.ar      1 RES1    0.0000
     38 C20        3.2419    2.6029    2.9681 C.ar      1 RES1    0.0000
     39 H16        2.3922    2.2656    2.7986 H         1 RES1    0.0000
     40 C21        3.7332    3.6032    2.1667 C.ar      1 RES1    0.0000
     41 H17        3.2204    3.9224    1.4610 H         1 RES1    0.0000
     42 C22        3.4031    1.0147    4.9045 C.3       1 RES1    0.0000
     43 H18        2.5182    0.7889    4.6079 H         1 RES1    0.0000
     44 H19        3.3656    1.3376    5.8073 H         1 RES1    0.0000
     45 H20        3.9626    0.2363    4.8639 H         1 RES1    0.0000
     46 C23        7.1025    7.2169    4.2384 C.ar      1 RES1    0.0000
     47 C24        8.3183    6.5881    4.4150 C.ar      1 RES1    0.0000
     48 H21        8.5674    5.8879    3.8562 H         1 RES1    0.0000
     49 C25        9.1682    7.0073    5.4277 C.ar      1 RES1    0.0000
     50 H22        9.9964    6.5967    5.5254 H         1 RES1    0.0000
     51 C26        8.8164    8.0077    6.2863 C.ar      1 RES1    0.0000
     52 H23        9.3874    8.2678    6.9735 H         1 RES1    0.0000
     53 C27        7.6054    8.6184    6.1149 C.ar      1 RES1    0.0000
     54 H24        7.3554    9.3063    6.6898 H         1 RES1    0.0000
     55 C28        6.7428    8.2316    5.1016 C.ar      1 RES1    0.0000
     56 H25        5.9211    8.6565    5.0021 H         1 RES1    0.0000
@<TRIPOS>BOND
     1    1    3 1
     2    2   31 2
     3    3    4 1
     4    4    5 1
     5    6    4 1
     6    7    6 1
     7    8    1 1
     8    9    8 1
     9   10    8 1
    10   11   10 1
    11   12   10 2
    12   13   12 1
    13   14    6 1
    14   15   14 2
    15   16   15 1
    16   17   15 1
    17   18   17 ar
    18   19   18 1
    19   20   18 ar
    20   21   20 1
    21   22   20 ar
    22   23   22 ar
    23   24   23 1
    24   25   17 ar
    25   26   25 1
    26   27   22 1
    27   28   27 1
    28   29   27 1
    29   30   27 1
    30   31    4 1
    31   32   31 1
    32   33   32 ar
    33   34   33 1
    34   35   33 ar
    35   36   35 1
    36   37   35 ar
    37   38   37 ar
    38   39   38 1
    39   40   32 ar
    40   41   40 1
    41   42   37 1
    42   43   42 1
    43   44   42 1
    44   45   42 1
    45   46    3 1
    46   47   46 ar
    47   48   47 1
    48   49   47 ar
    49   50   49 1
    50   51   49 ar
    51   52   51 1
    52   53   51 ar
    53   54   53 1
    54   55   46 ar
    55   56   55 1
    56    6    8 1
    57   12   14 1
    58   23   25 ar
    59   38   40 ar
    60   53   55 ar
@<TRIPOS>SUBSTRUCTURE
     1 RES1 1

@<TRIPOS>CRYSIN
  12.7246    9.5273   18.4510  90.0000  93.0980  90.0000 231 1

