# MOL2 file generated by ConQuest
# Please check atom types

@<TRIPOS>MOLECULE
HIRPIH
    41    42     1
SMALL
NO_CHARGES
****
Generated from CSD

@<TRIPOS>ATOM
      1 O1         0.7331    4.1501    6.3249 O.2       1 RES1    0.0000
      2 N1         0.8530    3.6444    5.1572 N.3       1 RES1    0.0000
      3 N2         1.5147    1.7429    1.4584 N.2       1 RES1    0.0000
      4 N3         3.0192   -0.4755   -2.8158 N.ar      1 RES1    0.0000
      5 C1         1.6928    4.4098    4.1831 C.3       1 RES1    0.0000
      6 C2         2.1071    3.4839    3.0365 C.3       1 RES1    0.0000
      7 C3         0.9600    2.6709    2.4547 C.3       1 RES1    0.0000
      8 C4         0.3464    1.8449    3.5604 C.3       1 RES1    0.0000
      9 C5        -0.1908    2.6619    4.7422 C.3       1 RES1    0.0000
     10 C6         1.2710    1.9440    0.2537 C.2       1 RES1    0.0000
     11 C7         1.8423    1.0732   -0.8035 C.ar      1 RES1    0.0000
     12 C8         1.8960    1.5123   -2.1096 C.ar      1 RES1    0.0000
     13 C9         2.4950    0.7148   -3.0663 C.ar      1 RES1    0.0000
     14 C10        2.9474   -0.9013   -1.5574 C.ar      1 RES1    0.0000
     15 C11        2.3736   -0.1721   -0.5287 C.ar      1 RES1    0.0000
     16 C12        2.9440    4.8881    4.9051 C.3       1 RES1    0.0000
     17 C13        0.9044    5.6289    3.6906 C.3       1 RES1    0.0000
     18 C14       -1.4903    3.3942    4.3946 C.3       1 RES1    0.0000
     19 C15       -0.4459    1.7179    5.9178 C.3       1 RES1    0.0000
     20 H1         0.2894    3.2797    2.0208 H         1 RES1    0.0000
     21 H2         0.6882    2.6931   -0.0470 H         1 RES1    0.0000
     22 H3         1.5092    2.3665   -2.3231 H         1 RES1    0.0000
     23 H4         2.5228    1.0079   -4.0177 H         1 RES1    0.0000
     24 H5         3.3383   -1.7941   -1.3693 H         1 RES1    0.0000
     25 H6         2.3918   -0.5140    0.3317 H         1 RES1    0.0000
     26 H7         3.3993    4.1324    5.2893 H         1 RES1    0.0000
     27 H8         3.5348    5.3378    4.2665 H         1 RES1    0.0000
     28 H9         2.6854    5.5293    5.6026 H         1 RES1    0.0000
     29 H10        0.1305    5.3983    3.0870 H         1 RES1    0.0000
     30 H11        0.5680    6.1200    4.4416 H         1 RES1    0.0000
     31 H12        1.4874    6.2248    3.2068 H         1 RES1    0.0000
     32 H13        2.8129    2.8382    3.3809 H         1 RES1    0.0000
     33 H14        2.5411    4.0417    2.3258 H         1 RES1    0.0000
     34 H15       -0.3839    1.2861    3.2132 H         1 RES1    0.0000
     35 H16        1.0786    1.2175    3.9025 H         1 RES1    0.0000
     36 H17       -2.1846    2.7879    4.2444 H         1 RES1    0.0000
     37 H18       -1.7380    3.9933    5.1244 H         1 RES1    0.0000
     38 H19       -1.4229    3.9772    3.5569 H         1 RES1    0.0000
     39 H20        0.3950    1.2780    6.2200 H         1 RES1    0.0000
     40 H21       -1.0918    1.0079    5.6303 H         1 RES1    0.0000
     41 H22       -0.7754    2.2194    6.6900 H         1 RES1    0.0000
@<TRIPOS>BOND
     1    1    2 1
     2    2    5 1
     3    3    7 1
     4    4   13 ar
     5    5    6 1
     6    6    7 1
     7    7    8 1
     8    8    9 1
     9    9    2 1
    10   10    3 2
    11   11   10 1
    12   12   11 ar
    13   13   12 ar
    14   14    4 ar
    15   15   11 ar
    16   16    5 1
    17   17    5 1
    18   18    9 1
    19   19    9 1
    20   20    7 1
    21   21   10 1
    22   22   12 1
    23   23   13 1
    24   24   14 1
    25   25   15 1
    26   26   16 1
    27   27   16 1
    28   28   16 1
    29   29   17 1
    30   30   17 1
    31   31   17 1
    32   32    6 1
    33   33    6 1
    34   34    8 1
    35   35    8 1
    36   36   18 1
    37   37   18 1
    38   38   18 1
    39   39   19 1
    40   40   19 1
    41   41   19 1
    42   14   15 ar
@<TRIPOS>SUBSTRUCTURE
     1 RES1 1

@<TRIPOS>CRYSIN
   7.9770   20.1580   11.3830  90.0000 125.9500  90.0000  14 1

