# MOL2 file generated by ConQuest
# Please check atom types

@<TRIPOS>MOLECULE
HIRZUE
    22    22     1
SMALL
NO_CHARGES
****
Generated from CSD

@<TRIPOS>ATOM
      1 O1         0.3856    5.3620    6.7224 O.3       1 RES1    0.0000
      2 N1         4.2280    5.5790   11.8859 N.pl3     1 RES1    0.0000
      3 H1         4.7637    5.4321   12.5421 H         1 RES1    0.0000
      4 H2         3.7814    6.3129   11.8507 H         1 RES1    0.0000
      5 C1        -0.5567    6.4328    6.7256 C.3       1 RES1    0.0000
      6 H3        -1.1179    6.3677    5.9499 H         1 RES1    0.0000
      7 H4        -0.0877    7.2708    6.7128 H         1 RES1    0.0000
      8 H5        -1.0979    6.3810    7.5174 H         1 RES1    0.0000
      9 O2         5.6573    3.4812   11.9894 O.3       1 RES1    0.0000
     10 H6         6.0522    2.7626   11.9872 H         1 RES1    0.0000
     11 N2         4.7351    3.5218   10.8946 N.2       1 RES1    0.0000
     12 C2         1.2563    5.2716    7.7681 C.ar      1 RES1    0.0000
     13 C3         1.1795    6.0151    8.9365 C.ar      1 RES1    0.0000
     14 H7         0.5055    6.6467    9.0443 H         1 RES1    0.0000
     15 C4         2.1103    5.8133    9.9396 C.ar      1 RES1    0.0000
     16 H8         2.0585    6.3301   10.7121 H         1 RES1    0.0000
     17 C5         3.1064    4.8726    9.8329 C.ar      1 RES1    0.0000
     18 C6         3.1708    4.1495    8.6474 C.ar      1 RES1    0.0000
     19 H9         3.8551    3.5305    8.5300 H         1 RES1    0.0000
     20 C7         2.2500    4.3258    7.6475 C.ar      1 RES1    0.0000
     21 H10        2.2980    3.8024    6.8803 H         1 RES1    0.0000
     22 C8         4.0887    4.6516   10.9021 C.2       1 RES1    0.0000
@<TRIPOS>BOND
     1    1    5 1
     2    2    3 1
     3    4    2 1
     4    5    6 1
     5    7    5 1
     6    8    5 1
     7    9   10 1
     8   11    9 1
     9   12    1 1
    10   13   12 ar
    11   14   13 1
    12   15   13 ar
    13   16   15 1
    14   17   15 ar
    15   18   17 ar
    16   19   18 1
    17   20   12 ar
    18   21   20 1
    19   22    2 1
    20   11   22 2
    21   17   22 1
    22   18   20 ar
@<TRIPOS>SUBSTRUCTURE
     1 RES1 1

@<TRIPOS>CRYSIN
  14.9240    5.0820   10.7840  90.0000  98.3200  90.0000  14 1

