# MOL2 file generated by ConQuest
# Please check atom types

@<TRIPOS>MOLECULE
HISQIJ
    30    31     2
SMALL
NO_CHARGES
****
Generated from CSD

@<TRIPOS>ATOM
      1 O1         9.3712    3.4434   14.4513 O.2       1 RES1    0.0000
      2 O2         8.5866    3.4024   14.4847 Du        2 SUP2    0.0000
      3 O3         9.0036    3.0365   12.4334 O.2       1 RES1    0.0000
      4 O4         6.7226    1.1428   11.1175 O.2       1 RES1    0.0000
      5 O5        11.4140    1.1771   11.0547 O.2       1 RES1    0.0000
      6 N1         9.0051    2.6581   13.5649 N.pl3     1 RES1    0.0000
      7 C1         9.0879    0.2788   12.8334 C.ar      1 RES1    0.0000
      8 C2         9.0487    1.2181   13.8630 C.ar      1 RES1    0.0000
      9 C3         9.0065    0.8732   15.1985 C.ar      1 RES1    0.0000
     10 C4         9.0283   -0.4538   15.5633 C.ar      1 RES1    0.0000
     11 C5         9.1068   -1.4031   14.5867 C.ar      1 RES1    0.0000
     12 C6         9.1300   -1.0490   13.2512 C.ar      1 RES1    0.0000
     13 C7         9.0763    0.5509   11.3489 C.3       1 RES1    0.0000
     14 C8         7.8675    1.2809   10.7625 C.2       1 RES1    0.0000
     15 C9         8.3527    2.1273    9.6467 C.ar      1 RES1    0.0000
     16 C10        7.6292    2.8975    8.7544 C.ar      1 RES1    0.0000
     17 C11        8.3251    3.5991    7.7915 C.ar      1 RES1    0.0000
     18 C12        9.7243    3.5573    7.7405 C.ar      1 RES1    0.0000
     19 C13       10.4464    2.8130    8.6445 C.ar      1 RES1    0.0000
     20 C14        9.7388    2.1056    9.6035 C.ar      1 RES1    0.0000
     21 C15       10.2647    1.2834   10.7135 C.2       1 RES1    0.0000
     22 H1         9.0312    1.5639   15.8104 H         1 RES1    0.0000
     23 H2         9.0065   -0.7619   16.5183 H         1 RES1    0.0000
     24 H3         9.1838   -2.2780   14.8083 H         1 RES1    0.0000
     25 H4         9.1969   -1.7204   12.5785 H         1 RES1    0.0000
     26 H5         9.0806   -0.3265   10.9174 H         1 RES1    0.0000
     27 H6         6.6732    2.9469    8.7798 H         1 RES1    0.0000
     28 H7         7.8297    4.0931    7.0913 H         1 RES1    0.0000
     29 H8        10.1645    4.0680    6.9894 H         1 RES1    0.0000
     30 H9        11.3588    2.8599    8.6269 H         1 RES1    0.0000
@<TRIPOS>BOND
     1    1    6 2
     2    3    6 2
     3    4   14 2
     4    5   21 2
     5    6    8 1
     6    7    8 ar
     7    8    9 ar
     8    9   10 ar
     9   10   11 ar
    10   11   12 ar
    11   12    7 ar
    12   13    7 1
    13   14   13 1
    14   15   14 1
    15   16   15 ar
    16   17   16 ar
    17   18   17 ar
    18   19   18 ar
    19   20   15 ar
    20   21   13 1
    21   22    9 1
    22   23   10 1
    23   24   11 1
    24   25   12 1
    25   26   13 1
    26   27   16 1
    27   28   17 1
    28   29   18 1
    29   30   19 1
    30   19   20 ar
    31   20   21 1
@<TRIPOS>SUBSTRUCTURE
     1 RES1 1
     2 SUP2 2

@<TRIPOS>CRYSIN
  14.5290    8.3720   19.6110  90.0000  90.0000  90.0000  60 1

