# MOL2 file generated by ConQuest
# Please check atom types

@<TRIPOS>MOLECULE
HITNED01
    38    38     1
SMALL
NO_CHARGES
****
Generated from CSD

@<TRIPOS>ATOM
      1 O1        -6.1950    2.4962    3.2657 O.2       1 RES1    0.0000
      2 O2        -7.1472    3.4910    1.6370 O.2       1 RES1    0.0000
      3 O3        -0.9636    0.3968    0.9547 O.2       1 RES1    0.0000
      4 O4        -2.1062    0.3487    2.7652 O.2       1 RES1    0.0000
      5 N1        -6.2227    2.8668    2.1147 N.pl3     1 RES1    0.0000
      6 N2        -1.9695    0.7000    1.6149 N.pl3     1 RES1    0.0000
      7 N3        -1.9159    1.5593   -1.1724 N.3       1 RES1    0.0000
      8 N4        -1.9286    1.9499   -2.4949 N.2       1 RES1    0.0000
      9 C1        -5.1028    2.5240    1.2575 C.ar      1 RES1    0.0000
     10 C2        -5.0933    2.9072   -0.0664 C.ar      1 RES1    0.0000
     11 C3        -4.0446    2.5867   -0.8586 C.ar      1 RES1    0.0000
     12 C4        -2.9392    1.8671   -0.3698 C.ar      1 RES1    0.0000
     13 C5        -3.0012    1.4772    0.9906 C.ar      1 RES1    0.0000
     14 C6        -4.0760    1.8115    1.7863 C.ar      1 RES1    0.0000
     15 C7        -0.9916    1.4852   -3.1931 C.2       1 RES1    0.0000
     16 C8        -0.8264    1.7581   -4.6469 C.3       1 RES1    0.0000
     17 C9        -1.8065    2.8068   -5.1259 C.3       1 RES1    0.0000
     18 C10       -1.0549    0.4355   -5.3734 C.3       1 RES1    0.0000
     19 C11        0.5988    2.1999   -4.8190 C.2       1 RES1    0.0000
     20 C12        0.9859    3.3018   -5.1743 C.2       1 RES1    0.0000
     21 C13        1.4254    4.4925   -5.6935 C.2       1 RES1    0.0000
     22 C14        1.7433    5.5497   -5.2524 C.3       1 RES1    0.0000
     23 H1        -1.2485    1.1170   -0.8641 H         1 RES1    0.0000
     24 H2        -5.8076    3.3877   -0.4155 H         1 RES1    0.0000
     25 H3        -4.0542    2.8504   -1.7504 H         1 RES1    0.0000
     26 H4        -4.0966    1.5511    2.6788 H         1 RES1    0.0000
     27 H5        -1.5891    3.0737   -6.0059 H         1 RES1    0.0000
     28 H6        -1.7696    3.5581   -4.5570 H         1 RES1    0.0000
     29 H7        -2.6821    2.4541   -5.1176 H         1 RES1    0.0000
     30 H8        -0.9676    0.5514   -6.3032 H         1 RES1    0.0000
     31 H9        -1.9167    0.1167   -5.1881 H         1 RES1    0.0000
     32 H10       -0.4247   -0.1920   -5.0831 H         1 RES1    0.0000
     33 H11        1.2542    1.5829   -4.6538 H         1 RES1    0.0000
     34 H12        1.5705    4.4275   -6.5839 H         1 RES1    0.0000
     35 H13        2.0489    5.4848   -4.4754 H         1 RES1    0.0000
     36 H14        1.0723    6.1841   -5.2068 H         1 RES1    0.0000
     37 H15        2.3494    5.8062   -5.7757 H         1 RES1    0.0000
     38 H16       -0.2943    1.1822   -2.6912 H         1 RES1    0.0000
@<TRIPOS>BOND
     1    1    5 2
     2    2    5 2
     3    3    6 2
     4    4    6 2
     5    5    9 1
     6    6   13 1
     7    7    8 1
     8    8   15 2
     9    9   10 ar
    10   10   11 ar
    11   11   12 ar
    12   12    7 1
    13   13   12 ar
    14   14    9 ar
    15   15   16 1
    16   16   17 1
    17   17   27 1
    18   18   16 1
    19   19   16 1
    20   20   19 2
    21   21   20 2
    22   22   21 1
    23   23    7 1
    24   24   10 1
    25   25   11 1
    26   26   14 1
    27   28   17 1
    28   29   17 1
    29   30   18 1
    30   31   18 1
    31   32   18 1
    32   33   19 1
    33   34   21 1
    34   35   22 1
    35   36   22 1
    36   37   22 1
    37   38   15 1
    38   13   14 ar
@<TRIPOS>SUBSTRUCTURE
     1 RES1 1

@<TRIPOS>CRYSIN
   6.5910    8.5410   14.0620  98.2400  95.4200  97.0800   2 1

