# MOL2 file generated by ConQuest
# Please check atom types

@<TRIPOS>MOLECULE
HIVBIY
    23    23     1
SMALL
NO_CHARGES
****
Generated from CSD

@<TRIPOS>ATOM
      1 N1         5.6919    0.9283    1.3622 N.am      1 RES1    0.0000
      2 O1         6.1565   -0.3836    1.3788 O.3       1 RES1    0.0000
      3 H1         6.8153   -0.4466    0.8944 H         1 RES1    0.0000
      4 O2         7.3018    1.4643   -0.0618 O.2       1 RES1    0.0000
      5 C1         6.0979    1.3126    4.1900 C.3       1 RES1    0.0000
      6 H2         6.0233    1.4335    5.1402 H         1 RES1    0.0000
      7 H3         6.6018    2.0383    3.8149 H         1 RES1    0.0000
      8 H4         6.5452    0.4831    4.0071 H         1 RES1    0.0000
      9 C2         4.7301    1.2875    3.5820 C.ar      1 RES1    0.0000
     10 C3         3.5878    1.4493    4.3496 C.ar      1 RES1    0.0000
     11 H5         3.6760    1.5745    5.2673 H         1 RES1    0.0000
     12 C4         2.3302    1.4307    3.8025 C.ar      1 RES1    0.0000
     13 H6         1.5846    1.5388    4.3481 H         1 RES1    0.0000
     14 C5         2.1703    1.2525    2.4445 C.ar      1 RES1    0.0000
     15 H7         1.3186    1.2317    2.0725 H         1 RES1    0.0000
     16 C6         3.2797    1.1058    1.6462 C.ar      1 RES1    0.0000
     17 H8         3.1791    0.9963    0.7286 H         1 RES1    0.0000
     18 C7         4.5549    1.1215    2.2089 C.ar      1 RES1    0.0000
     19 C8         6.3246    1.8200    0.6090 C.2       1 RES1    0.0000
     20 C9         5.8279    3.2378    0.6200 C.3       1 RES1    0.0000
     21 H9         6.3718    3.7717    0.0357 H         1 RES1    0.0000
     22 H10        5.8772    3.5878    1.5114 H         1 RES1    0.0000
     23 H11        4.9171    3.2600    0.3178 H         1 RES1    0.0000
@<TRIPOS>BOND
     1    1    2 1
     2    2    3 1
     3    4   19 2
     4    5    6 1
     5    7    5 1
     6    8    5 1
     7    9    5 1
     8   10    9 ar
     9   11   10 1
    10   12   10 ar
    11   13   12 1
    12   14   12 ar
    13   15   14 1
    14   16   14 ar
    15   17   16 1
    16   18    1 1
    17   19    1 1
    18   20   19 1
    19   21   20 1
    20   22   20 1
    21   23   20 1
    22    9   18 ar
    23   16   18 ar
@<TRIPOS>SUBSTRUCTURE
     1 RES1 1

@<TRIPOS>CRYSIN
   7.7890    7.1570   15.6130  90.0000  96.8600  90.0000  14 1

