# MOL2 file generated by ConQuest
# Please check atom types

@<TRIPOS>MOLECULE
HIWRIO
    50    51     1
SMALL
NO_CHARGES
****
Generated from CSD

@<TRIPOS>ATOM
      1 C1         1.0914    6.0568    1.8105 C.3       1 RES1    0.0000
      2 H1         1.2435    6.9666    1.5445 H         1 RES1    0.0000
      3 C2         2.4015    5.2611    1.8361 C.3       1 RES1    0.0000
      4 H2         2.1612    4.4168    2.2246 H         1 RES1    0.0000
      5 C3         3.5233    5.8573    2.6910 C.3       1 RES1    0.0000
      6 H3         4.3369    5.4337    2.4083 H         1 RES1    0.0000
      7 O1         3.5572    7.2683    2.4941 O.3       1 RES1    0.0000
      8 H4         4.4560    7.4780    2.2777 H         1 RES1    0.0000
      9 C4         3.3648    5.5845    4.1801 C.3       1 RES1    0.0000
     10 H5         2.6080    6.0718    4.5137 H         1 RES1    0.0000
     11 O2         3.1986    4.1553    4.3459 O.3       1 RES1    0.0000
     12 C5         4.5957    6.0384    4.9624 C.3       1 RES1    0.0000
     13 H6         4.6421    6.9973    4.9576 H         1 RES1    0.0000
     14 H7         5.3848    5.6777    4.5513 H         1 RES1    0.0000
     15 C6         4.5037    5.5450    6.3967 C.3       1 RES1    0.0000
     16 H8         3.7854    5.9999    6.8423 H         1 RES1    0.0000
     17 H9         5.3298    5.7312    6.8492 H         1 RES1    0.0000
     18 O3         4.2550    4.1148    6.4238 O.3       1 RES1    0.0000
     19 C7         3.0563    3.8219    5.7131 C.3       1 RES1    0.0000
     20 H10        2.3327    4.3385    6.0751 H         1 RES1    0.0000
     21 O4         0.5185    6.1637    3.0842 O.3       1 RES1    0.0000
     22 C8        -0.0963    4.9845    3.6024 C.3       1 RES1    0.0000
     23 H11       -0.8256    4.7217    3.0361 H         1 RES1    0.0000
     24 H12        0.5472    4.2734    3.6462 H         1 RES1    0.0000
     25 C9        -0.6052    5.2963    4.9760 C.3       1 RES1    0.0000
     26 H13       -1.0245    4.5161    5.3460 H         1 RES1    0.0000
     27 H14       -1.2452    6.0103    4.9262 H         1 RES1    0.0000
     28 H15        0.1276    5.5619    5.5363 H         1 RES1    0.0000
     29 O5         0.2624    5.4286    0.8840 O.3       1 RES1    0.0000
     30 C10       -0.8338    6.2477    0.4478 C.3       1 RES1    0.0000
     31 H16       -1.4509    6.3703    1.1729 H         1 RES1    0.0000
     32 H17       -0.5001    7.1018    0.1637 H         1 RES1    0.0000
     33 C11       -1.5150    5.6012   -0.6678 C.3       1 RES1    0.0000
     34 H18       -2.2468    6.1496   -0.9598 H         1 RES1    0.0000
     35 H19       -1.8486    4.7471   -0.3837 H         1 RES1    0.0000
     36 H20       -0.8978    5.4785   -1.3929 H         1 RES1    0.0000
     37 C12        2.7615    2.3410    5.8543 C.ar      1 RES1    0.0000
     38 C13        3.0165    1.7032    7.0565 C.ar      1 RES1    0.0000
     39 H21        3.4280    2.1856    7.7773 H         1 RES1    0.0000
     40 C14        2.6797    0.3622    7.2200 C.ar      1 RES1    0.0000
     41 H22        2.8610   -0.0778    8.0537 H         1 RES1    0.0000
     42 C15        2.0859   -0.3307    6.1925 C.ar      1 RES1    0.0000
     43 H23        1.8364   -1.2486    6.3217 H         1 RES1    0.0000
     44 C16        1.8474    0.2731    4.9850 C.ar      1 RES1    0.0000
     45 H24        1.4551   -0.2240    4.2634 H         1 RES1    0.0000
     46 C17        2.1833    1.6305    4.8143 C.ar      1 RES1    0.0000
     47 H25        2.0118    2.0639    3.9750 H         1 RES1    0.0000
     48 N1         2.9455    5.1676    0.4399 N.pl3     1 RES1    0.0000
     49 O6         3.4443    4.1309    0.0908 O.2       1 RES1    0.0000
     50 O7         2.8917    6.1520   -0.2691 O.2       1 RES1    0.0000
@<TRIPOS>BOND
     1    1    2 1
     2    3    1 1
     3    4    3 1
     4    5    3 1
     5    6    5 1
     6    7    5 1
     7    8    7 1
     8    9    5 1
     9   10    9 1
    10   11    9 1
    11   12    9 1
    12   13   12 1
    13   14   12 1
    14   15   12 1
    15   16   15 1
    16   17   15 1
    17   18   15 1
    18   19   11 1
    19   20   19 1
    20   21    1 1
    21   22   21 1
    22   23   22 1
    23   24   22 1
    24   25   22 1
    25   26   25 1
    26   27   25 1
    27   28   25 1
    28   29    1 1
    29   30   29 1
    30   31   30 1
    31   32   30 1
    32   33   30 1
    33   34   33 1
    34   35   33 1
    35   36   33 1
    36   37   19 1
    37   38   37 ar
    38   39   38 1
    39   40   38 ar
    40   41   40 1
    41   42   40 ar
    42   43   42 1
    43   44   42 ar
    44   45   44 1
    45   46   37 ar
    46   47   46 1
    47   48    3 1
    48   49   48 2
    49   50   48 2
    50   18   19 1
    51   44   46 ar
@<TRIPOS>SUBSTRUCTURE
     1 RES1 1

@<TRIPOS>CRYSIN
  12.2955    8.8655    8.7820  90.0000 103.4760  90.0000   4 1

