# MOL2 file generated by ConQuest
# Please check atom types

@<TRIPOS>MOLECULE
HIXBIB
    37    38     1
SMALL
NO_CHARGES
****
Generated from CSD

@<TRIPOS>ATOM
      1 N1         3.5897   13.1934    5.0821 N.pl3     1 RES1    0.0000
      2 N2         2.7509   11.1908    2.4687 N.1       1 RES1    0.0000
      3 N3         2.6756   11.4354    7.2255 N.3       1 RES1    0.0000
      4 O1         3.6388   13.6873    6.2186 O.2       1 RES1    0.0000
      5 O2         3.9427   13.8290    4.0618 O.2       1 RES1    0.0000
      6 C1         3.1085   11.8767    4.9040 C.2       1 RES1    0.0000
      7 C2         2.9436   11.4829    3.5576 C.1       1 RES1    0.0000
      8 C3         2.7436   11.0380    5.9703 C.2       1 RES1    0.0000
      9 C4         2.3511    9.6449    5.6366 C.ar      1 RES1    0.0000
     10 C5         3.2280    8.8003    4.9692 C.ar      1 RES1    0.0000
     11 H1         4.0888    9.1096    4.7133 H         1 RES1    0.0000
     12 C6         2.8383    7.5084    4.6799 C.ar      1 RES1    0.0000
     13 H2         3.4488    6.9259    4.2408 H         1 RES1    0.0000
     14 C7         1.5636    7.0383    5.0202 C.ar      1 RES1    0.0000
     15 C8         0.6903    7.9060    5.6675 C.ar      1 RES1    0.0000
     16 H3        -0.1866    7.6148    5.8866 H         1 RES1    0.0000
     17 C9         1.0889    9.1883    5.9953 C.ar      1 RES1    0.0000
     18 H4         0.4966    9.7604    6.4678 H         1 RES1    0.0000
     19 C10        1.0950    5.6762    4.6849 C.3       1 RES1    0.0000
     20 H5         0.6665    5.2761    5.4702 H         1 RES1    0.0000
     21 H6         1.8580    5.1254    4.4139 H         1 RES1    0.0000
     22 H7         0.4485    5.7241    3.9498 H         1 RES1    0.0000
     23 C11        2.4621   10.6081    8.3737 C.ar      1 RES1    0.0000
     24 C12        3.2058    9.4560    8.5686 C.ar      1 RES1    0.0000
     25 H8         3.8394    9.1800    7.9163 H         1 RES1    0.0000
     26 C13        3.0202    8.7111    9.7185 C.ar      1 RES1    0.0000
     27 H9         3.5390    7.9261    9.8515 H         1 RES1    0.0000
     28 C14        2.0924    9.0824   10.6852 C.ar      1 RES1    0.0000
     29 C15        1.3617   10.2417   10.4611 C.ar      1 RES1    0.0000
     30 H10        0.7237   10.5184   11.1084 H         1 RES1    0.0000
     31 C16        1.5372   11.0054    9.3196 C.ar      1 RES1    0.0000
     32 H11        1.0254   11.7948    9.1875 H         1 RES1    0.0000
     33 C17        1.8493    8.2319   11.8987 C.3       1 RES1    0.0000
     34 H12        1.7770    8.8053   12.6898 H         1 RES1    0.0000
     35 H13        2.5962    7.6077   12.0149 H         1 RES1    0.0000
     36 H14        1.0178    7.7275   11.7825 H         1 RES1    0.0000
     37 H15        2.8574   12.3133    7.3677 H         1 RES1    0.0000
@<TRIPOS>BOND
     1    1    4 2
     2    2    7 3
     3    3    8 1
     4    5    1 2
     5    6    1 1
     6    7    6 1
     7    8    6 2
     8    9    8 1
     9   10    9 ar
    10   11   10 1
    11   12   10 ar
    12   13   12 1
    13   14   12 ar
    14   15   14 ar
    15   16   15 1
    16   17    9 ar
    17   18   17 1
    18   19   14 1
    19   20   19 1
    20   21   19 1
    21   22   19 1
    22   23    3 1
    23   24   23 ar
    24   25   24 1
    25   26   24 ar
    26   27   26 1
    27   28   26 ar
    28   29   28 ar
    29   30   29 1
    30   31   23 ar
    31   32   31 1
    32   33   28 1
    33   34   33 1
    34   35   33 1
    35   36   33 1
    36   37    3 1
    37   15   17 ar
    38   29   31 ar
@<TRIPOS>SUBSTRUCTURE
     1 RES1 1

@<TRIPOS>CRYSIN
  12.4481   14.0884    9.7990  90.0000 121.4120  90.0000   9 1

