# MOL2 file generated by ConQuest
# Please check atom types

@<TRIPOS>MOLECULE
HIYDIC01
    35    36     1
SMALL
NO_CHARGES
****
Generated from CSD

@<TRIPOS>ATOM
      1 C1        -3.3142    3.7511   -0.5056 C.ar      1 RES1    0.0000
      2 C2        -4.6240    3.4516   -0.0690 C.ar      1 RES1    0.0000
      3 H1        -4.8759    3.5635    0.9711 H         1 RES1    0.0000
      4 C3        -5.6021    3.0093   -0.9760 C.ar      1 RES1    0.0000
      5 H2        -6.5908    2.7737   -0.6229 H         1 RES1    0.0000
      6 C4        -5.2983    2.8731   -2.3382 C.ar      1 RES1    0.0000
      7 H3        -6.0526    2.5479   -3.0332 H         1 RES1    0.0000
      8 C5        -4.0103    3.1630   -2.7833 C.ar      1 RES1    0.0000
      9 H4        -3.7691    3.0619   -3.8270 H         1 RES1    0.0000
     10 C6        -3.0195    3.5887   -1.8712 C.ar      1 RES1    0.0000
     11 H5        -2.0245    3.7920   -2.2265 H         1 RES1    0.0000
     12 C7        -2.2617    4.2656    0.4047 C.2       1 RES1    0.0000
     13 H6        -1.2702    4.3670   -0.0008 H         1 RES1    0.0000
     14 C8        -2.4368    4.6184    1.6971 C.2       1 RES1    0.0000
     15 H7        -3.3943    4.4820    2.1688 H         1 RES1    0.0000
     16 C9        -1.2925    5.2005    2.4722 C.2       1 RES1    0.0000
     17 O1        -0.1926    5.4181    1.9450 O.2       1 RES1    0.0000
     18 N1        -1.4757    5.5005    3.7991 N.am      1 RES1    0.0000
     19 C10       -2.7226    5.3898    4.5638 C.3       1 RES1    0.0000
     20 H8        -3.0566    6.3580    4.8378 H         1 RES1    0.0000
     21 H9        -2.5507    4.8154    5.4382 H         1 RES1    0.0000
     22 H10       -3.4606    4.9164    3.9689 H         1 RES1    0.0000
     23 C11       -0.3512    6.0446    4.5270 C.ar      1 RES1    0.0000
     24 C12        0.2773    5.2860    5.5275 C.ar      1 RES1    0.0000
     25 H11       -0.0694    4.2868    5.7255 H         1 RES1    0.0000
     26 C13        1.3552    5.8052    6.2807 C.ar      1 RES1    0.0000
     27 H12        1.7978    5.2142    7.0635 H         1 RES1    0.0000
     28 C14        1.8423    7.0748    6.0120 C.ar      1 RES1    0.0000
     29 H13        2.6554    7.4785    6.5896 H         1 RES1    0.0000
     30 C15        1.2633    7.8296    4.9768 C.ar      1 RES1    0.0000
     31 H14        1.6608    8.7975    4.7258 H         1 RES1    0.0000
     32 C16        0.1631    7.3137    4.2720 C.ar      1 RES1    0.0000
     33 N2        -0.4626    8.1609    3.2280 N.pl3     1 RES1    0.0000
     34 O2        -1.7012    8.2192    3.1710 O.2       1 RES1    0.0000
     35 O3         0.2910    8.7828    2.4913 O.2       1 RES1    0.0000
@<TRIPOS>BOND
     1    1    2 ar
     2    2    3 1
     3    4    2 ar
     4    5    4 1
     5    6    4 ar
     6    7    6 1
     7    8    6 ar
     8    9    8 1
     9   10    1 ar
    10   11   10 1
    11   12    1 1
    12   13   12 1
    13   14   12 2
    14   15   14 1
    15   16   14 1
    16   17   16 2
    17   18   16 1
    18   19   18 1
    19   20   19 1
    20   21   19 1
    21   22   19 1
    22   23   18 1
    23   24   23 ar
    24   25   24 1
    25   26   24 ar
    26   27   26 1
    27   28   26 ar
    28   29   28 1
    29   30   28 ar
    30   31   30 1
    31   32   23 ar
    32   33   32 1
    33   34   33 2
    34   35   33 2
    35    8   10 ar
    36   30   32 ar
@<TRIPOS>SUBSTRUCTURE
     1 RES1 1

@<TRIPOS>CRYSIN
  10.3397   10.0008   13.8310  90.0000 107.0190  90.0000 231 1

