# MOL2 file generated by ConQuest
# Please check atom types

@<TRIPOS>MOLECULE
HIZHAB
    32    33     1
SMALL
NO_CHARGES
****
Generated from CSD

@<TRIPOS>ATOM
      1 C1         2.8648   14.6965    0.3204 C.ar      1 RES1    0.0000
      2 C2         1.6048   14.1393    0.4653 C.ar      1 RES1    0.0000
      3 H1         0.9080   14.3867   -0.1315 H         1 RES1    0.0000
      4 C3         1.3527   13.2242    1.4731 C.ar      1 RES1    0.0000
      5 H2         0.4846   12.8514    1.5706 H         1 RES1    0.0000
      6 C4         2.3679   12.8531    2.3386 C.ar      1 RES1    0.0000
      7 H3         2.1989   12.2165    3.0245 H         1 RES1    0.0000
      8 C5         3.6187   13.4040    2.2057 C.ar      1 RES1    0.0000
      9 H4         4.3151   13.1473    2.7985 H         1 RES1    0.0000
     10 C6         3.8681   14.3391    1.2050 C.ar      1 RES1    0.0000
     11 H5         4.7292   14.7332    1.1284 H         1 RES1    0.0000
     12 C7         3.1520   15.6518   -0.7903 C.3       1 RES1    0.0000
     13 H6         4.1280   15.7196   -0.9410 H         1 RES1    0.0000
     14 H7         2.7253   15.3427   -1.6281 H         1 RES1    0.0000
     15 C8         2.7381   17.9386   -1.2884 C.2       1 RES1    0.0000
     16 C9         1.9030   19.1263   -0.9236 C.ar      1 RES1    0.0000
     17 C10        0.6430   19.0348   -0.3276 C.ar      1 RES1    0.0000
     18 C11       -0.0651   20.1398    0.0753 C.ar      1 RES1    0.0000
     19 H8        -0.9216   20.0624    0.4783 H         1 RES1    0.0000
     20 C12        0.5273   21.3680   -0.1331 C.ar      1 RES1    0.0000
     21 C13        1.7588   21.5248   -0.7329 C.ar      1 RES1    0.0000
     22 H9         2.1338   22.3894   -0.8613 H         1 RES1    0.0000
     23 C14        2.4335   20.3867   -1.1422 C.ar      1 RES1    0.0000
     24 H10        3.2731   20.4722   -1.5788 H         1 RES1    0.0000
     25 N1        -0.0240   17.7339   -0.1636 N.pl3     1 RES1    0.0000
     26 N2        -0.2047   22.5603    0.3242 N.pl3     1 RES1    0.0000
     27 O1         2.6075   16.9592   -0.3961 O.3       1 RES1    0.0000
     28 O2         3.4562   17.9115   -2.2480 O.2       1 RES1    0.0000
     29 O3         0.0246   16.9496   -1.1025 O.2       1 RES1    0.0000
     30 O4        -0.6171   17.5293    0.8809 O.2       1 RES1    0.0000
     31 O5        -1.4174   22.4736    0.4335 O.2       1 RES1    0.0000
     32 O6         0.4466   23.5635    0.5762 O.2       1 RES1    0.0000
@<TRIPOS>BOND
     1    1    2 ar
     2    2    3 1
     3    4    2 ar
     4    5    4 1
     5    6    4 ar
     6    7    6 1
     7    8    6 ar
     8    9    8 1
     9   10    1 ar
    10   11   10 1
    11   12    1 1
    12   13   12 1
    13   14   12 1
    14   15   16 1
    15   16   17 ar
    16   17   18 ar
    17   18   19 1
    18   20   18 ar
    19   21   20 ar
    20   22   21 1
    21   23   16 ar
    22   24   23 1
    23   25   17 1
    24   26   20 1
    25   27   12 1
    26   28   15 2
    27   29   25 2
    28   30   25 2
    29   31   26 2
    30   32   26 2
    31    8   10 ar
    32   15   27 1
    33   21   23 ar
@<TRIPOS>SUBSTRUCTURE
     1 RES1 1

@<TRIPOS>CRYSIN
   6.2323   25.2930    8.2245  90.0000  92.1450  90.0000  14 1

