# MOL2 file generated by ConQuest
# Please check atom types

@<TRIPOS>MOLECULE
HIZHII
    22    24     1
SMALL
NO_CHARGES
****
Generated from CSD

@<TRIPOS>ATOM
      1 O1        -0.9954    3.1257    3.4639 O.3       1 RES1    0.0000
      2 O2         0.5817    1.2095    0.3049 O.3       1 RES1    0.0000
      3 N1        -2.7625    0.1728    3.1071 N.3       1 RES1    0.0000
      4 N2        -2.0078    2.2450    3.8759 N.2       1 RES1    0.0000
      5 N3        -0.3284    2.6348    2.3845 N.2       1 RES1    0.0000
      6 N4        -1.0526   -0.4314    0.8019 N.2       1 RES1    0.0000
      7 C1        -1.9434    1.2318    3.0477 C.2       1 RES1    0.0000
      8 C2        -0.8921    1.4931    2.1117 C.2       1 RES1    0.0000
      9 C3        -0.4450    0.6659    0.9983 C.2       1 RES1    0.0000
     10 H1        -3.3545    0.1121    3.8085 H         1 RES1    0.0000
     11 H2        -2.5740   -0.4885    2.6018 H         1 RES1    0.0000
     12 O1A        0.9954   -3.1257   -3.4639 O.3       1 RES1    0.0000
     13 O2A       -0.5817   -1.2095   -0.3049 O.3       1 RES1    0.0000
     14 N1A        2.7625   -0.1728   -3.1071 N.3       1 RES1    0.0000
     15 N2A        2.0078   -2.2450   -3.8759 N.2       1 RES1    0.0000
     16 N3A        0.3284   -2.6348   -2.3845 N.2       1 RES1    0.0000
     17 N4A        1.0526    0.4314   -0.8019 N.2       1 RES1    0.0000
     18 C1A        1.9434   -1.2318   -3.0477 C.2       1 RES1    0.0000
     19 C2A        0.8921   -1.4931   -2.1117 C.2       1 RES1    0.0000
     20 C3A        0.4450   -0.6659   -0.9983 C.2       1 RES1    0.0000
     21 H1A        3.3545   -0.1121   -3.8085 H         1 RES1    0.0000
     22 H2A        2.5740    0.4885   -2.6018 H         1 RES1    0.0000
@<TRIPOS>BOND
     1    1    4 1
     2    2    9 1
     3    3    7 1
     4    4    7 2
     5    5    1 1
     6    6    9 2
     7    7    8 1
     8    8    5 2
     9    9    8 1
    10   10    3 1
    11   11    3 1
    12   12   15 1
    13   13    6 1
    14   14   18 1
    15   15   18 2
    16   16   12 1
    17   17    2 1
    18   18   19 1
    19   19   16 2
    20   20   13 1
    21   21   14 1
    22   22   14 1
    23   17   20 2
    24   19   20 1
@<TRIPOS>SUBSTRUCTURE
     1 RES1 1

@<TRIPOS>CRYSIN
   4.8616    5.2370    9.7076 102.2500  93.6310 101.8800   2 1

