# MOL2 file generated by ConQuest
# Please check atom types

@<TRIPOS>MOLECULE
HIZHIJ
    34    35     1
SMALL
NO_CHARGES
****
Generated from CSD

@<TRIPOS>ATOM
      1 C1        -1.1363    4.1437    8.5757 C.ar      1 RES1    0.0000
      2 C2        -0.6132    3.5835    9.7310 C.ar      1 RES1    0.0000
      3 H1         0.2385    3.8665   10.0430 H         1 RES1    0.0000
      4 C3        -1.3116    2.6159   10.4424 C.ar      1 RES1    0.0000
      5 H2        -0.9500    2.2329   11.2319 H         1 RES1    0.0000
      6 C4        -2.5485    2.2280    9.9642 C.ar      1 RES1    0.0000
      7 C5        -3.1026    2.7613    8.8036 C.ar      1 RES1    0.0000
      8 H3        -3.9499    2.4681    8.4898 H         1 RES1    0.0000
      9 C6        -2.3885    3.7284    8.1205 C.ar      1 RES1    0.0000
     10 H4        -2.7545    4.1144    7.3321 H         1 RES1    0.0000
     11 C7        -0.3784    5.2113    7.8412 C.3       1 RES1    0.0000
     12 H5        -0.9601    5.9974    7.6845 H         1 RES1    0.0000
     13 H6         0.4048    5.5016    8.3724 H         1 RES1    0.0000
     14 C8         0.7898    5.4782    5.8171 C.2       1 RES1    0.0000
     15 C9         1.0294    4.8927    4.4568 C.ar      1 RES1    0.0000
     16 C10        2.0870    5.3792    3.6639 C.ar      1 RES1    0.0000
     17 C11        2.2313    5.0278    2.3444 C.ar      1 RES1    0.0000
     18 H7         2.9285    5.3909    1.8097 H         1 RES1    0.0000
     19 C12        1.3257    4.1276    1.8226 C.ar      1 RES1    0.0000
     20 C13        0.2902    3.5913    2.5707 C.ar      1 RES1    0.0000
     21 H8        -0.3096    2.9609    2.1908 H         1 RES1    0.0000
     22 C14        0.1524    3.9953    3.8835 C.ar      1 RES1    0.0000
     23 H9        -0.5623    3.6479    4.4031 H         1 RES1    0.0000
     24 N1        -3.2915    1.2013   10.6952 N.pl3     1 RES1    0.0000
     25 N2         3.1482    6.2301    4.2387 N.pl3     1 RES1    0.0000
     26 N3         1.4708    3.7372    0.4118 N.pl3     1 RES1    0.0000
     27 O1        -2.7409    0.6509   11.6427 O.2       1 RES1    0.0000
     28 O2        -4.4324    0.9325   10.3314 O.2       1 RES1    0.0000
     29 O3         0.0574    4.6438    6.5663 O.3       1 RES1    0.0000
     30 O4         1.1593    6.5629    6.1550 O.2       1 RES1    0.0000
     31 O5         3.7438    5.8022    5.2250 O.2       1 RES1    0.0000
     32 O6         3.4154    7.2656    3.6503 O.2       1 RES1    0.0000
     33 O7         2.0929    4.4945   -0.3245 O.2       1 RES1    0.0000
     34 O8         0.9672    2.6749    0.0518 O.2       1 RES1    0.0000
@<TRIPOS>BOND
     1    1    2 ar
     2    2    3 1
     3    4    2 ar
     4    5    4 1
     5    6    4 ar
     6    7    6 ar
     7    8    7 1
     8    9    1 ar
     9   10    9 1
    10   11    1 1
    11   12   11 1
    12   13   11 1
    13   14   15 1
    14   15   16 ar
    15   16   17 ar
    16   17   18 1
    17   19   17 ar
    18   20   19 ar
    19   21   20 1
    20   22   15 ar
    21   23   22 1
    22   24    6 1
    23   25   16 1
    24   26   19 1
    25   27   24 2
    26   28   24 2
    27   29   11 1
    28   30   14 2
    29   31   25 2
    30   32   25 2
    31   33   26 2
    32   34   26 2
    33    7    9 ar
    34   14   29 1
    35   20   22 ar
@<TRIPOS>SUBSTRUCTURE
     1 RES1 1

@<TRIPOS>CRYSIN
   6.1241    4.8795   24.0060  90.0000  93.1780  90.0000   4 1

