# MOL2 file generated by ConQuest
# Please check atom types

@<TRIPOS>MOLECULE
HIZTEQ
    12    12     1
SMALL
USER_CHARGES
****
Generated from CSD

@<TRIPOS>ATOM
      1 C1         3.6020    0.8533    4.7463 C.2       1 RES1    0.0000
      2 H1         3.2179    0.4546    4.0046 H         1 RES1    0.0000
      3 C2         3.0546    1.4701    5.8354 C.2       1 RES1    0.0000
      4 H2         2.1642    1.6300    6.0717 H         1 RES1    0.0000
      5 N1         4.0897    1.8583    6.6061 N.3       1 RES1    0.0000
      6 N2         5.2592    1.5339    6.0921 N.2       1 RES1    0.0000
      7 N3         4.9438    0.9276    4.9564 N.pl3     1 RES1    1.0000
      8 N4         6.0395    0.3329    4.3169 N.2       1 RES1   -1.0000
      9 N5         6.0062    0.5679    3.0230 N.pl3     1 RES1    0.0000
     10 O1         5.0825    1.1316    2.4089 O.2       1 RES1    0.0000
     11 O2         7.0378    0.1302    2.4063 O.2       1 RES1    0.0000
     12 H3         4.0486    2.2924    7.4603 H         1 RES1    0.0000
@<TRIPOS>BOND
     1    1    2 1
     2    3    1 2
     3    4    3 1
     4    5    3 1
     5    6    5 1
     6    7    1 1
     7    8    7 1
     8    9    8 1
     9   10    9 2
    10   11    9 2
    11   12    5 1
    12    6    7 2
@<TRIPOS>SUBSTRUCTURE
     1 RES1 1

@<TRIPOS>CRYSIN
   5.6122    6.4941   13.1089  90.0000  92.1370  90.0000 231 1

