# MOL2 file generated by ConQuest
# Please check atom types

@<TRIPOS>MOLECULE
HMBFUR
    25    26     1
SMALL
NO_CHARGES
****
Generated from CSD

@<TRIPOS>ATOM
      1 O1        -2.6798    2.5212   -3.6161 O.3       1 RES1    0.0000
      2 O2        -2.3583    4.3309   -2.2456 O.2       1 RES1    0.0000
      3 O3        -5.7340    5.0698    0.3459 O.3       1 RES1    0.0000
      4 N1        -3.7057    1.6148   -3.8536 N.2       1 RES1    0.0000
      5 N2        -3.1334    3.4369   -2.5971 N.pl3     1 RES1    0.0000
      6 N3        -4.8016    4.6489   -0.6002 N.2       1 RES1    0.0000
      7 C1        -4.6777    1.9298   -3.0477 C.2       1 RES1    0.0000
      8 C2        -4.3490    3.0592   -2.2605 C.2       1 RES1    0.0000
      9 C3        -5.2305    3.6371   -1.2640 C.2       1 RES1    0.0000
     10 C4        -6.5511    2.9328   -1.0994 C.3       1 RES1    0.0000
     11 C5        -7.0562    2.2021   -2.3596 C.3       1 RES1    0.0000
     12 C6        -5.9883    1.2407   -2.8963 C.3       1 RES1    0.0000
     13 C7        -8.2912    1.3853   -1.9745 C.3       1 RES1    0.0000
     14 C8        -7.4323    3.2197   -3.4348 C.3       1 RES1    0.0000
     15 H1        -5.4341    5.6032    0.6731 H         1 RES1    0.0000
     16 H2        -7.1925    3.5657   -0.7853 H         1 RES1    0.0000
     17 H3        -5.8461    0.5328   -2.2811 H         1 RES1    0.0000
     18 H4        -8.0236    0.7670   -1.2901 H         1 RES1    0.0000
     19 H5        -7.7827    2.7636   -4.2444 H         1 RES1    0.0000
     20 H6        -8.1374    3.8819   -3.0851 H         1 RES1    0.0000
     21 H7        -6.4764    2.3127   -0.3553 H         1 RES1    0.0000
     22 H8        -6.2442    0.8431   -3.8143 H         1 RES1    0.0000
     23 H9        -8.6789    0.9544   -2.7673 H         1 RES1    0.0000
     24 H10       -9.0232    1.9673   -1.6454 H         1 RES1    0.0000
     25 H11       -6.5852    3.6652   -3.7769 H         1 RES1    0.0000
@<TRIPOS>BOND
     1    1    4 1
     2    2    5 1
     3    3    6 1
     4    4    7 2
     5    5    1 1
     6    6    9 2
     7    7    8 1
     8    8    5 2
     9    9    8 1
    10   10    9 1
    11   11   10 1
    12   12    7 1
    13   13   11 1
    14   14   11 1
    15   15    3 1
    16   16   10 1
    17   17   12 1
    18   18   13 1
    19   19   14 1
    20   20   14 1
    21   21   10 1
    22   22   12 1
    23   23   13 1
    24   24   13 1
    25   25   14 1
    26   11   12 1
@<TRIPOS>SUBSTRUCTURE
     1 RES1 1

@<TRIPOS>CRYSIN
   8.4780    5.8550   18.7210  90.0000  92.8600  90.0000  14 1

