# MOL2 file generated by ConQuest
# Please check atom types

@<TRIPOS>MOLECULE
HMTRAO10
    23    25     1
SMALL
USER_CHARGES
****
Generated from CSD

@<TRIPOS>ATOM
      1 O1        -0.0000   -0.0000   -1.3626 O.2       1 RES1   -1.0000
      2 N1         0.0000    0.0000    0.0000 N.4       1 RES1    1.0000
      3 N2        -1.2194    0.7040    1.9980 N.3       1 RES1    0.0000
      4 C1        -1.2209    0.7049    0.5533 C.3       1 RES1    0.0000
      5 C2         0.0000    1.3704    2.4902 C.3       1 RES1    0.0000
      6 H1        -2.0376    0.2213    0.2329 H         1 RES1    0.0000
      7 H2         0.0000    2.3146    2.1433 H         1 RES1    0.0000
      8 H3         0.0000    1.3442    3.4800 H         1 RES1    0.0000
      9 C1C       -0.0000   -1.4097    0.5533 C.3       1 RES1    0.0000
     10 C1D        1.2209    0.7049    0.5533 C.3       1 RES1    0.0000
     11 H1I       -1.2104    1.6540    0.2329 H         1 RES1    0.0000
     12 C2C       -1.1868   -0.6852    2.4902 C.3       1 RES1    0.0000
     13 N2D        1.2194    0.7040    1.9980 N.3       1 RES1    0.0000
     14 N2C       -0.0000   -1.4081    1.9980 N.3       1 RES1    0.0000
     15 H1C        0.8272   -1.8753    0.2329 H         1 RES1    0.0000
     16 H1M       -0.8272   -1.8753    0.2329 H         1 RES1    0.0000
     17 H1D        1.2104    1.6540    0.2329 H         1 RES1    0.0000
     18 H1L        2.0376    0.2213    0.2329 H         1 RES1    0.0000
     19 H2C       -2.0045   -1.1573    2.1433 H         1 RES1    0.0000
     20 H3C       -1.1641   -0.6721    3.4800 H         1 RES1    0.0000
     21 C2D        1.1868   -0.6852    2.4902 C.3       1 RES1    0.0000
     22 H2D        2.0045   -1.1573    2.1433 H         1 RES1    0.0000
     23 H3D        1.1641   -0.6721    3.4800 H         1 RES1    0.0000
@<TRIPOS>BOND
     1    1    2 1
     2    2    4 1
     3    3    4 1
     4    4    6 1
     5    5    3 1
     6    7    5 1
     7    8    5 1
     8    9    2 1
     9   10    2 1
    10   11    4 1
    11   12    3 1
    12   13    5 1
    13   14    9 1
    14   15    9 1
    15   16    9 1
    16   17   10 1
    17   18   10 1
    18   19   12 1
    19   20   12 1
    20   21   13 1
    21   22   21 1
    22   23   21 1
    23   10   13 1
    24   12   14 1
    25   14   21 1
@<TRIPOS>SUBSTRUCTURE
     1 RES1 1

@<TRIPOS>CRYSIN
   9.4640    9.4640    6.7890  90.0000  90.0000 120.0000 235 1

