# MOL2 file generated by ConQuest
# Please check atom types

@<TRIPOS>MOLECULE
HMUSCM
    17    17     1
SMALL
USER_CHARGES
****
Generated from CSD

@<TRIPOS>ATOM
      1 C1        -0.8829    1.8336    2.8785 C.2       1 RES1    0.0000
      2 C2         0.3267    1.4453    3.5434 C.2       1 RES1    0.0000
      3 C3         1.1946    2.4217    3.3033 C.2       1 RES1    0.0000
      4 C4         2.6273    2.6394    3.6421 C.3       1 RES1    0.0000
      5 C5         2.9307    4.0053    4.2338 C.3       1 RES1    0.0000
      6 H1         2.8806    4.8694    5.9766 H         1 RES1    0.0000
      7 H2         1.4873    4.3545    5.5594 H         1 RES1    0.0000
      8 H3         2.5903    3.4551    6.1213 H         1 RES1    0.0000
      9 H4         0.3920    0.6141    4.0099 H         1 RES1    0.0000
     10 H5         2.9302    1.8981    4.2313 H         1 RES1    0.0000
     11 H6         3.1423    2.5494    2.8010 H         1 RES1    0.0000
     12 H7         2.5522    4.7515    3.7205 H         1 RES1    0.0000
     13 H8         3.8440    4.1622    4.2653 H         1 RES1    0.0000
     14 N1         2.3906    4.1641    5.6028 N.4       1 RES1    1.0000
     15 N2        -0.7056    2.9830    2.2646 N.2       1 RES1    0.0000
     16 O1         0.6324    3.3782    2.5405 O.3       1 RES1    0.0000
     17 O2        -1.9961    1.1953    2.8308 O.2       1 RES1   -1.0000
@<TRIPOS>BOND
     1    1    2 1
     2    2    3 2
     3    3    4 1
     4    4    5 1
     5    5   12 1
     6    6   14 1
     7    7   14 1
     8    8   14 1
     9    9    2 1
    10   10    4 1
    11   11    4 1
    12   13    5 1
    13   14    5 1
    14   15    1 2
    15   16    3 1
    16   17    1 1
    17   15   16 1
@<TRIPOS>SUBSTRUCTURE
     1 RES1 1

@<TRIPOS>CRYSIN
  11.5300    6.2030    8.7820  90.0000 104.2000  90.0000 231 1

