# MOL2 file generated by ConQuest
# Please check atom types

@<TRIPOS>MOLECULE
HNIABZ11
    36    37     1
SMALL
NO_CHARGES
****
Generated from CSD

@<TRIPOS>ATOM
      1 C1        -1.4493   -9.1373   -2.6074 C.ar      1 RES1    0.0000
      2 C2        -0.0240   -6.6381   -0.5693 C.ar      1 RES1    0.0000
      3 C3        -0.7647   -9.3516   -3.7771 C.ar      1 RES1    0.0000
      4 C4        -0.6082   -5.3951   -0.7997 C.ar      1 RES1    0.0000
      5 C5        -1.0117  -10.4370   -4.5907 C.ar      1 RES1    0.0000
      6 C6        -0.5055   -4.3605    0.0898 C.ar      1 RES1    0.0000
      7 C7        -1.9925  -11.3021   -4.2295 C.ar      1 RES1    0.0000
      8 C8         0.1958   -4.5741    1.2568 C.ar      1 RES1    0.0000
      9 C9        -2.7202  -11.1438   -3.0955 C.ar      1 RES1    0.0000
     10 C10        0.8188   -5.7500    1.5339 C.ar      1 RES1    0.0000
     11 C11       -2.4267  -10.0711   -2.2928 C.ar      1 RES1    0.0000
     12 C12        0.7104   -6.7689    0.6133 C.ar      1 RES1    0.0000
     13 H1        -0.5637  -10.5190   -5.2483 H         1 RES1    0.0000
     14 H2        -0.8967   -3.6368   -0.0363 H         1 RES1    0.0000
     15 H3        -3.3285  -11.6649   -2.8696 H         1 RES1    0.0000
     16 H4         1.2647   -5.8346    2.2070 H         1 RES1    0.0000
     17 N1        -1.2996   -7.9826   -1.7640 N.2       1 RES1    0.0000
     18 N2        -0.1170   -7.7578   -1.4533 N.2       1 RES1    0.0000
     19 N3         0.2311   -8.3693   -4.2648 N.pl3     1 RES1    0.0000
     20 N4        -1.3474   -5.1316   -2.0574 N.pl3     1 RES1    0.0000
     21 N5        -2.2634  -12.4732   -5.0976 N.pl3     1 RES1    0.0000
     22 N6         0.2342   -3.4826    2.2701 N.pl3     1 RES1    0.0000
     23 N7        -3.1767   -9.9517   -1.0209 N.pl3     1 RES1    0.0000
     24 N8         1.3368   -8.0592    0.9480 N.pl3     1 RES1    0.0000
     25 O1        -0.1856   -7.4486   -4.9082 O.2       1 RES1    0.0000
     26 O2        -0.7649   -5.3636   -3.0904 O.2       1 RES1    0.0000
     27 O3         1.3864   -8.5770   -4.0325 O.2       1 RES1    0.0000
     28 O4        -2.4567   -4.6658   -1.9487 O.2       1 RES1    0.0000
     29 O5        -1.6116  -12.5648   -6.1159 O.2       1 RES1    0.0000
     30 O6         0.0187   -2.3470    1.8793 O.2       1 RES1    0.0000
     31 O7        -3.1192  -13.2528   -4.7365 O.2       1 RES1    0.0000
     32 O8         0.4758   -3.8080    3.4146 O.2       1 RES1    0.0000
     33 O9        -4.2801  -10.4385   -0.9564 O.2       1 RES1    0.0000
     34 O10        2.3945   -8.0126    1.5547 O.2       1 RES1    0.0000
     35 O11       -2.6002   -9.4126   -0.0918 O.2       1 RES1    0.0000
     36 O12        0.7437   -9.0767    0.6390 O.2       1 RES1    0.0000
@<TRIPOS>BOND
     1    1    3 ar
     2    2    4 ar
     3    3    5 ar
     4    4    6 ar
     5    5    7 ar
     6    6    8 ar
     7    7    9 ar
     8    8   10 ar
     9    9   11 ar
    10   10   12 ar
    11   11    1 ar
    12   12    2 ar
    13   13    5 1
    14   14    6 1
    15   15    9 1
    16   16   10 1
    17   17    1 1
    18   18    2 1
    19   19    3 1
    20   20    4 1
    21   21    7 1
    22   22    8 1
    23   23   11 1
    24   24   12 1
    25   25   19 2
    26   26   20 2
    27   27   19 2
    28   28   20 2
    29   29   21 2
    30   30   22 2
    31   31   21 2
    32   32   22 2
    33   33   23 2
    34   34   24 2
    35   35   23 2
    36   36   24 2
    37   17   18 2
@<TRIPOS>SUBSTRUCTURE
     1 RES1 1

@<TRIPOS>CRYSIN
  10.6320   21.8690    7.5850  90.0000 102.5600  90.0000  14 2

