# MOL2 file generated by ConQuest
# Please check atom types

@<TRIPOS>MOLECULE
HNIDPA03
    36    37     1
SMALL
NO_CHARGES
****
Generated from CSD

@<TRIPOS>ATOM
      1 O1         5.0898    4.8520    4.4540 O.2       1 RES1    0.0000
      2 O2         4.3540    6.6924    5.3283 O.2       1 RES1    0.0000
      3 O3         0.5953    5.6591    8.3149 O.2       1 RES1    0.0000
      4 O4        -1.0993    4.6480    7.4140 O.2       1 RES1    0.0000
      5 O5        -0.6305    2.2201    3.4620 O.2       1 RES1    0.0000
      6 O6         1.1737    2.1918    2.2794 O.2       1 RES1    0.0000
      7 O7         4.2865    2.1166    1.4468 O.2       1 RES1    0.0000
      8 O8         6.0986    2.5933    0.3884 O.2       1 RES1    0.0000
      9 O9         7.4780    6.9752   -0.5457 O.2       1 RES1    0.0000
     10 O10        6.5111    8.6526    0.4071 O.2       1 RES1    0.0000
     11 O11        2.5645    7.9939    3.0741 O.2       1 RES1    0.0000
     12 O12        1.3940    6.2935    2.4126 O.2       1 RES1    0.0000
     13 N1         3.0020    3.9717    2.7235 N.3       1 RES1    0.0000
     14 N2         4.2072    5.5557    4.9051 N.pl3     1 RES1    0.0000
     15 N3         0.0690    5.0215    7.4228 N.pl3     1 RES1    0.0000
     16 N4         0.5153    2.5823    3.2393 N.pl3     1 RES1    0.0000
     17 N5         5.1173    2.9172    1.0268 N.pl3     1 RES1    0.0000
     18 N6         6.6330    7.4562    0.1909 N.pl3     1 RES1    0.0000
     19 N7         2.4530    6.8816    2.5701 N.pl3     1 RES1    0.0000
     20 C1         2.3539    4.1678    3.9182 C.ar      1 RES1    0.0000
     21 C2         2.8302    4.9982    4.9570 C.ar      1 RES1    0.0000
     22 C3         2.1131    5.2842    6.0953 C.ar      1 RES1    0.0000
     23 H1         2.4544    5.8783    6.7536 H         1 RES1    0.0000
     24 C4         0.8844    4.6828    6.2506 C.ar      1 RES1    0.0000
     25 C5         0.3927    3.7766    5.3379 C.ar      1 RES1    0.0000
     26 H2        -0.4323    3.3314    5.4928 H         1 RES1    0.0000
     27 C6         1.1223    3.5267    4.1917 C.ar      1 RES1    0.0000
     28 C7         3.8328    4.8367    2.0514 C.ar      1 RES1    0.0000
     29 C8         4.9103    4.3564    1.2705 C.ar      1 RES1    0.0000
     30 C9         5.8278    5.1999    0.6763 C.ar      1 RES1    0.0000
     31 H3         6.5412    4.8507    0.1555 H         1 RES1    0.0000
     32 C10        5.6869    6.5583    0.8528 C.ar      1 RES1    0.0000
     33 C11        4.6182    7.0980    1.5274 C.ar      1 RES1    0.0000
     34 H4         4.5228    8.0392    1.6149 H         1 RES1    0.0000
     35 C12        3.6890    6.2421    2.0725 C.ar      1 RES1    0.0000
     36 H5         2.9506    3.1152    2.3474 H         1 RES1    0.0000
@<TRIPOS>BOND
     1    1   14 2
     2    2   14 2
     3    3   15 2
     4    4   15 2
     5    5   16 2
     6    6   16 2
     7    7   17 2
     8    8   17 2
     9    9   18 2
    10   10   18 2
    11   11   19 2
    12   12   19 2
    13   13   20 1
    14   14   21 1
    15   15   24 1
    16   16   27 1
    17   17   29 1
    18   18   32 1
    19   19   35 1
    20   20   21 ar
    21   21   22 ar
    22   22   23 1
    23   24   22 ar
    24   25   24 ar
    25   26   25 1
    26   27   20 ar
    27   28   13 1
    28   29   28 ar
    29   30   29 ar
    30   31   30 1
    31   32   30 ar
    32   33   32 ar
    33   34   33 1
    34   35   28 ar
    35   36   13 1
    36   25   27 ar
    37   33   35 ar
@<TRIPOS>SUBSTRUCTURE
     1 RES1 1

@<TRIPOS>CRYSIN
   7.3398   11.6240   18.7340  90.0000  90.0000  90.0000  19 1

