# MOL2 file generated by ConQuest
# Please check atom types

@<TRIPOS>MOLECULE
HNIMOZ
    16    17     1
SMALL
NO_CHARGES
****
Generated from CSD

@<TRIPOS>ATOM
      1 C1         3.6323    1.0353    5.3031 C.2       1 RES1    0.0000
      2 N2         4.4267    0.4166    4.3548 N.pl3     1 RES1    0.0000
      3 C3         5.5553    0.6746    3.4698 C.3       1 RES1    0.0000
      4 C4         5.5211   -0.6139    2.6362 C.3       1 RES1    0.0000
      5 O5         4.2096   -1.2305    2.8696 O.3       1 RES1    0.0000
      6 C6         3.6801   -0.5825    3.9019 C.2       1 RES1    0.0000
      7 N7         2.5145   -0.7352    4.4814 N.2       1 RES1    0.0000
      8 C8         2.4948    0.2958    5.3802 C.2       1 RES1    0.0000
      9 N9         4.0576    2.1291    6.0664 N.pl3     1 RES1    0.0000
     10 O10        3.2889    2.5818    6.9060 O.2       1 RES1    0.0000
     11 O11        5.1875    2.5775    5.8420 O.2       1 RES1    0.0000
     12 H3         5.3098    1.4992    2.9230 H         1 RES1    0.0000
     13 H3'        6.4659    0.7948    4.0285 H         1 RES1    0.0000
     14 H4         5.5559   -0.4325    1.6365 H         1 RES1    0.0000
     15 H4'        6.2240   -1.2598    2.9803 H         1 RES1    0.0000
     16 H8         1.7261    0.4182    5.9112 H         1 RES1    0.0000
@<TRIPOS>BOND
     1    1    2 1
     2    2    3 1
     3    3    4 1
     4    4    5 1
     5    5    6 1
     6    6    2 1
     7    7    6 2
     8    8    1 2
     9    9    1 1
    10   10    9 2
    11   11    9 2
    12   12    3 1
    13   13    3 1
    14   14    4 1
    15   15    4 1
    16   16    8 1
    17    7    8 1
@<TRIPOS>SUBSTRUCTURE
     1 RES1 1

@<TRIPOS>CRYSIN
  11.7360    5.3200   14.1480  90.0000 135.6600  90.0000  14 1

