# MOL2 file generated by ConQuest
# Please check atom types

@<TRIPOS>MOLECULE
HOBGUC
    64    68     1
SMALL
NO_CHARGES
****
Generated from CSD

@<TRIPOS>ATOM
      1 O1        -1.6784    4.8834    2.0466 O.2       1 RES1    0.0000
      2 O2         0.7167    3.9868    3.7597 O.3       1 RES1    0.0000
      3 O3        -0.5516    2.6229    5.0413 O.2       1 RES1    0.0000
      4 O4         2.5857    2.3205   -0.3639 O.3       1 RES1    0.0000
      5 O5         1.4752    4.9131   -0.5453 O.3       1 RES1    0.0000
      6 O6        -1.8112    4.4007    9.4762 O.2       1 RES1    0.0000
      7 O7         1.5400    6.2230   -2.7624 O.3       1 RES1    0.0000
      8 O8         2.6377    7.9931    5.4922 O.2       1 RES1    0.0000
      9 O9         2.1790    8.6650    7.5036 O.2       1 RES1    0.0000
     10 O10       -1.4211    6.4806    9.9188 O.2       1 RES1    0.0000
     11 C1         0.4794    3.1279    2.5929 C.3       1 RES1    0.0000
     12 H1        -0.3889    2.6832    2.6827 H         1 RES1    0.0000
     13 C2        -0.7644    5.6702   -0.0083 C.ar      1 RES1    0.0000
     14 C3        -1.8872    6.4148   -0.3937 C.ar      1 RES1    0.0000
     15 H2        -2.6364    6.4517    0.1562 H         1 RES1    0.0000
     16 C4         0.3807    6.3296   -2.0610 C.ar      1 RES1    0.0000
     17 N1         2.0553    7.8854    6.5636 N.pl3     1 RES1    0.0000
     18 C5         2.7376    3.3241    0.6523 C.3       1 RES1    0.0000
     19 H3         3.5113    3.8896    0.4478 H         1 RES1    0.0000
     20 N2        -1.2740    5.4712    9.2392 N.pl3     1 RES1    0.0000
     21 C6         0.2662    4.6754    5.9450 C.ar      1 RES1    0.0000
     22 C7        -3.0423    7.8842   -2.0099 C.1       1 RES1    0.0000
     23 C8         0.3466    5.6284   -0.8394 C.ar      1 RES1    0.0000
     24 C9         1.4744    4.1356    0.5619 C.2       1 RES1    0.0000
     25 C10        4.1939    2.3376   -2.2107 C.ar      1 RES1    0.0000
     26 C11        2.8926    2.7198    2.0378 C.3       1 RES1    0.0000
     27 H4         3.1536    3.4112    2.6660 H         1 RES1    0.0000
     28 H5         3.5908    2.0467    2.0224 H         1 RES1    0.0000
     29 C12       -3.9377    8.5145   -2.3113 C.1       1 RES1    0.0000
     30 H6        -4.6708    9.0300   -2.5577 H         1 RES1    0.0000
     31 C13        0.4449    4.0664    1.4249 C.2       1 RES1    0.0000
     32 C14       -0.7515    4.8829    1.2349 C.2       1 RES1    0.0000
     33 C15       -0.5033    4.5537    7.1026 C.ar      1 RES1    0.0000
     34 H7        -1.0544    3.8158    7.2378 H         1 RES1    0.0000
     35 C16        1.6563    7.0335   -3.9328 C.3       1 RES1    0.0000
     36 H8         2.5098    6.8799   -4.3448 H         1 RES1    0.0000
     37 H9         1.5803    7.9594   -3.6908 H         1 RES1    0.0000
     38 H10        0.9575    6.8061   -4.5510 H         1 RES1    0.0000
     39 C17       -1.8726    7.0969   -1.6002 C.ar      1 RES1    0.0000
     40 C18       -0.4227    5.5638    8.0443 C.ar      1 RES1    0.0000
     41 C19        3.8107    1.7802   -0.8621 C.3       1 RES1    0.0000
     42 H11        3.7261    0.8166   -0.9310 H         1 RES1    0.0000
     43 H12        4.5207    1.9699   -0.2291 H         1 RES1    0.0000
     44 C20        1.1134    5.7643    5.7671 C.ar      1 RES1    0.0000
     45 H13        1.6410    5.8359    5.0050 H         1 RES1    0.0000
     46 C21       -0.7355    7.0473   -2.4317 C.ar      1 RES1    0.0000
     47 H14       -0.7388    7.5046   -3.2409 H         1 RES1    0.0000
     48 C22        4.8543    1.5250   -3.1244 C.ar      1 RES1    0.0000
     49 H15        5.0328    0.6379   -2.9076 H         1 RES1    0.0000
     50 C23        0.3964    6.6676    7.9029 C.ar      1 RES1    0.0000
     51 H16        0.4350    7.3318    8.5521 H         1 RES1    0.0000
     52 C24        1.1532    6.7382    6.7502 C.ar      1 RES1    0.0000
     53 C25        0.0939    3.6302    4.8907 C.2       1 RES1    0.0000
     54 C26        3.9354    3.6551   -2.5700 C.ar      1 RES1    0.0000
     55 H17        3.4738    4.2115   -1.9849 H         1 RES1    0.0000
     56 C27        5.2523    2.0254   -4.3618 C.ar      1 RES1    0.0000
     57 H18        5.6830    1.4664   -4.9675 H         1 RES1    0.0000
     58 C28        5.0146    3.3369   -4.6936 C.ar      1 RES1    0.0000
     59 H19        5.2911    3.6740   -5.5153 H         1 RES1    0.0000
     60 C29        4.3597    4.1466   -3.7920 C.ar      1 RES1    0.0000
     61 H20        4.1996    5.0370   -4.0074 H         1 RES1    0.0000
     62 C30        1.5782    2.0858    2.4900 C.3       1 RES1    0.0000
     63 H21        1.3149    1.4014    1.8558 H         1 RES1    0.0000
     64 H22        1.7039    1.6628    3.3533 H         1 RES1    0.0000
@<TRIPOS>BOND
     1    1   32 2
     2    2   11 1
     3    3   53 2
     4    4   18 1
     5    5   23 1
     6    6   20 2
     7    7   16 1
     8    8   17 2
     9    9   17 2
    10   10   20 2
    11   11   12 1
    12   13   14 ar
    13   14   15 1
    14   16   23 ar
    15   17   52 1
    16   18   19 1
    17   20   40 1
    18   21   33 ar
    19   22   29 3
    20   23   13 ar
    21   24    5 1
    22   25   41 1
    23   26   18 1
    24   27   26 1
    25   28   26 1
    26   29   30 1
    27   31   11 1
    28   32   13 1
    29   33   34 1
    30   35    7 1
    31   36   35 1
    32   37   35 1
    33   38   35 1
    34   39   14 ar
    35   40   33 ar
    36   41    4 1
    37   42   41 1
    38   43   41 1
    39   44   21 ar
    40   45   44 1
    41   46   16 ar
    42   47   46 1
    43   48   25 ar
    44   49   48 1
    45   50   40 ar
    46   51   50 1
    47   52   44 ar
    48   53    2 1
    49   54   25 ar
    50   55   54 1
    51   56   48 ar
    52   57   56 1
    53   58   56 ar
    54   59   58 1
    55   60   54 ar
    56   61   60 1
    57   62   11 1
    58   63   62 1
    59   64   62 1
    60   18   24 1
    61   21   53 1
    62   22   39 1
    63   24   31 2
    64   26   62 1
    65   31   32 1
    66   39   46 ar
    67   50   52 ar
    68   58   60 ar
@<TRIPOS>SUBSTRUCTURE
     1 RES1 1

@<TRIPOS>CRYSIN
   8.3950   14.7670   20.8450  90.0000  92.2980  90.0000  14 1

