# MOL2 file generated by ConQuest
# Please check atom types

@<TRIPOS>MOLECULE
HOBRUN
    42    45     1
SMALL
NO_CHARGES
****
Generated from CSD

@<TRIPOS>ATOM
      1 C1         7.0741   12.7626    0.2004 C.2       1 RES1    0.0000
      2 C2         6.7488   12.2536    1.5679 C.2       1 RES1    0.0000
      3 C3         6.0752   13.0298    2.4436 C.2       1 RES1    0.0000
      4 C4         5.5900   14.3935    2.0584 C.2       1 RES1    0.0000
      5 C5         5.8068   14.8573    0.6741 C.ar      1 RES1    0.0000
      6 C6         5.2908   16.0765    0.2624 C.ar      1 RES1    0.0000
      7 H1         4.8038   16.6000    0.8571 H         1 RES1    0.0000
      8 C7         5.4999   16.5112   -1.0288 C.ar      1 RES1    0.0000
      9 H2         5.1549   17.3287   -1.3052 H         1 RES1    0.0000
     10 C8         6.2220   15.7329   -1.9140 C.ar      1 RES1    0.0000
     11 H3         6.3501   16.0274   -2.7863 H         1 RES1    0.0000
     12 C9         6.7526   14.5271   -1.5174 C.ar      1 RES1    0.0000
     13 H4         7.2516   14.0174   -2.1142 H         1 RES1    0.0000
     14 C10        6.5403   14.0722   -0.2188 C.ar      1 RES1    0.0000
     15 C11        7.3249   10.9289    1.9352 C.ar      1 RES1    0.0000
     16 C12        7.1781    9.7669    1.1849 C.ar      1 RES1    0.0000
     17 C13        7.8428    8.5919    1.4939 C.ar      1 RES1    0.0000
     18 H5         7.7269    7.8315    0.9714 H         1 RES1    0.0000
     19 C14        8.6778    8.5685    2.5872 C.ar      1 RES1    0.0000
     20 H6         9.1432    7.7924    2.7998 H         1 RES1    0.0000
     21 C15        8.8237    9.6887    3.3642 C.ar      1 RES1    0.0000
     22 H7         9.3750    9.6621    4.1125 H         1 RES1    0.0000
     23 C16        8.1614   10.8493    3.0469 C.ar      1 RES1    0.0000
     24 H8         8.2741   11.5983    3.5863 H         1 RES1    0.0000
     25 C17        5.6650   12.5820    3.7972 C.ar      1 RES1    0.0000
     26 C18        5.9442   13.2765    4.9696 C.ar      1 RES1    0.0000
     27 C19        5.4013   12.9274    6.1924 C.ar      1 RES1    0.0000
     28 H9         5.6053   13.4144    6.9575 H         1 RES1    0.0000
     29 C20        4.5560   11.8482    6.2560 C.ar      1 RES1    0.0000
     30 H10        4.1671   11.6142    7.0673 H         1 RES1    0.0000
     31 C21        4.2820   11.1119    5.1307 C.ar      1 RES1    0.0000
     32 H11        3.7240   10.3692    5.1862 H         1 RES1    0.0000
     33 C22        4.8323   11.4725    3.9172 C.ar      1 RES1    0.0000
     34 H12        4.6422   10.9635    3.1622 H         1 RES1    0.0000
     35 O1         7.7842   12.1047   -0.5421 O.2       1 RES1    0.0000
     36 O2         5.0073   15.0870    2.8722 O.2       1 RES1    0.0000
     37 O3         5.3220   10.5069    0.0185 O.2       1 RES1    0.0000
     38 O4         6.4723    8.9018   -0.8393 O.2       1 RES1    0.0000
     39 O5         7.7320   14.4203    4.0626 O.2       1 RES1    0.0000
     40 O6         6.7828   15.2741    5.7932 O.2       1 RES1    0.0000
     41 N1         6.2621    9.7279    0.0353 N.pl3     1 RES1    0.0000
     42 N2         6.8763   14.4047    4.9408 N.pl3     1 RES1    0.0000
@<TRIPOS>BOND
     1    1    2 1
     2    2    3 2
     3    3    4 1
     4    4    5 1
     5    5    6 ar
     6    6    7 1
     7    8    6 ar
     8    9    8 1
     9   10    8 ar
    10   11   10 1
    11   12   10 ar
    12   13   12 1
    13   14    1 1
    14   15    2 1
    15   16   15 ar
    16   17   16 ar
    17   18   17 1
    18   19   17 ar
    19   20   19 1
    20   21   19 ar
    21   22   21 1
    22   23   15 ar
    23   24   23 1
    24   25    3 1
    25   26   25 ar
    26   27   26 ar
    27   28   27 1
    28   29   27 ar
    29   30   29 1
    30   31   29 ar
    31   32   31 1
    32   33   25 ar
    33   34   33 1
    34   35    1 2
    35   36    4 2
    36   37   41 2
    37   38   41 2
    38   39   42 2
    39   40   42 2
    40   41   16 1
    41   42   26 1
    42    5   14 ar
    43   12   14 ar
    44   21   23 ar
    45   31   33 ar
@<TRIPOS>SUBSTRUCTURE
     1 RES1 1

@<TRIPOS>CRYSIN
   8.3329   14.4599   15.3050  90.0000 100.7440  90.0000 231 1

