# MOL2 file generated by ConQuest
# Please check atom types

@<TRIPOS>MOLECULE
HOBSAU
    47    50     1
SMALL
NO_CHARGES
****
Generated from CSD

@<TRIPOS>ATOM
      1 C1         2.3056    9.6297    9.8965 C.2       1 RES1    0.0000
      2 C2         3.6389    9.4285    9.2445 C.2       1 RES1    0.0000
      3 C3         4.5696    9.3981   10.1996 C.2       1 RES1    0.0000
      4 C4         3.8780    9.5065   11.5339 C.2       1 RES1    0.0000
      5 C5         3.7922    9.3898    7.7820 C.ar      1 RES1    0.0000
      6 C6         3.0054    8.6011    6.9433 C.ar      1 RES1    0.0000
      7 C7         3.1324    8.6267    5.5701 C.ar      1 RES1    0.0000
      8 H1         2.5802    8.1014    5.0355 H         1 RES1    0.0000
      9 C8         4.0870    9.4399    4.9997 C.ar      1 RES1    0.0000
     10 H2         4.1940    9.4534    4.0753 H         1 RES1    0.0000
     11 C9         4.8796   10.2315    5.7952 C.ar      1 RES1    0.0000
     12 H3         5.5218   10.7812    5.4070 H         1 RES1    0.0000
     13 C10        4.7305   10.2172    7.1691 C.ar      1 RES1    0.0000
     14 H4         5.2648   10.7686    7.6930 H         1 RES1    0.0000
     15 C11        6.0112    9.1363   10.0586 C.ar      1 RES1    0.0000
     16 C12        7.0216    9.9060   10.6376 C.ar      1 RES1    0.0000
     17 C13        8.3558    9.5682   10.5367 C.ar      1 RES1    0.0000
     18 H5         9.0046   10.0821   10.9626 H         1 RES1    0.0000
     19 C14        8.7156    8.4664    9.8026 C.ar      1 RES1    0.0000
     20 H6         9.6115    8.2328    9.7248 H         1 RES1    0.0000
     21 C15        7.7514    7.7076    9.1802 C.ar      1 RES1    0.0000
     22 H7         8.0015    6.9786    8.6590 H         1 RES1    0.0000
     23 C16        6.4143    8.0230    9.3235 C.ar      1 RES1    0.0000
     24 H8         5.7711    7.4832    8.9230 H         1 RES1    0.0000
     25 C17        1.4675    9.8171   12.2527 C.3       1 RES1    0.0000
     26 H9         1.4302    8.9876   12.7539 H         1 RES1    0.0000
     27 H10        0.6223    9.9170   11.7879 H         1 RES1    0.0000
     28 C18        1.6179   10.9600   13.2283 C.ar      1 RES1    0.0000
     29 C19        0.9669   10.8653   14.4454 C.ar      1 RES1    0.0000
     30 H11        0.4793   10.1010   14.6527 H         1 RES1    0.0000
     31 C20        1.0396   11.9082   15.3581 C.ar      1 RES1    0.0000
     32 H12        0.5991   11.8378   16.1741 H         1 RES1    0.0000
     33 C21        1.7532   13.0383   15.0698 C.ar      1 RES1    0.0000
     34 H13        1.7955   13.7343   15.6852 H         1 RES1    0.0000
     35 C22        2.4074   13.1407   13.8678 C.ar      1 RES1    0.0000
     36 H14        2.8972   13.9057   13.6691 H         1 RES1    0.0000
     37 C23        2.3378   12.1080   12.9540 C.ar      1 RES1    0.0000
     38 H15        2.7831   12.1857   12.1399 H         1 RES1    0.0000
     39 O1         1.2339    9.7186    9.3503 O.2       1 RES1    0.0000
     40 O2         4.3641    9.4072   12.6264 O.2       1 RES1    0.0000
     41 O3         1.0361    7.4023    6.8971 O.2       1 RES1    0.0000
     42 O4         2.3713    7.0725    8.5560 O.2       1 RES1    0.0000
     43 O5         5.6099   11.6824   11.1064 O.2       1 RES1    0.0000
     44 O6         7.5531   11.6907   12.0042 O.2       1 RES1    0.0000
     45 N1         2.5340    9.7125   11.2575 N.am      1 RES1    0.0000
     46 N2         2.0630    7.6282    7.5051 N.pl3     1 RES1    0.0000
     47 N3         6.7002   11.1743   11.3006 N.pl3     1 RES1    0.0000
@<TRIPOS>BOND
     1    1    2 1
     2    2    3 2
     3    3    4 1
     4    4   40 2
     5    5    2 1
     6    6    5 ar
     7    7    6 ar
     8    8    7 1
     9    9    7 ar
    10   10    9 1
    11   11    9 ar
    12   12   11 1
    13   13    5 ar
    14   14   13 1
    15   15    3 1
    16   16   15 ar
    17   17   16 ar
    18   18   17 1
    19   19   17 ar
    20   20   19 1
    21   21   19 ar
    22   22   21 1
    23   23   15 ar
    24   24   23 1
    25   25   26 1
    26   27   25 1
    27   28   25 1
    28   29   28 ar
    29   30   29 1
    30   31   29 ar
    31   32   31 1
    32   33   31 ar
    33   34   33 1
    34   35   33 ar
    35   36   35 1
    36   37   28 ar
    37   38   37 1
    38   39    1 2
    39   41   46 2
    40   42   46 2
    41   43   47 2
    42   44   47 2
    43   45    1 1
    44   46    6 1
    45   47   16 1
    46    4   45 1
    47   11   13 ar
    48   21   23 ar
    49   25   45 1
    50   35   37 ar
@<TRIPOS>SUBSTRUCTURE
     1 RES1 1

@<TRIPOS>CRYSIN
  19.3273   10.5131   19.5552  90.0000  90.0000  90.0000  61 1

