# MOL2 file generated by ConQuest
# Please check atom types

@<TRIPOS>MOLECULE
HOBXEC
    44    46     1
SMALL
NO_CHARGES
****
Generated from CSD

@<TRIPOS>ATOM
      1 O1         6.7895    5.5832   -2.6582 O.2       1 RES1    0.0000
      2 O2         6.8504    7.7268   -2.8016 O.2       1 RES1    0.0000
      3 O3         7.4921    6.6574    8.2568 O.2       1 RES1    0.0000
      4 O4         7.8329    8.7507    8.5608 O.2       1 RES1    0.0000
      5 N1         6.2792    6.6811   -2.5480 N.pl3     1 RES1    0.0000
      6 N2         5.6280    5.8769   -0.0093 N.2       1 RES1    0.0000
      7 N3         5.2204    5.4915    1.1421 N.2       1 RES1    0.0000
      8 N4         6.2045    5.1149    1.9314 N.3       1 RES1    0.0000
      9 N5         8.1162    5.3890    3.8998 N.3       1 RES1    0.0000
     10 N6         9.1113    5.8278    4.6515 N.2       1 RES1    0.0000
     11 N7         8.7192    6.4312    5.7099 N.2       1 RES1    0.0000
     12 N8         8.1976    7.6477    8.1932 N.pl3     1 RES1    0.0000
     13 C1         4.8800    6.7539   -2.1051 C.ar      1 RES1    0.0000
     14 C2         3.9548    7.2897   -2.9879 C.ar      1 RES1    0.0000
     15 H1         4.2229    7.6182   -3.8262 H         1 RES1    0.0000
     16 C3         2.6277    7.3288   -2.6031 C.ar      1 RES1    0.0000
     17 H2         1.9771    7.6803   -3.1845 H         1 RES1    0.0000
     18 C4         2.2615    6.8476   -1.3584 C.ar      1 RES1    0.0000
     19 H3         1.3561    6.8589   -1.1078 H         1 RES1    0.0000
     20 C5         3.2031    6.3495   -0.4754 C.ar      1 RES1    0.0000
     21 H4         2.9321    6.0471    0.3726 H         1 RES1    0.0000
     22 C6         4.5552    6.2923   -0.8307 C.ar      1 RES1    0.0000
     23 C7         7.6025    5.2102    1.5312 C.3       1 RES1    0.0000
     24 H5         7.8304    6.1416    1.3288 H         1 RES1    0.0000
     25 H6         7.7581    4.6733    0.7267 H         1 RES1    0.0000
     26 C8         8.4687    4.6983    2.6738 C.3       1 RES1    0.0000
     27 H7         8.3328    3.7342    2.7864 H         1 RES1    0.0000
     28 H8         9.4137    4.8522    2.4677 H         1 RES1    0.0000
     29 C9         5.8631    4.7403    3.2984 C.3       1 RES1    0.0000
     30 H9         6.0139    3.7801    3.4225 H         1 RES1    0.0000
     31 H10        4.9136    4.9231    3.4607 H         1 RES1    0.0000
     32 C10        6.7100    5.5226    4.2920 C.3       1 RES1    0.0000
     33 H11        6.4484    6.4672    4.2866 H         1 RES1    0.0000
     34 H12        6.5785    5.1703    5.1975 H         1 RES1    0.0000
     35 C11        9.8257    6.8756    6.4835 C.ar      1 RES1    0.0000
     36 C12       11.1659    6.7858    6.0970 C.ar      1 RES1    0.0000
     37 H13       11.3849    6.3887    5.2740 H         1 RES1    0.0000
     38 C13       12.1725    7.2714    6.9056 C.ar      1 RES1    0.0000
     39 H14       13.0681    7.1785    6.6353 H         1 RES1    0.0000
     40 C14       11.8843    7.8933    8.1096 C.ar      1 RES1    0.0000
     41 H15       12.5787    8.2212    8.6512 H         1 RES1    0.0000
     42 C15       10.5752    8.0271    8.5062 C.ar      1 RES1    0.0000
     43 H16       10.3619    8.4651    9.3099 H         1 RES1    0.0000
     44 C16        9.5733    7.5046    7.7005 C.ar      1 RES1    0.0000
@<TRIPOS>BOND
     1    1    5 2
     2    2    5 2
     3    3   12 2
     4    4   12 2
     5    5   13 1
     6    6    7 2
     7    7    8 1
     8    8   23 1
     9    9   10 1
    10   10   11 2
    11   11   35 1
    12   12   44 1
    13   13   14 ar
    14   14   15 1
    15   16   14 ar
    16   17   16 1
    17   18   16 ar
    18   19   18 1
    19   20   18 ar
    20   21   20 1
    21   22    6 1
    22   23   24 1
    23   25   23 1
    24   26    9 1
    25   27   26 1
    26   28   26 1
    27   29    8 1
    28   30   29 1
    29   31   29 1
    30   32    9 1
    31   33   32 1
    32   34   32 1
    33   35   36 ar
    34   36   37 1
    35   38   36 ar
    36   39   38 1
    37   40   38 ar
    38   41   40 1
    39   42   40 ar
    40   43   42 1
    41   44   35 ar
    42   13   22 ar
    43   20   22 ar
    44   23   26 1
    45   29   32 1
    46   42   44 ar
@<TRIPOS>SUBSTRUCTURE
     1 RES1 1

@<TRIPOS>CRYSIN
   7.6066    8.3741   14.5073  78.6730  81.8770  73.4450   2 1

