# MOL2 file generated by ConQuest
# Please check atom types

@<TRIPOS>MOLECULE
HOBZEE
    21    20     1
SMALL
NO_CHARGES
****
Generated from CSD

@<TRIPOS>ATOM
      1 C1        -1.6895   -3.5353    6.4575 C.3       1 RES1    0.0000
      2 H1        -0.9842   -4.1839    6.6625 H         1 RES1    0.0000
      3 H2        -2.1854   -3.8312    5.6663 H         1 RES1    0.0000
      4 H3        -2.3021   -3.4654    7.2199 H         1 RES1    0.0000
      5 C2        -1.8564   -1.0486    5.8784 C.3       1 RES1    0.0000
      6 H4        -2.7904   -1.3161    5.6896 H         1 RES1    0.0000
      7 H5        -1.4883   -0.6341    5.0584 H         1 RES1    0.0000
      8 C3        -1.8546   -0.0154    7.0023 C.3       1 RES1    0.0000
      9 N1        -1.0869   -2.2257    6.1949 N.3       1 RES1    0.0000
     10 N2         0.2059   -2.2428    5.7312 N.pl3     1 RES1    0.0000
     11 N3        -2.3599   -0.5625    8.3379 N.pl3     1 RES1    0.0000
     12 N4        -2.7706    1.1689    6.6601 N.pl3     1 RES1    0.0000
     13 N5        -0.4691    0.5869    7.2192 N.pl3     1 RES1    0.0000
     14 O1         0.6983   -1.1689    5.3780 O.2       1 RES1    0.0000
     15 O2         0.8057   -3.3198    5.7326 O.2       1 RES1    0.0000
     16 O3        -3.1329   -1.4973    8.2570 O.2       1 RES1    0.0000
     17 O4        -2.0016    0.0016    9.3453 O.2       1 RES1    0.0000
     18 O5        -3.1708    1.2185    5.5116 O.2       1 RES1    0.0000
     19 O6        -2.9835    1.9680    7.5488 O.2       1 RES1    0.0000
     20 O7        -0.2205    1.5941    6.5834 O.2       1 RES1    0.0000
     21 O8         0.2864   -0.0431    7.9398 O.2       1 RES1    0.0000
@<TRIPOS>BOND
     1    1    2 1
     2    3    1 1
     3    4    1 1
     4    5    6 1
     5    7    5 1
     6    8    5 1
     7    9    1 1
     8   10    9 1
     9   11    8 1
    10   12    8 1
    11   13    8 1
    12   14   10 2
    13   15   10 2
    14   16   11 2
    15   17   11 2
    16   18   12 2
    17   19   12 2
    18   20   13 2
    19   21   13 2
    20    5    9 1
@<TRIPOS>SUBSTRUCTURE
     1 RES1 1

@<TRIPOS>CRYSIN
   5.8340    8.1289   17.9824  90.0000  90.0000  90.0000  19 1

