# MOL2 file generated by ConQuest
# Please check atom types

@<TRIPOS>MOLECULE
HOCNAP
    58    59     1
SMALL
NO_CHARGES
****
Generated from CSD

@<TRIPOS>ATOM
      1 O1         4.4487    2.9667    4.5535 O.3       1 RES1    0.0000
      2 O2         2.9450    2.0501    5.9670 O.2       1 RES1    0.0000
      3 O3         1.9374   -0.6382   -0.6808 O.2       1 RES1    0.0000
      4 O4         0.3959   -1.4557    0.5806 O.2       1 RES1    0.0000
      5 O5         8.8803   -0.1835    8.7080 O.2       1 RES1    0.0000
      6 O6         7.8156    0.6588   10.3986 O.2       1 RES1    0.0000
      7 O7         6.2074    5.9755    7.1366 O.2       1 RES1    0.0000
      8 O8         4.0335    6.5644    7.3191 O.3       1 RES1    0.0000
      9 O9         5.3473    7.8052    4.6975 O.2       1 RES1    0.0000
     10 O10        5.8845    7.6458    2.5192 O.3       1 RES1    0.0000
     11 N1         1.3855   -0.7506    0.4065 N.pl3     1 RES1    0.0000
     12 N2         8.0436    0.5753    9.1945 N.pl3     1 RES1    0.0000
     13 C1         3.4136    2.1270    4.8602 C.2       1 RES1    0.0000
     14 C2         2.9212    1.4020    3.6729 C.ar      1 RES1    0.0000
     15 C3         3.4167    1.6426    2.3911 C.ar      1 RES1    0.0000
     16 H1         4.0871    2.2733    2.2603 H         1 RES1    0.0000
     17 C4         2.9100    0.9416    1.3199 C.ar      1 RES1    0.0000
     18 H2         3.2292    1.0953    0.4602 H         1 RES1    0.0000
     19 C5         1.9133    0.0025    1.5459 C.ar      1 RES1    0.0000
     20 C6         1.4146   -0.2604    2.8046 C.ar      1 RES1    0.0000
     21 H3         0.7514   -0.9002    2.9314 H         1 RES1    0.0000
     22 C7         1.9227    0.4464    3.8684 C.ar      1 RES1    0.0000
     23 H4         1.5985    0.2868    4.7247 H         1 RES1    0.0000
     24 C8         4.9175    3.7332    5.6374 C.2       1 RES1    0.0000
     25 C9         5.7681    2.9809    6.5814 C.ar      1 RES1    0.0000
     26 C10        6.8092    2.1931    6.0890 C.ar      1 RES1    0.0000
     27 H5         6.9918    2.1906    5.1781 H         1 RES1    0.0000
     28 C11        7.5713    1.4177    6.9414 C.ar      1 RES1    0.0000
     29 H6         8.2717    0.8986    6.6154 H         1 RES1    0.0000
     30 C12        7.2678    1.4334    8.2861 C.ar      1 RES1    0.0000
     31 C13        6.2488    2.2113    8.8100 C.ar      1 RES1    0.0000
     32 H7         6.0698    2.2088    9.7236 H         1 RES1    0.0000
     33 C14        5.5077    2.9883    7.9490 C.ar      1 RES1    0.0000
     34 H8         4.8256    3.5248    8.2840 H         1 RES1    0.0000
     35 C15        4.5538    5.0178    5.6657 C.2       1 RES1    0.0000
     36 C16        5.0605    5.8948    6.7676 C.2       1 RES1    0.0000
     37 C17        4.3729    7.5192    8.3466 C.3       1 RES1    0.0000
     38 H9         4.8775    8.2549    7.9666 H         1 RES1    0.0000
     39 H10        4.9126    7.0960    9.0322 H         1 RES1    0.0000
     40 C18        3.0867    8.0185    8.9313 C.3       1 RES1    0.0000
     41 H11        2.5630    8.4343    8.2432 H         1 RES1    0.0000
     42 H12        3.2757    8.6583    9.6216 H         1 RES1    0.0000
     43 H13        2.5981    7.2811    9.3042 H         1 RES1    0.0000
     44 C19        3.6046    5.6163    4.6449 C.3       1 RES1    0.0000
     45 H14        2.9498    4.9475    4.3914 H         1 RES1    0.0000
     46 H15        3.1296    6.3578    5.0511 H         1 RES1    0.0000
     47 C20        4.3139    6.1040    3.4050 C.2       1 RES1    0.0000
     48 C21        4.1341    5.5774    2.2059 C.2       1 RES1    0.0000
     49 H16        4.5841    5.9271    1.4714 H         1 RES1    0.0000
     50 H17        3.5568    4.8557    2.0971 H         1 RES1    0.0000
     51 C22        5.2305    7.2621    3.6274 C.2       1 RES1    0.0000
     52 C23        6.7724    8.7889    2.6870 C.3       1 RES1    0.0000
     53 H18        7.5247    8.5500    3.2510 H         1 RES1    0.0000
     54 H19        6.2975    9.5255    3.1014 H         1 RES1    0.0000
     55 C24        7.2523    9.1841    1.3215 C.3       1 RES1    0.0000
     56 H20        7.6482    8.4244    0.8887 H         1 RES1    0.0000
     57 H21        7.9066    9.8826    1.4011 H         1 RES1    0.0000
     58 H22        6.5109    9.4999    0.8003 H         1 RES1    0.0000
@<TRIPOS>BOND
     1    1   13 1
     2    2   13 2
     3    3   11 2
     4    4   11 2
     5    5   12 2
     6    6   12 2
     7    7   36 2
     8    8   36 1
     9    9   51 2
    10   10   51 1
    11   11   19 1
    12   12   30 1
    13   13   14 1
    14   14   15 ar
    15   15   16 1
    16   17   15 ar
    17   18   17 1
    18   19   17 ar
    19   20   19 ar
    20   21   20 1
    21   22   14 ar
    22   23   22 1
    23   24    1 1
    24   25   24 1
    25   26   25 ar
    26   27   26 1
    27   28   26 ar
    28   29   28 1
    29   30   28 ar
    30   31   30 ar
    31   32   31 1
    32   33   25 ar
    33   34   33 1
    34   35   24 2
    35   36   35 1
    36   37    8 1
    37   38   37 1
    38   39   37 1
    39   40   37 1
    40   41   40 1
    41   42   40 1
    42   43   40 1
    43   44   35 1
    44   45   44 1
    45   46   44 1
    46   47   44 1
    47   48   47 2
    48   49   48 1
    49   50   48 1
    50   51   47 1
    51   52   10 1
    52   53   52 1
    53   54   52 1
    54   55   52 1
    55   56   55 1
    56   57   55 1
    57   58   55 1
    58   20   22 ar
    59   31   33 ar
@<TRIPOS>SUBSTRUCTURE
     1 RES1 1

@<TRIPOS>CRYSIN
  12.5130    8.2665   23.4830  90.0000 105.1100  90.0000 231 1

