# MOL2 file generated by ConQuest
# Please check atom types

@<TRIPOS>MOLECULE
HOCWAX
    24    18     2
SMALL
NO_CHARGES
****
Generated from CSD

@<TRIPOS>ATOM
      1 N1         2.7764   13.9977    0.2657 N.ar      1 RES1    0.0000
      2 C1         2.3787   15.0555    0.9314 C.ar      1 RES1    0.0000
      3 N2         1.7826   16.1561    0.5513 N.ar      1 RES1    0.0000
      4 C2         1.5400   16.2176   -0.7786 C.ar      1 RES1    0.0000
      5 C3         1.8996   15.1684   -1.5894 C.ar      1 RES1    0.0000
      6 C4         2.5146   14.0515   -1.0566 C.ar      1 RES1    0.0000
      7 C5         0.9039   17.4653   -1.2884 C.3       1 RES1    0.0000
      8 H1         0.7367   18.0621   -0.5552 H         1 RES1    0.0000
      9 H2         0.0739   17.2482   -1.7200 H         1 RES1    0.0000
     10 H3         1.4908   17.8892   -1.9188 H         1 RES1    0.0000
     11 H4         0.7977   17.4043   -2.2406 Du        2 SUP2    0.0000
     12 H5         1.4606   18.2182   -1.0765 Du        2 SUP2    0.0000
     13 H6         0.0436   17.5772   -0.8769 Du        2 SUP2    0.0000
     14 C6         2.9137   12.8697   -1.8728 C.3       1 RES1    0.0000
     15 H7         3.3219   12.2116   -1.3053 H         1 RES1    0.0000
     16 H8         3.5402   13.1432   -2.5469 H         1 RES1    0.0000
     17 H9         2.1365   12.4929   -2.2920 H         1 RES1    0.0000
     18 H10        2.6774   13.0202   -2.7911 Du        2 SUP2    0.0000
     19 H11        2.4591   12.0885   -1.5495 Du        2 SUP2    0.0000
     20 H12        3.8624   12.7389   -1.8044 Du        2 SUP2    0.0000
     21 N3         2.6611   14.9834    2.4080 N.pl3     1 RES1    0.0000
     22 O1         3.3759   14.0983    2.8042 O.2       1 RES1    0.0000
     23 O2         2.1666   15.8186    3.1267 O.2       1 RES1    0.0000
     24 H13        1.7233   15.1836   -2.4540 H         1 RES1    0.0000
@<TRIPOS>BOND
     1    1    2 ar
     2    2    3 ar
     3    3    4 ar
     4    4    5 ar
     5    5    6 ar
     6    6    1 ar
     7    7    4 1
     8    8    7 1
     9    9    7 1
    10   10    7 1
    11   14    6 1
    12   15   14 1
    13   16   14 1
    14   17   14 1
    15   21    2 1
    16   22   21 2
    17   23   21 2
    18   24    5 1
@<TRIPOS>SUBSTRUCTURE
     1 RES1 1
     2 SUP2 11

@<TRIPOS>CRYSIN
   3.9230   24.1240    7.8380  90.0000 101.5800  90.0000  14 1

