# MOL2 file generated by ConQuest
# Please check atom types

@<TRIPOS>MOLECULE
HODWAZ
    40    41     1
SMALL
NO_CHARGES
****
Generated from CSD

@<TRIPOS>ATOM
      1 O1        -1.1957    3.3238    2.1110 O.2       1 RES1    0.0000
      2 O2        -1.2435    5.4907    2.2859 O.2       1 RES1    0.0000
      3 O3         2.5407    7.4433    1.4591 O.3       1 RES1    0.0000
      4 N1         1.2116    3.2308    3.3358 N.2       1 RES1    0.0000
      5 N2         1.3403    5.4708    3.3270 N.3       1 RES1    0.0000
      6 N3        -0.6941    4.3936    2.4371 N.pl3     1 RES1    0.0000
      7 C1         0.6106    4.3600    3.0273 C.2       1 RES1    0.0000
      8 C2         2.4038    3.6248    3.8636 C.2       1 RES1    0.0000
      9 C3         2.5028    4.9955    3.8591 C.2       1 RES1    0.0000
     10 C4         1.0255    6.8961    3.1868 C.3       1 RES1    0.0000
     11 C5         1.1528    7.3917    1.7601 C.3       1 RES1    0.0000
     12 C6         2.7758    7.7795    0.0950 C.3       1 RES1    0.0000
     13 H1         3.0670    2.9928    4.1952 H         1 RES1    0.0000
     14 H2         3.1875    5.5992    4.1583 H         1 RES1    0.0000
     15 H3         1.6738    7.3643    3.7482 H         1 RES1    0.0000
     16 H4         0.1512    7.0169    3.5206 H         1 RES1    0.0000
     17 H5         0.7713    8.2866    1.6855 H         1 RES1    0.0000
     18 H6         0.6897    6.8159    1.1398 H         1 RES1    0.0000
     19 H7         2.3508    7.1181   -0.4893 H         1 RES1    0.0000
     20 H8         2.4125    8.6465   -0.0933 H         1 RES1    0.0000
     21 O1B        8.2491   12.2554   -2.1110 O.2       1 RES1    0.0000
     22 O2B        8.2969   10.0885   -2.2859 O.2       1 RES1    0.0000
     23 O3B        4.5127    8.1359   -1.4591 O.3       1 RES1    0.0000
     24 N1B        5.8418   12.3484   -3.3358 N.2       1 RES1    0.0000
     25 N2B        5.7131   10.1084   -3.3270 N.3       1 RES1    0.0000
     26 N3B        7.7475   11.1856   -2.4371 N.pl3     1 RES1    0.0000
     27 C1B        6.4428   11.2192   -3.0273 C.2       1 RES1    0.0000
     28 C2B        4.6496   11.9544   -3.8636 C.2       1 RES1    0.0000
     29 C3B        4.5506   10.5837   -3.8591 C.2       1 RES1    0.0000
     30 C4B        6.0279    8.6831   -3.1868 C.3       1 RES1    0.0000
     31 C5B        5.9006    8.1875   -1.7601 C.3       1 RES1    0.0000
     32 C6B        4.2776    7.7997   -0.0950 C.3       1 RES1    0.0000
     33 H1B        3.9864   12.5864   -4.1952 H         1 RES1    0.0000
     34 H2B        3.8659    9.9800   -4.1583 H         1 RES1    0.0000
     35 H3B        5.3796    8.2149   -3.7482 H         1 RES1    0.0000
     36 H4B        6.9022    8.5623   -3.5206 H         1 RES1    0.0000
     37 H5B        6.2821    7.2926   -1.6855 H         1 RES1    0.0000
     38 H6B        6.3637    8.7633   -1.1398 H         1 RES1    0.0000
     39 H7B        4.7026    8.4611    0.4893 H         1 RES1    0.0000
     40 H8B        4.6409    6.9327    0.0933 H         1 RES1    0.0000
@<TRIPOS>BOND
     1    1    6 2
     2    2    6 2
     3    3   11 1
     4    4    7 2
     5    5    7 1
     6    6    7 1
     7    8    4 1
     8    9    5 1
     9   10    5 1
    10   11   10 1
    11   12    3 1
    12   13    8 1
    13   14    9 1
    14   15   10 1
    15   16   10 1
    16   17   11 1
    17   18   11 1
    18   19   12 1
    19   20   12 1
    20   21   26 2
    21   22   26 2
    22   23   31 1
    23   24   27 2
    24   25   27 1
    25   26   27 1
    26   28   24 1
    27   29   25 1
    28   30   25 1
    29   31   30 1
    30   32   12 1
    31   33   28 1
    32   34   29 1
    33   35   30 1
    34   36   30 1
    35   37   31 1
    36   38   31 1
    37   39   32 1
    38   40   32 1
    39    8    9 2
    40   23   32 1
    41   28   29 2
@<TRIPOS>SUBSTRUCTURE
     1 RES1 1

@<TRIPOS>CRYSIN
   7.0534   15.5792    6.8069  90.0000  99.5600  90.0000  14 1

