# MOL2 file generated by ConQuest
# Please check atom types

@<TRIPOS>MOLECULE
HODYUW
    41    42     1
SMALL
NO_CHARGES
****
Generated from CSD

@<TRIPOS>ATOM
      1 O1        -2.1846    2.3063    3.9050 O.2       1 RES1    0.0000
      2 N1         2.3212    4.2553    0.1235 N.pl3     1 RES1    0.0000
      3 O2         3.0425    4.5022   -0.8216 O.2       1 RES1    0.0000
      4 O3         2.7133   -0.0076    0.2450 O.3       1 RES1    0.0000
      5 C1         0.9463    3.7541   -0.1693 C.3       1 RES1    0.0000
      6 H1         0.6529    4.1081   -1.0228 H         1 RES1    0.0000
      7 H2         0.3370    4.0777    0.5129 H         1 RES1    0.0000
      8 O4        -0.9465    3.9205    4.7913 O.3       1 RES1    0.0000
      9 O5         2.6229    4.4108    1.2937 O.2       1 RES1    0.0000
     10 C2         1.1758    1.6024    1.1841 C.3       1 RES1    0.0000
     11 H3         1.9568    2.0555    1.5656 H         1 RES1    0.0000
     12 C3         2.6754    0.5970   -0.9879 C.ar      1 RES1    0.0000
     13 C4         1.7907    1.6265   -1.2797 C.ar      1 RES1    0.0000
     14 C5         1.5097    0.1203    1.0278 C.3       1 RES1    0.0000
     15 H4         0.7728   -0.3324    0.5667 H         1 RES1    0.0000
     16 C6         0.8882    2.2176   -0.2111 C.3       1 RES1    0.0000
     17 H5        -0.0309    1.9731   -0.4472 H         1 RES1    0.0000
     18 C7         0.0098    1.8280    2.0944 C.2       1 RES1    0.0000
     19 H6        -0.7584    1.3225    1.9560 H         1 RES1    0.0000
     20 C8         1.7800    2.1106   -2.5864 C.ar      1 RES1    0.0000
     21 H7         1.1641    2.7690   -2.8164 H         1 RES1    0.0000
     22 C9         3.5838    0.1450   -1.9440 C.ar      1 RES1    0.0000
     23 H8         4.2038   -0.5142   -1.7279 H         1 RES1    0.0000
     24 C10       -1.1687    2.9209    3.9398 C.2       1 RES1    0.0000
     25 C11        0.0094    2.7057    3.0833 C.2       1 RES1    0.0000
     26 H9         0.7787    3.2035    3.2427 H         1 RES1    0.0000
     27 C12        1.7815   -0.5732    2.3444 C.3       1 RES1    0.0000
     28 H10        1.9739   -1.5005    2.1840 H         1 RES1    0.0000
     29 H11        1.0089   -0.5003    2.9101 H         1 RES1    0.0000
     30 H12        2.5332   -0.1601    2.7746 H         1 RES1    0.0000
     31 C13        2.6496    1.6477   -3.5464 C.ar      1 RES1    0.0000
     32 H13        2.6232    1.9861   -4.4129 H         1 RES1    0.0000
     33 C14        3.5543    0.6802   -3.2019 C.ar      1 RES1    0.0000
     34 H14        4.1629    0.3801   -3.8382 H         1 RES1    0.0000
     35 C15       -1.9990    4.2084    5.7484 C.3       1 RES1    0.0000
     36 H15       -2.5013    3.4011    5.9406 H         1 RES1    0.0000
     37 H16       -1.6132    4.5317    6.5770 H         1 RES1    0.0000
     38 C16       -2.8595    5.1948    5.1957 C.3       1 RES1    0.0000
     39 H17       -3.5439    5.4155    5.8321 H         1 RES1    0.0000
     40 H18       -3.2648    4.8545    4.3950 H         1 RES1    0.0000
     41 H19       -2.3516    5.9823    4.9875 H         1 RES1    0.0000
@<TRIPOS>BOND
     1    1   24 2
     2    2    3 2
     3    4   12 1
     4    5    2 1
     5    6    5 1
     6    7    5 1
     7    8   24 1
     8    9    2 2
     9   10   11 1
    10   12   13 ar
    11   13   16 1
    12   14    4 1
    13   15   14 1
    14   16    5 1
    15   17   16 1
    16   18   10 1
    17   19   18 1
    18   20   13 ar
    19   21   20 1
    20   22   12 ar
    21   23   22 1
    22   24   25 1
    23   25   18 2
    24   26   25 1
    25   27   14 1
    26   28   27 1
    27   29   27 1
    28   30   27 1
    29   31   20 ar
    30   32   31 1
    31   33   22 ar
    32   34   33 1
    33   35    8 1
    34   36   35 1
    35   37   35 1
    36   38   35 1
    37   39   38 1
    38   40   38 1
    39   41   38 1
    40   10   14 1
    41   10   16 1
    42   31   33 ar
@<TRIPOS>SUBSTRUCTURE
     1 RES1 1

@<TRIPOS>CRYSIN
   5.3921    7.6565   10.0778  90.5280  98.2890 106.1230   1 1

