# MOL2 file generated by ConQuest
# Please check atom types

@<TRIPOS>MOLECULE
HOFBIO
    24    24     1
SMALL
NO_CHARGES
****
Generated from CSD

@<TRIPOS>ATOM
      1 O1         0.7375    1.6841    2.3593 O.3       1 RES1    0.0000
      2 O2         1.4195    2.3892    4.3492 O.2       1 RES1    0.0000
      3 O3         3.8004    8.3127   -2.9030 O.2       1 RES1    0.0000
      4 O4         2.8239    9.6109   -1.4977 O.2       1 RES1    0.0000
      5 N1         3.1288    8.5025   -1.9019 N.pl3     1 RES1    0.0000
      6 C1         1.3076    2.5565    3.1357 C.2       1 RES1    0.0000
      7 C2         1.8116    3.7993    2.4911 C.2       1 RES1    0.0000
      8 C3         1.5936    3.9677    1.1821 C.2       1 RES1    0.0000
      9 C4         1.9551    5.1540    0.3799 C.ar      1 RES1    0.0000
     10 C5         2.5236    4.9803   -0.8823 C.ar      1 RES1    0.0000
     11 C6         2.9081    6.0724   -1.6391 C.ar      1 RES1    0.0000
     12 C7         2.6886    7.3327   -1.1285 C.ar      1 RES1    0.0000
     13 C8         2.0709    7.5450    0.0825 C.ar      1 RES1    0.0000
     14 C9         1.7085    6.4416    0.8380 C.ar      1 RES1    0.0000
     15 C10        2.5645    4.7266    3.3925 C.3       1 RES1    0.0000
     16 H1         0.3940    0.9694    2.8434 H         1 RES1    0.0000
     17 H2         1.1734    3.2698    0.7334 H         1 RES1    0.0000
     18 H3         2.6451    4.1217   -1.2181 H         1 RES1    0.0000
     19 H4         3.3051    5.9585   -2.4724 H         1 RES1    0.0000
     20 H5         1.9002    8.4073    0.3861 H         1 RES1    0.0000
     21 H6         1.2954    6.5647    1.6620 H         1 RES1    0.0000
     22 H7         3.1970    4.2248    3.9115 H         1 RES1    0.0000
     23 H8         1.9488    5.1709    3.9804 H         1 RES1    0.0000
     24 H9         3.0295    5.3791    2.8640 H         1 RES1    0.0000
@<TRIPOS>BOND
     1    1    6 1
     2    2    6 2
     3    3    5 2
     4    4    5 2
     5    5   12 1
     6    6    7 1
     7    7    8 2
     8    8    9 1
     9    9   10 ar
    10   10   11 ar
    11   11   12 ar
    12   12   13 ar
    13   13   14 ar
    14   14    9 ar
    15   15    7 1
    16   16    1 1
    17   17    8 1
    18   18   10 1
    19   19   11 1
    20   20   13 1
    21   21   14 1
    22   22   15 1
    23   23   15 1
    24   24   15 1
@<TRIPOS>SUBSTRUCTURE
     1 RES1 1

@<TRIPOS>CRYSIN
   7.3878    8.1050    8.3402  75.7930  81.8350  87.6860   2 1

