# MOL2 file generated by ConQuest
# Please check atom types

@<TRIPOS>MOLECULE
HOFCOV
    56    57     1
SMALL
NO_CHARGES
****
Generated from CSD

@<TRIPOS>ATOM
      1 N1         1.5194    3.5388   13.4781 N.2       1 RES1    0.0000
      2 O1         2.0633    4.2809   14.5435 O.3       1 RES1    0.0000
      3 O2        -0.4089    2.7349   12.0167 O.3       1 RES1    0.0000
      4 H1        -0.0572    3.1663   12.6204 H         1 RES1    0.0000
      5 C1         1.0222    5.0500   15.1479 C.3       1 RES1    0.0000
      6 H2         0.5301    5.5167   14.4545 H         1 RES1    0.0000
      7 H3         1.4187    5.7169   15.7295 H         1 RES1    0.0000
      8 C2         0.0542    4.2001   15.9552 C.3       1 RES1    0.0000
      9 H4        -0.4177    3.5982   15.3579 H         1 RES1    0.0000
     10 H5         0.5528    3.6619   16.5886 H         1 RES1    0.0000
     11 C3        -0.9516    5.0500   16.7045 C.3       1 RES1    0.0000
     12 H6        -0.4847    5.5752   17.3727 H         1 RES1    0.0000
     13 H7        -1.3679    5.6667   16.0806 H         1 RES1    0.0000
     14 C4         3.8142    2.7057   13.2917 C.3       1 RES1    0.0000
     15 H8         4.1243    3.5713   13.5681 H         1 RES1    0.0000
     16 H9         4.3432    2.3964   12.5522 H         1 RES1    0.0000
     17 H10        3.8947    2.0889   14.0215 H         1 RES1    0.0000
     18 C5         2.3722    2.8009   12.8720 C.2       1 RES1    0.0000
     19 C6         1.8714    2.0030   11.7589 C.ar      1 RES1    0.0000
     20 C7         0.5309    1.9970   11.3833 C.ar      1 RES1    0.0000
     21 C8         0.0966    1.1954   10.3414 C.ar      1 RES1    0.0000
     22 H11       -0.8037    1.1954   10.1079 H         1 RES1    0.0000
     23 C9         0.9726    0.4040    9.6501 C.ar      1 RES1    0.0000
     24 H12        0.6682   -0.1314    8.9522 H         1 RES1    0.0000
     25 C10        2.3056    0.4040    9.9920 C.ar      1 RES1    0.0000
     26 H13        2.9070   -0.1291    9.5250 H         1 RES1    0.0000
     27 C11        2.7373    1.1898   11.0185 C.ar      1 RES1    0.0000
     28 H14        3.6416    1.1856   11.2363 H         1 RES1    0.0000
     29 N1D       -4.5020    5.7494   20.6126 N.2       1 RES1    0.0000
     30 O1D       -5.0459    5.0073   19.5473 O.3       1 RES1    0.0000
     31 O2D       -2.5737    6.5533   22.0741 O.3       1 RES1    0.0000
     32 H1D       -2.9253    6.1219   21.4704 H         1 RES1    0.0000
     33 C1D       -4.0047    4.2382   18.9429 C.3       1 RES1    0.0000
     34 H2D       -3.5127    3.7715   19.6363 H         1 RES1    0.0000
     35 H3D       -4.4012    3.5713   18.3613 H         1 RES1    0.0000
     36 C2D       -3.0367    5.0881   18.1356 C.3       1 RES1    0.0000
     37 H4D       -2.5649    5.6900   18.7329 H         1 RES1    0.0000
     38 H5D       -3.5353    5.6263   17.5022 H         1 RES1    0.0000
     39 C3D       -2.0309    4.2382   17.3863 C.3       1 RES1    0.0000
     40 H6D       -2.4979    3.7130   16.7181 H         1 RES1    0.0000
     41 H7D       -1.6147    3.6215   18.0102 H         1 RES1    0.0000
     42 C4D       -6.7968    6.5825   20.7991 C.3       1 RES1    0.0000
     43 H8D       -7.1068    5.7169   20.5226 H         1 RES1    0.0000
     44 H9D       -7.3258    6.8918   21.5386 H         1 RES1    0.0000
     45 H10D      -6.8773    7.1993   20.0692 H         1 RES1    0.0000
     46 C5D       -5.3548    6.4873   21.2188 C.2       1 RES1    0.0000
     47 C6D       -4.8539    7.2852   22.3318 C.ar      1 RES1    0.0000
     48 C7D       -3.5135    7.2912   22.7075 C.ar      1 RES1    0.0000
     49 C8D       -3.0792    8.0928   23.7493 C.ar      1 RES1    0.0000
     50 H11D      -2.1789    8.0928   23.9829 H         1 RES1    0.0000
     51 C9D       -3.9551    8.8842   24.4407 C.ar      1 RES1    0.0000
     52 H12D      -3.6507    9.4196   25.1385 H         1 RES1    0.0000
     53 C10D      -5.2881    8.8842   24.0988 C.ar      1 RES1    0.0000
     54 H13D      -5.8895    9.4173   24.5658 H         1 RES1    0.0000
     55 C11D      -5.7198    8.0984   23.0723 C.ar      1 RES1    0.0000
     56 H14D      -6.6242    8.1026   22.8545 H         1 RES1    0.0000
@<TRIPOS>BOND
     1    1    2 1
     2    2    5 1
     3    3    4 1
     4    5    6 1
     5    7    5 1
     6    8    5 1
     7    9    8 1
     8   10    8 1
     9   11    8 1
    10   12   11 1
    11   13   11 1
    12   14   15 1
    13   16   14 1
    14   17   14 1
    15   18    1 2
    16   19   18 1
    17   20    3 1
    18   21   20 ar
    19   22   21 1
    20   23   21 ar
    21   24   23 1
    22   25   23 ar
    23   26   25 1
    24   27   19 ar
    25   28   27 1
    26   29   30 1
    27   30   33 1
    28   31   32 1
    29   33   34 1
    30   35   33 1
    31   36   33 1
    32   37   36 1
    33   38   36 1
    34   39   11 1
    35   40   39 1
    36   41   39 1
    37   42   43 1
    38   44   42 1
    39   45   42 1
    40   46   29 2
    41   47   46 1
    42   48   31 1
    43   49   48 ar
    44   50   49 1
    45   51   49 ar
    46   52   51 1
    47   53   51 ar
    48   54   53 1
    49   55   47 ar
    50   56   55 1
    51   14   18 1
    52   19   20 ar
    53   25   27 ar
    54   36   39 1
    55   42   46 1
    56   47   48 ar
    57   53   55 ar
@<TRIPOS>SUBSTRUCTURE
     1 RES1 1

@<TRIPOS>CRYSIN
  13.0052    4.6441   34.2210  90.0000  95.0000  90.0000  15 1

