# MOL2 file generated by ConQuest
# Please check atom types

@<TRIPOS>MOLECULE
HOFDOV01
    19    19     1
SMALL
USER_CHARGES
****
Generated from CSD

@<TRIPOS>ATOM
      1 O1         4.8016    1.4722    8.3509 O.2       1 RES1   -1.0000
      2 N1         3.6160    1.6191    8.8577 N.pl3     1 RES1    1.0000
      3 C1         3.4612    2.0795   10.1166 C.ar      1 RES1    0.0000
      4 C2         2.2212    2.2208   10.6672 C.ar      1 RES1    0.0000
      5 C3         1.0997    1.8956    9.9211 C.ar      1 RES1    0.0000
      6 C4         1.2656    1.4297    8.6357 C.ar      1 RES1    0.0000
      7 C5         2.5223    1.2897    8.1246 C.ar      1 RES1    0.0000
      8 N2        -0.1984    2.1282   10.4757 N.3       1 RES1    0.0000
      9 N3        -1.0372    1.0745   10.5711 N.pl3     1 RES1    0.0000
     10 O2        -0.5652   -0.0543   10.4195 O.2       1 RES1    0.0000
     11 O3        -2.2005    1.3141   10.8677 O.2       1 RES1    0.0000
     12 C6        -0.7706    3.4729   10.5035 C.3       1 RES1    0.0000
     13 H1         2.7557    1.0307    7.2399 H         1 RES1    0.0000
     14 H2         2.1178    2.5488   11.5710 H         1 RES1    0.0000
     15 H3         0.4848    1.1839    8.0731 H         1 RES1    0.0000
     16 H4         4.2229    2.2563   10.5147 H         1 RES1    0.0000
     17 H5        -1.3268    3.6282    9.5515 H         1 RES1    0.0000
     18 H6        -1.1227    3.6561   11.4939 H         1 RES1    0.0000
     19 H7        -0.0765    3.9695   10.4505 H         1 RES1    0.0000
@<TRIPOS>BOND
     1    1    2 1
     2    2    3 ar
     3    3    4 ar
     4    4    5 ar
     5    5    6 ar
     6    6    7 ar
     7    7    2 ar
     8    8    5 1
     9    9    8 1
    10   10    9 2
    11   11    9 2
    12   12    8 1
    13   13    7 1
    14   14    4 1
    15   15    6 1
    16   16    3 1
    17   17   12 1
    18   18   12 1
    19   19   12 1
@<TRIPOS>SUBSTRUCTURE
     1 RES1 1

@<TRIPOS>CRYSIN
  12.7580    6.9640   16.0530  90.0000  90.0000  90.0000  61 1

