# MOL2 file generated by ConQuest
# Please check atom types

@<TRIPOS>MOLECULE
HOFFOX
    35    36     1
SMALL
NO_CHARGES
****
Generated from CSD

@<TRIPOS>ATOM
      1 O1         1.8338   -4.2829   -0.3981 O.2       1 RES1    0.0000
      2 O2        -1.2208   -1.0827   -1.1373 O.2       1 RES1    0.0000
      3 O3         0.9547   -4.1657   -3.1986 O.2       1 RES1    0.0000
      4 O4         1.7991   -6.1560   -2.9580 O.2       1 RES1    0.0000
      5 O5         5.7544   -6.0882   -5.8428 O.2       1 RES1    0.0000
      6 O6         7.3228   -4.6790   -5.3822 O.2       1 RES1    0.0000
      7 N1         0.3873   -2.5886   -0.7036 N.am      1 RES1    0.0000
      8 N2         1.9002   -4.9369   -3.0763 N.pl3     1 RES1    0.0000
      9 N3         6.2104   -5.1502   -5.2063 N.pl3     1 RES1    0.0000
     10 C1         1.6211   -3.1718   -0.8535 C.2       1 RES1    0.0000
     11 C2         2.7182   -2.3601   -1.5377 C.3       1 RES1    0.0000
     12 C3         3.4690   -1.6382   -0.3847 C.3       1 RES1    0.0000
     13 C4         4.2389   -2.5121    0.5905 C.3       1 RES1    0.0000
     14 C5         2.1023   -1.2992   -2.4881 C.3       1 RES1    0.0000
     15 C6         0.9987   -0.5033   -1.8180 C.3       1 RES1    0.0000
     16 C7        -0.0484   -1.3892   -1.2168 C.2       1 RES1    0.0000
     17 C8         3.6384   -3.2400   -2.3888 C.ar      1 RES1    0.0000
     18 C9         3.2614   -4.3731   -3.1197 C.ar      1 RES1    0.0000
     19 C10        4.0967   -5.0438   -3.9867 C.ar      1 RES1    0.0000
     20 C11        5.3635   -4.5475   -4.1719 C.ar      1 RES1    0.0000
     21 C12        5.8269   -3.4796   -3.4347 C.ar      1 RES1    0.0000
     22 C13        4.9691   -2.8498   -2.5588 C.ar      1 RES1    0.0000
     23 H1        -0.1826   -3.0262   -0.2317 H         1 RES1    0.0000
     24 H2         4.0920   -1.0085   -0.7793 H         1 RES1    0.0000
     25 H3         2.8211   -1.1234    0.1208 H         1 RES1    0.0000
     26 H4         4.6581   -1.9590    1.2534 H         1 RES1    0.0000
     27 H5         4.9099   -3.0077    0.1154 H         1 RES1    0.0000
     28 H6         3.6344   -3.1222    1.0181 H         1 RES1    0.0000
     29 H7         2.7989   -0.6918   -2.7824 H         1 RES1    0.0000
     30 H8         1.7437   -1.7441   -3.2718 H         1 RES1    0.0000
     31 H9         1.3843    0.0530   -1.1228 H         1 RES1    0.0000
     32 H10        0.5854    0.0813   -2.4720 H         1 RES1    0.0000
     33 H11        3.8119   -5.8083   -4.4331 H         1 RES1    0.0000
     34 H12        6.7050   -3.1877   -3.5277 H         1 RES1    0.0000
     35 H13        5.2907   -2.1337   -2.0586 H         1 RES1    0.0000
@<TRIPOS>BOND
     1    1   10 2
     2    2   16 2
     3    3    8 2
     4    4    8 2
     5    5    9 2
     6    6    9 2
     7    7   10 1
     8    8   18 1
     9    9   20 1
    10   10   11 1
    11   11   12 1
    12   12   13 1
    13   13   26 1
    14   14   11 1
    15   15   14 1
    16   16    7 1
    17   17   11 1
    18   18   17 ar
    19   19   18 ar
    20   20   19 ar
    21   21   20 ar
    22   22   17 ar
    23   23    7 1
    24   24   12 1
    25   25   12 1
    26   27   13 1
    27   28   13 1
    28   29   14 1
    29   30   14 1
    30   31   15 1
    31   32   15 1
    32   33   19 1
    33   34   21 1
    34   35   22 1
    35   15   16 1
    36   21   22 ar
@<TRIPOS>SUBSTRUCTURE
     1 RES1 1

@<TRIPOS>CRYSIN
   8.5629    8.8741   10.5940 114.4830 108.8310  92.2350   2 1

