# MOL2 file generated by ConQuest
# Please check atom types

@<TRIPOS>MOLECULE
HOFJES
    24    24     1
SMALL
NO_CHARGES
****
Generated from CSD

@<TRIPOS>ATOM
      1 C1         7.5216    1.1420    1.6964 C.2       1 RES1    0.0000
      2 H1         6.8899    0.9893    1.0042 H         1 RES1    0.0000
      3 H2         8.4303    0.8962    1.5721 H         1 RES1    0.0000
      4 C2         8.0418    1.9981    3.9907 C.3       1 RES1    0.0000
      5 H3         8.9503    1.7080    3.7643 H         1 RES1    0.0000
      6 H4         7.7339    1.5170    4.7874 H         1 RES1    0.0000
      7 H5         8.0401    2.9615    4.1715 H         1 RES1    0.0000
      8 C3         7.1302    1.7057    2.8530 C.2       1 RES1    0.0000
      9 C4         5.7157    2.0998    3.0745 C.2       1 RES1    0.0000
     10 C5         3.5064    1.8682    2.2210 C.ar      1 RES1    0.0000
     11 C6         2.8302    1.4607    3.3574 C.ar      1 RES1    0.0000
     12 H6         3.2971    1.0726    4.0880 H         1 RES1    0.0000
     13 C7         1.4604    1.6292    3.4075 C.ar      1 RES1    0.0000
     14 H7         0.9671    1.3537    4.1715 H         1 RES1    0.0000
     15 C8         0.8153    2.2064    2.3265 C.ar      1 RES1    0.0000
     16 C9         1.4887    2.6076    1.1884 C.ar      1 RES1    0.0000
     17 H8         1.0198    2.9885    0.4551 H         1 RES1    0.0000
     18 C10        2.8626    2.4413    1.1425 C.ar      1 RES1    0.0000
     19 H9         3.3553    2.7179    0.3800 H         1 RES1    0.0000
     20 N1        -0.6368    2.3952    2.3943 N.pl3     1 RES1    0.0000
     21 O1         5.3192    2.7540    3.9973 O.2       1 RES1    0.0000
     22 O2         4.8830    1.6491    2.0778 O.3       1 RES1    0.0000
     23 O3        -1.2435    1.9118    3.3407 O.2       1 RES1    0.0000
     24 O4        -1.1844    3.0309    1.4932 O.2       1 RES1    0.0000
@<TRIPOS>BOND
     1    1    2 1
     2    3    1 1
     3    4    5 1
     4    6    4 1
     5    7    4 1
     6    8    1 2
     7    9    8 1
     8   10   11 ar
     9   11   12 1
    10   13   11 ar
    11   14   13 1
    12   15   13 ar
    13   16   15 ar
    14   17   16 1
    15   18   10 ar
    16   19   18 1
    17   20   15 1
    18   21    9 2
    19   22    9 1
    20   23   20 2
    21   24   20 2
    22    4    8 1
    23   10   22 1
    24   16   18 ar
@<TRIPOS>SUBSTRUCTURE
     1 RES1 1

@<TRIPOS>CRYSIN
  24.4910    3.7530   23.4280  90.0000 116.9800  90.0000  15 1

