# MOL2 file generated by ConQuest
# Please check atom types

@<TRIPOS>MOLECULE
HOFNEW
    39    41     1
SMALL
NO_CHARGES
****
Generated from CSD

@<TRIPOS>ATOM
      1 O1         7.2631    3.9411   19.8958 O.3       1 RES1    0.0000
      2 H1         7.0052    4.5743   20.3841 H         1 RES1    0.0000
      3 O2         4.8480    3.0559   14.2403 O.2       1 RES1    0.0000
      4 O3         3.4996    4.5649   14.9631 O.2       1 RES1    0.0000
      5 O4         7.4716    6.8988   22.4032 O.2       1 RES1    0.0000
      6 N1         4.4546    3.8215   15.1152 N.pl3     1 RES1    0.0000
      7 N2         5.8007    5.9593   20.5759 N.2       1 RES1    0.0000
      8 N3         5.4221    6.8997   21.4961 N.am      1 RES1    0.0000
      9 H2         4.5986    7.2110   21.5098 H         1 RES1    0.0000
     10 N4         7.5931    8.5632   26.5345 N.pl3     1 RES1    0.0000
     11 H3         8.2014    8.8815   27.0845 H         1 RES1    0.0000
     12 C1         6.5416    3.9254   18.7623 C.ar      1 RES1    0.0000
     13 C2         6.8955    3.0135   17.7778 C.ar      1 RES1    0.0000
     14 H4         7.6119    2.4089   17.9333 H         1 RES1    0.0000
     15 C3         6.2221    2.9743   16.5840 C.ar      1 RES1    0.0000
     16 H5         6.4739    2.3559   15.9083 H         1 RES1    0.0000
     17 C4         5.1757    3.8477   16.3803 C.ar      1 RES1    0.0000
     18 C5         4.7798    4.7398   17.3475 C.ar      1 RES1    0.0000
     19 H6         4.0415    5.3149   17.1888 H         1 RES1    0.0000
     20 C6         5.4572    4.8002   18.5527 C.ar      1 RES1    0.0000
     21 C7         5.0637    5.7762   19.5527 C.2       1 RES1    0.0000
     22 H7         4.2619    6.2753   19.4461 H         1 RES1    0.0000
     23 C8         6.3375    7.3369   22.3794 C.2       1 RES1    0.0000
     24 C9         5.8501    8.4374   23.2933 C.3       1 RES1    0.0000
     25 H8         6.1305    9.3133   22.9273 H         1 RES1    0.0000
     26 H9         4.8600    8.4227   23.3234 H         1 RES1    0.0000
     27 C10        6.3862    8.2901   24.6828 C.2       1 RES1    0.0000
     28 C11        7.3782    8.9942   25.2594 C.2       1 RES1    0.0000
     29 H10        7.8618    9.6943   24.8362 H         1 RES1    0.0000
     30 C12        5.9374    7.3566   25.6605 C.ar      1 RES1    0.0000
     31 C13        4.9344    6.3909   25.6992 C.ar      1 RES1    0.0000
     32 H11        4.3868    6.2336   24.9374 H         1 RES1    0.0000
     33 C14        4.7484    5.6729   26.8466 C.ar      1 RES1    0.0000
     34 H12        4.0654    5.0128   26.8731 H         1 RES1    0.0000
     35 C15        5.5353    5.8853   27.9785 C.ar      1 RES1    0.0000
     36 H13        5.3798    5.3657   28.7582 H         1 RES1    0.0000
     37 C16        6.5311    6.8333   27.9851 C.ar      1 RES1    0.0000
     38 H14        7.0691    6.9821   28.7522 H         1 RES1    0.0000
     39 C17        6.7124    7.5578   26.8234 C.ar      1 RES1    0.0000
@<TRIPOS>BOND
     1    1    2 1
     2    3    6 2
     3    4    6 2
     4    5   23 2
     5    6   17 1
     6    7    8 1
     7    8    9 1
     8   10   11 1
     9   12    1 1
    10   13   12 ar
    11   14   13 1
    12   15   13 ar
    13   16   15 1
    14   17   15 ar
    15   18   17 ar
    16   19   18 1
    17   20   12 ar
    18   21    7 2
    19   22   21 1
    20   23    8 1
    21   24   23 1
    22   25   24 1
    23   26   24 1
    24   27   24 1
    25   28   10 1
    26   29   28 1
    27   30   27 1
    28   31   30 ar
    29   32   31 1
    30   33   31 ar
    31   34   33 1
    32   35   33 ar
    33   36   35 1
    34   37   35 ar
    35   38   37 1
    36   39   10 1
    37   18   20 ar
    38   20   21 1
    39   27   28 2
    40   30   39 ar
    41   37   39 ar
@<TRIPOS>SUBSTRUCTURE
     1 RES1 1

@<TRIPOS>CRYSIN
   9.5387   11.2724   29.7796  90.0000  90.0000  90.0000  61 1

