# MOL2 file generated by ConQuest
# Please check atom types

@<TRIPOS>MOLECULE
HOFTAX
    32    35     2
SMALL
NO_CHARGES
****
Generated from CSD

@<TRIPOS>ATOM
      1 O1         4.0857    5.0237    1.3326 O.3       1 RES1    0.0000
      2 O2        -0.4513    3.1412    3.6274 O.3       1 RES1    0.0000
      3 O3        -2.0248    6.0970    4.1022 O.2       1 RES1    0.0000
      4 O4        -2.2305    7.8798    2.9455 Du        2 SUP2    0.0000
      5 O5        -2.8714    6.0205    2.8352 Du        2 SUP2    0.0000
      6 O6        -1.9545    7.8086    3.5904 O.2       1 RES1    0.0000
      7 N1        -1.7702    6.7982    3.1179 N.pl3     1 RES1    0.0000
      8 C1        -0.5677    6.4397    2.3420 C.ar      1 RES1    0.0000
      9 C2         0.1942    7.4983    1.8956 C.ar      1 RES1    0.0000
     10 H1        -0.0880    8.3840    2.0342 H         1 RES1    0.0000
     11 C3         1.3793    7.2321    1.2441 C.ar      1 RES1    0.0000
     12 H2         1.9002    7.9417    0.9167 H         1 RES1    0.0000
     13 C4         1.8081    5.9314    1.0673 C.ar      1 RES1    0.0000
     14 C5         3.1353    5.6872    0.4496 C.3       1 RES1    0.0000
     15 H3         3.4911    6.3925   -0.1462 H         1 RES1    0.0000
     16 C6         3.5434    4.3183    0.1724 C.3       1 RES1    0.0000
     17 H4         4.1577    4.1841   -0.5926 H         1 RES1    0.0000
     18 C7         2.6265    3.2115    0.4824 C.ar      1 RES1    0.0000
     19 C8         2.9470    1.9170    0.1026 C.ar      1 RES1    0.0000
     20 H5         3.7396    1.7577   -0.3776 H         1 RES1    0.0000
     21 C9         2.1229    0.8637    0.4191 C.ar      1 RES1    0.0000
     22 H6         2.3480   -0.0084    0.1506 H         1 RES1    0.0000
     23 C10        0.9648    1.0911    1.1306 C.ar      1 RES1    0.0000
     24 H7         0.4058    0.3689    1.3510 H         1 RES1    0.0000
     25 C11        0.6164    2.3782    1.5246 C.ar      1 RES1    0.0000
     26 C12       -0.6150    2.5973    2.3005 C.3       1 RES1    0.0000
     27 H8        -1.3335    1.9254    2.1848 H         1 RES1    0.0000
     28 C13       -1.0421    3.9609    2.5995 C.3       1 RES1    0.0000
     29 H9        -2.0178    4.1171    2.6617 H         1 RES1    0.0000
     30 C14       -0.2122    5.1075    2.1444 C.ar      1 RES1    0.0000
     31 C15        1.0185    4.8507    1.4875 C.ar      1 RES1    0.0000
     32 C16        1.4307    3.4693    1.1906 C.ar      1 RES1    0.0000
@<TRIPOS>BOND
     1    1   14 1
     2    2   26 1
     3    3    7 2
     4    6    7 2
     5    7    8 1
     6    8    9 ar
     7    9   10 1
     8   11    9 ar
     9   12   11 1
    10   13   11 ar
    11   14   13 1
    12   15   14 1
    13   16    1 1
    14   17   16 1
    15   18   16 1
    16   19   18 ar
    17   20   19 1
    18   21   19 ar
    19   22   21 1
    20   23   21 ar
    21   24   23 1
    22   25   23 ar
    23   26   25 1
    24   27   26 1
    25   28    2 1
    26   29   28 1
    27   30    8 ar
    28   31   13 ar
    29   32   18 ar
    30   14   16 1
    31   25   32 ar
    32   26   28 1
    33   28   30 1
    34   30   31 ar
    35   31   32 1
@<TRIPOS>SUBSTRUCTURE
     1 RES1 1
     2 SUP2 4

@<TRIPOS>CRYSIN
  10.3528   10.4813   11.1426  90.0000 101.6480  90.0000 231 1

