# MOL2 file generated by ConQuest
# Please check atom types

@<TRIPOS>MOLECULE
HOGYAE
    44    47     1
SMALL
NO_CHARGES
****
Generated from CSD

@<TRIPOS>ATOM
      1 O1         3.0202    4.2957   11.4041 O.2       1 RES1    0.0000
      2 O2        -0.1414    3.0918    8.9621 O.3       1 RES1    0.0000
      3 N1         0.8362    4.3150   10.6239 N.am      1 RES1    0.0000
      4 N2         1.4098    5.7600   12.1904 N.am      1 RES1    0.0000
      5 N3         0.1781    2.1133    7.9742 N.2       1 RES1    0.0000
      6 C1         1.8863    4.7425   11.4261 C.2       1 RES1    0.0000
      7 C2        -0.0435    5.8576   12.1174 C.3       1 RES1    0.0000
      8 H1        -0.4355    5.2973   12.8472 H         1 RES1    0.0000
      9 C3        -0.3523    5.1773   10.7563 C.3       1 RES1    0.0000
     10 H2        -1.1745    4.6132   10.8359 H         1 RES1    0.0000
     11 C4         2.1554    6.2671   13.3313 C.3       1 RES1    0.0000
     12 H3         3.0712    5.9199   13.3027 H         1 RES1    0.0000
     13 H4         1.7205    5.9770   14.1604 H         1 RES1    0.0000
     14 H5         2.1755    7.2467   13.2980 H         1 RES1    0.0000
     15 C5        -0.5551    7.2775   12.2767 C.3       1 RES1    0.0000
     16 H6        -0.3607    7.5949   13.1825 H         1 RES1    0.0000
     17 H7        -1.5229    7.2948   12.1259 H         1 RES1    0.0000
     18 H8        -0.1118    7.8592   11.6242 H         1 RES1    0.0000
     19 C6        -0.4894    6.1278    9.5801 C.ar      1 RES1    0.0000
     20 C7        -1.7407    6.4091    9.0721 C.ar      1 RES1    0.0000
     21 H9        -2.5064    5.9926    9.4510 H         1 RES1    0.0000
     22 C8        -1.8928    7.2952    8.0117 C.ar      1 RES1    0.0000
     23 H10       -2.7599    7.4886    7.6755 H         1 RES1    0.0000
     24 C9        -0.7897    7.8922    7.4501 C.ar      1 RES1    0.0000
     25 H11       -0.8924    8.4907    6.7184 H         1 RES1    0.0000
     26 C10        0.4641    7.6214    7.9490 C.ar      1 RES1    0.0000
     27 H12        1.2272    8.0383    7.5668 H         1 RES1    0.0000
     28 C11        0.6149    6.7415    9.0076 C.ar      1 RES1    0.0000
     29 H13        1.4839    6.5558    9.3447 H         1 RES1    0.0000
     30 C12        0.9899    3.3911    9.6219 C.2       1 RES1    0.0000
     31 C13        2.0358    2.6864    9.1410 C.2       1 RES1    0.0000
     32 H14        2.9432    2.7153    9.4210 H         1 RES1    0.0000
     33 C14        1.4605    1.8948    8.1212 C.2       1 RES1    0.0000
     34 C15        2.1333    0.9107    7.2420 C.ar      1 RES1    0.0000
     35 C16        1.4085   -0.1432    6.6768 C.ar      1 RES1    0.0000
     36 H15        0.4914   -0.2587    6.8964 H         1 RES1    0.0000
     37 C17        2.0254   -1.0184    5.7987 C.ar      1 RES1    0.0000
     38 H16        1.5268   -1.7288    5.4122 H         1 RES1    0.0000
     39 C18        3.3546   -0.8655    5.4827 C.ar      1 RES1    0.0000
     40 H17        3.7699   -1.4634    4.8712 H         1 RES1    0.0000
     41 C19        4.0897    0.1643    6.0574 C.ar      1 RES1    0.0000
     42 H18        5.0108    0.2654    5.8468 H         1 RES1    0.0000
     43 C20        3.4794    1.0464    6.9406 C.ar      1 RES1    0.0000
     44 H19        3.9864    1.7445    7.3380 H         1 RES1    0.0000
@<TRIPOS>BOND
     1    1    6 2
     2    2    5 1
     3    3    6 1
     4    4    6 1
     5    5   33 2
     6    7    4 1
     7    8    7 1
     8    9    3 1
     9   10    9 1
    10   11    4 1
    11   12   11 1
    12   13   11 1
    13   14   11 1
    14   15    7 1
    15   16   15 1
    16   17   15 1
    17   18   15 1
    18   19    9 1
    19   20   19 ar
    20   21   20 1
    21   22   20 ar
    22   23   22 1
    23   24   22 ar
    24   25   24 1
    25   26   24 ar
    26   27   26 1
    27   28   19 ar
    28   29   28 1
    29   30    2 1
    30   31   30 2
    31   32   31 1
    32   33   31 1
    33   34   33 1
    34   35   34 ar
    35   36   35 1
    36   37   35 ar
    37   38   37 1
    38   39   37 ar
    39   40   39 1
    40   41   39 ar
    41   42   41 1
    42   43   34 ar
    43   44   43 1
    44    3   30 1
    45    7    9 1
    46   26   28 ar
    47   41   43 ar
@<TRIPOS>SUBSTRUCTURE
     1 RES1 1

@<TRIPOS>CRYSIN
   6.4999   11.1970   23.1190  90.0000  90.0000  90.0000  19 1

