# MOL2 file generated by ConQuest
# Please check atom types

@<TRIPOS>MOLECULE
HOGZAF
    52    55     1
SMALL
NO_CHARGES
****
Generated from CSD

@<TRIPOS>ATOM
      1 O1         1.8984    4.3170    3.4370 O.3       1 RES1    0.0000
      2 O2         1.0212    2.4837    2.4587 O.2       1 RES1    0.0000
      3 C1         1.5744    4.3498   -1.2627 C.ar      1 RES1    0.0000
      4 C2         1.6813    4.3371    1.1181 C.ar      1 RES1    0.0000
      5 C3         1.3160    3.7148   -0.0705 C.ar      1 RES1    0.0000
      6 H1         0.9021    2.8818   -0.0587 H         1 RES1    0.0000
      7 C4         2.2618    5.5917    1.0855 C.ar      1 RES1    0.0000
      8 H2         2.4983    6.0219    1.8759 H         1 RES1    0.0000
      9 N1         1.2519    3.6633   -2.5300 N.pl3     1 RES1    0.0000
     10 C5         1.4807    3.5870    2.3987 C.2       1 RES1    0.0000
     11 N2         3.1566    7.5140   -0.1796 N.pl3     1 RES1    0.0000
     12 C6         2.1396    5.6017   -1.3309 C.ar      1 RES1    0.0000
     13 H3         2.2829    6.0266   -2.1453 H         1 RES1    0.0000
     14 C7         2.4856    6.1992   -0.1347 C.ar      1 RES1    0.0000
     15 O3         0.6386    2.6175   -2.4478 O.2       1 RES1    0.0000
     16 C8         3.4972    3.7898    5.1499 C.3       1 RES1    0.0000
     17 C9         3.6061    3.3582    6.5803 C.2       1 RES1    0.0000
     18 H4         4.4249    3.0263    6.8696 H         1 RES1    0.0000
     19 C10        2.0088    3.7108    4.7645 C.3       1 RES1    0.0000
     20 H5         1.7547    2.7667    4.6966 H         1 RES1    0.0000
     21 C11        1.2334    3.8922    7.1530 C.3       1 RES1    0.0000
     22 H6         1.0473    4.6382    7.7609 H         1 RES1    0.0000
     23 O4         3.5265    7.9931    0.8837 O.2       1 RES1    0.0000
     24 O5         1.6313    4.1538   -3.5581 O.2       1 RES1    0.0000
     25 O6         3.3229    8.0433   -1.2565 O.2       1 RES1    0.0000
     26 C12        1.0174    4.4154    5.6964 C.3       1 RES1    0.0000
     27 C13        0.1576    2.8617    7.3698 C.2       1 RES1    0.0000
     28 C14        4.1035    5.2063    4.9833 C.3       1 RES1    0.0000
     29 H7         5.0598    5.1407    5.1319 H         1 RES1    0.0000
     30 H8         3.9734    5.4806    4.0627 H         1 RES1    0.0000
     31 C15        2.6329    3.4137    7.4476 C.2       1 RES1    0.0000
     32 H9         2.8172    3.1367    8.3154 H         1 RES1    0.0000
     33 C16       -0.4072    3.9162    5.3357 C.3       1 RES1    0.0000
     34 H10       -1.0467    4.6449    5.3668 H         1 RES1    0.0000
     35 H11       -0.4214    3.5241    4.4479 H         1 RES1    0.0000
     36 C17        4.2780    2.8263    4.2416 C.3       1 RES1    0.0000
     37 H12        5.1943    2.7908    4.5256 H         1 RES1    0.0000
     38 H13        4.2359    3.1367    3.3337 H         1 RES1    0.0000
     39 H14        3.8922    1.9491    4.2976 H         1 RES1    0.0000
     40 C18        1.0823    5.9450    5.6155 C.3       1 RES1    0.0000
     41 H15        0.9590    6.2032    4.6897 H         1 RES1    0.0000
     42 H16        0.3335    6.3049    6.1165 H         1 RES1    0.0000
     43 C19       -0.7159    2.8959    6.3704 C.2       1 RES1    0.0000
     44 H17       -1.4538    2.3318    6.3220 H         1 RES1    0.0000
     45 C20        2.3236    6.5926    6.1147 C.2       1 RES1    0.0000
     46 H18        2.1940    7.3159    6.6848 H         1 RES1    0.0000
     47 C21        0.0900    2.0294    8.5883 C.3       1 RES1    0.0000
     48 H19        0.0385    2.5968    9.3621 H         1 RES1    0.0000
     49 H20        0.8762    1.4814    8.6470 H         1 RES1    0.0000
     50 H21       -0.6887    1.4687    8.5520 H         1 RES1    0.0000
     51 C22        3.5744    6.2922    5.8677 C.2       1 RES1    0.0000
     52 H22        4.2121    6.8188    6.2927 H         1 RES1    0.0000
@<TRIPOS>BOND
     1    1   10 1
     2    2   10 2
     3    3    5 ar
     4    4    5 ar
     5    5    6 1
     6    7    4 ar
     7    8    7 1
     8    9    3 1
     9   10    4 1
    10   11   14 1
    11   12    3 ar
    12   13   12 1
    13   14    7 ar
    14   15    9 2
    15   16   17 1
    16   17   18 1
    17   19    1 1
    18   20   19 1
    19   21   22 1
    20   23   11 2
    21   24    9 2
    22   25   11 2
    23   26   19 1
    24   27   21 1
    25   28   16 1
    26   29   28 1
    27   30   28 1
    28   31   17 2
    29   32   31 1
    30   33   26 1
    31   34   33 1
    32   35   33 1
    33   36   16 1
    34   37   36 1
    35   38   36 1
    36   39   36 1
    37   40   26 1
    38   41   40 1
    39   42   40 1
    40   43   27 2
    41   44   43 1
    42   45   40 1
    43   46   45 1
    44   47   27 1
    45   48   47 1
    46   49   47 1
    47   50   47 1
    48   51   28 1
    49   52   51 1
    50   12   14 ar
    51   16   19 1
    52   21   26 1
    53   21   31 1
    54   33   43 1
    55   45   51 2
@<TRIPOS>SUBSTRUCTURE
     1 RES1 1

@<TRIPOS>CRYSIN
   8.7160    6.6910   17.4280  90.0000  97.6400  90.0000   4 1

