# MOL2 file generated by ConQuest
# Please check atom types

@<TRIPOS>MOLECULE
HOHCIR
    38    40     1
SMALL
NO_CHARGES
****
Generated from CSD

@<TRIPOS>ATOM
      1 C1        -0.5252    1.7853    6.6690 C.ar      1 RES1    0.0000
      2 C2         3.9156    0.4919    2.4439 C.3       1 RES1    0.0000
      3 H1         4.8171    0.2095    2.6652 H         1 RES1    0.0000
      4 H2         3.9522    1.0785    1.6726 H         1 RES1    0.0000
      5 C3         1.9372    1.1609    3.2790 C.3       1 RES1    0.0000
      6 H3         1.7428    1.8528    2.6121 H         1 RES1    0.0000
      7 C4         1.0949    1.3879    4.4969 C.ar      1 RES1    0.0000
      8 C5        -0.1723    1.9110    4.3369 C.ar      1 RES1    0.0000
      9 H4        -0.4673    2.1461    3.4872 H         1 RES1    0.0000
     10 C6         0.7440    1.3082    6.8698 C.ar      1 RES1    0.0000
     11 H5         1.0540    1.1325    7.7285 H         1 RES1    0.0000
     12 C7         1.5528    1.0906    5.7744 C.ar      1 RES1    0.0000
     13 H6         2.4078    0.7446    5.8911 H         1 RES1    0.0000
     14 C8        -1.0081    2.0893    5.4217 C.ar      1 RES1    0.0000
     15 H7        -1.8744    2.4083    5.3099 H         1 RES1    0.0000
     16 C9         3.5634   -1.9812    4.3508 C.ar      1 RES1    0.0000
     17 C10        4.7629   -1.6677    4.9818 C.ar      1 RES1    0.0000
     18 H8         5.5041   -1.4461    4.4659 H         1 RES1    0.0000
     19 C11        3.0290   -0.7109    2.1640 C.3       1 RES1    0.0000
     20 H9         2.9640   -0.8501    1.1959 H         1 RES1    0.0000
     21 C12        3.4546   -2.0177    2.8423 C.3       1 RES1    0.0000
     22 H10        2.8161   -2.7070    2.6007 H         1 RES1    0.0000
     23 H11        4.3156   -2.2812    2.4823 H         1 RES1    0.0000
     24 C13        2.4764   -2.3042    5.1450 C.ar      1 RES1    0.0000
     25 H12        1.6593   -2.5110    4.7516 H         1 RES1    0.0000
     26 C14        4.8768   -1.6744    6.3588 C.ar      1 RES1    0.0000
     27 H13        5.6847   -1.4515    6.7621 H         1 RES1    0.0000
     28 C15        2.6037   -2.3204    6.5343 C.ar      1 RES1    0.0000
     29 H14        1.8710   -2.5407    7.0633 H         1 RES1    0.0000
     30 C16        3.7993   -2.0137    7.1229 C.ar      1 RES1    0.0000
     31 H15        3.8785   -2.0353    8.0493 H         1 RES1    0.0000
     32 N1        -1.4151    1.9947    7.8159 N.pl3     1 RES1    0.0000
     33 N2         0.5491   -0.6109    2.3737 N.2       1 RES1    0.0000
     34 N3         1.7521   -0.1838    2.6709 N.3       1 RES1    0.0000
     35 O1        -0.9398    1.9042    8.9366 O.2       1 RES1    0.0000
     36 O2        -2.5895    2.2380    7.6200 O.2       1 RES1    0.0000
     37 O3         0.5327   -1.6434    1.6775 O.2       1 RES1    0.0000
     38 O4         3.3015    1.1589    3.5639 O.3       1 RES1    0.0000
@<TRIPOS>BOND
     1    1   10 ar
     2    2    3 1
     3    4    2 1
     4    5    6 1
     5    7    5 1
     6    8    7 ar
     7    9    8 1
     8   10   11 1
     9   12    7 ar
    10   13   12 1
    11   14    1 ar
    12   15   14 1
    13   16   17 ar
    14   17   18 1
    15   19    2 1
    16   20   19 1
    17   21   16 1
    18   22   21 1
    19   23   21 1
    20   24   16 ar
    21   25   24 1
    22   26   17 ar
    23   27   26 1
    24   28   24 ar
    25   29   28 1
    26   30   26 ar
    27   31   30 1
    28   32    1 1
    29   33   34 1
    30   34    5 1
    31   35   32 2
    32   36   32 2
    33   37   33 2
    34   38    2 1
    35    5   38 1
    36    8   14 ar
    37   10   12 ar
    38   19   21 1
    39   19   34 1
    40   28   30 ar
@<TRIPOS>SUBSTRUCTURE
     1 RES1 1

@<TRIPOS>CRYSIN
   6.7170   13.5145    8.2169  90.0000  96.5780  90.0000   4 1

