# MOL2 file generated by ConQuest
# Please check atom types

@<TRIPOS>MOLECULE
HOHMIA
    41    42     1
SMALL
NO_CHARGES
****
Generated from CSD

@<TRIPOS>ATOM
      1 O1        10.0091    9.0092    5.1774 O.2       1 RES1    0.0000
      2 O2         8.2030   10.1948    5.1781 O.2       1 RES1    0.0000
      3 N1         6.2391    5.1886    1.8612 N.2       1 RES1    0.0000
      4 N2         5.0090    5.4210    1.6372 N.2       1 RES1    0.0000
      5 N3         8.8412    9.1854    4.8828 N.pl3     1 RES1    0.0000
      6 N4         1.9646    1.7005   -1.1715 N.pl3     1 RES1    0.0000
      7 N5         9.4831    3.9550    2.2960 N.1       1 RES1    0.0000
      8 C1         8.8850    4.8752    2.5677 C.1       1 RES1    0.0000
      9 C2         0.5058    1.7950   -1.1656 C.3       1 RES1    0.0000
     10 C3        -0.0271    2.6730   -2.2549 C.3       1 RES1    0.0000
     11 C4         2.5048    0.5920   -1.9354 C.3       1 RES1    0.0000
     12 C5         2.5187   -0.7084   -1.2141 C.3       1 RES1    0.0000
     13 C6         6.8324    6.2307    2.6316 C.ar      1 RES1    0.0000
     14 C7         8.1803    6.0763    2.9746 C.ar      1 RES1    0.0000
     15 C8         8.8379    7.0393    3.7348 C.ar      1 RES1    0.0000
     16 C9         8.1441    8.1506    4.1160 C.ar      1 RES1    0.0000
     17 C10        6.8156    8.3374    3.7862 C.ar      1 RES1    0.0000
     18 C11        6.1657    7.3754    3.0591 C.ar      1 RES1    0.0000
     19 C12        4.3503    4.4569    0.8895 C.ar      1 RES1    0.0000
     20 C13        2.9752    4.6517    0.7396 C.ar      1 RES1    0.0000
     21 C14        2.1903    3.7423    0.0779 C.ar      1 RES1    0.0000
     22 C15        2.7491    2.5935   -0.5061 C.ar      1 RES1    0.0000
     23 C16        4.1445    2.4137   -0.3584 C.ar      1 RES1    0.0000
     24 C17        4.9108    3.3200    0.3276 C.ar      1 RES1    0.0000
     25 H1         0.0951    0.9172   -1.2236 H         1 RES1    0.0000
     26 H2         0.1917    2.1524   -0.2909 H         1 RES1    0.0000
     27 H3         0.3539    3.5666   -2.1785 H         1 RES1    0.0000
     28 H4         0.2646    2.3318   -3.1135 H         1 RES1    0.0000
     29 H5        -0.9654    2.7551   -2.2681 H         1 RES1    0.0000
     30 H6         1.9803    0.4736   -2.7565 H         1 RES1    0.0000
     31 H7         3.4039    0.7954   -2.2314 H         1 RES1    0.0000
     32 H8         1.6381   -0.9774   -0.9416 H         1 RES1    0.0000
     33 H9         2.8858   -1.4377   -1.7422 H         1 RES1    0.0000
     34 H10        3.0606   -0.6548   -0.4142 H         1 RES1    0.0000
     35 H11        9.7540    6.9252    3.9442 H         1 RES1    0.0000
     36 H12        6.3417    9.1249    4.0778 H         1 RES1    0.0000
     37 H13        5.2346    7.4834    2.8204 H         1 RES1    0.0000
     38 H14        2.5700    5.4296    1.1502 H         1 RES1    0.0000
     39 H15        1.2443    3.8779   -0.0037 H         1 RES1    0.0000
     40 H16        4.5382    1.6265   -0.7609 H         1 RES1    0.0000
     41 H17        5.8640    3.1783    0.3922 H         1 RES1    0.0000
@<TRIPOS>BOND
     1    1    5 2
     2    2    5 2
     3    3    4 2
     4    4   19 1
     5    5   16 1
     6    6    9 1
     7    7    8 3
     8    8   14 1
     9    9   10 1
    10   10   27 1
    11   11    6 1
    12   12   11 1
    13   13    3 1
    14   14   13 ar
    15   15   14 ar
    16   16   15 ar
    17   17   16 ar
    18   18   13 ar
    19   19   20 ar
    20   20   21 ar
    21   21   22 ar
    22   22    6 1
    23   23   22 ar
    24   24   19 ar
    25   25    9 1
    26   26    9 1
    27   28   10 1
    28   29   10 1
    29   30   11 1
    30   31   11 1
    31   32   12 1
    32   33   12 1
    33   34   12 1
    34   35   15 1
    35   36   17 1
    36   37   18 1
    37   38   20 1
    38   39   21 1
    39   40   23 1
    40   41   24 1
    41   17   18 ar
    42   23   24 ar
@<TRIPOS>SUBSTRUCTURE
     1 RES1 1

@<TRIPOS>CRYSIN
  10.0860   11.4450    7.5000 100.8600  96.2100  79.1000   2 1

