# MOL2 file generated by ConQuest
# Please check atom types

@<TRIPOS>MOLECULE
HOHPOK
    46    48     1
SMALL
NO_CHARGES
****
Generated from CSD

@<TRIPOS>ATOM
      1 O1         2.5168   17.6770    3.3322 O.3       1 RES1    0.0000
      2 O2        -0.3796   17.4336    1.0265 O.2       1 RES1    0.0000
      3 O3         0.7166   16.5268   -0.7194 O.3       1 RES1    0.0000
      4 O4        -1.4549   12.6475    0.7823 O.2       1 RES1    0.0000
      5 O5        -1.5308   14.7412   -0.0076 O.3       1 RES1    0.0000
      6 N1         1.9656   13.4163    2.9188 N.ar      1 RES1    0.0000
      7 O6         7.1850   14.9546    6.1013 O.3       1 RES1    0.0000
      8 N2         3.0536   18.9726    3.1499 N.2       1 RES1    0.0000
      9 C1         1.9986   15.6678    2.1159 C.ar      1 RES1    0.0000
     10 C2         4.8200   15.6282    3.4570 C.ar      1 RES1    0.0000
     11 H1         4.7795   16.1808    2.7105 H         1 RES1    0.0000
     12 C3         0.2796   14.1635    1.3737 C.ar      1 RES1    0.0000
     13 C4         2.5424   17.0453    2.1300 C.2       1 RES1    0.0000
     14 C5         0.8705   15.4274    1.3324 C.ar      1 RES1    0.0000
     15 C6         0.2887   16.5749    0.5393 C.2       1 RES1    0.0000
     16 C7         3.7518   14.7615    3.7510 C.ar      1 RES1    0.0000
     17 C8         5.9158   15.6529    4.2675 C.ar      1 RES1    0.0000
     18 H2         6.6168   16.2279    4.0635 H         1 RES1    0.0000
     19 C9         2.5379   14.6269    2.8971 C.ar      1 RES1    0.0000
     20 C10        6.0127   14.8450    5.3851 C.ar      1 RES1    0.0000
     21 C11        3.0270   17.8562    1.1849 C.2       1 RES1    0.0000
     22 H3         3.1419   17.6752    0.2799 H         1 RES1    0.0000
     23 C12        3.3280   19.0631    1.8804 C.2       1 RES1    0.0000
     24 C13        0.8781   13.2069    2.1951 C.ar      1 RES1    0.0000
     25 H4         0.4855   12.3642    2.2363 H         1 RES1    0.0000
     26 C14        4.9746   13.9974    5.7009 C.ar      1 RES1    0.0000
     27 H5         5.0245   13.4522    6.4539 H         1 RES1    0.0000
     28 C15        3.8559   13.9603    4.8838 C.ar      1 RES1    0.0000
     29 H6         3.1566   13.3878    5.0976 H         1 RES1    0.0000
     30 C16       -0.9729   13.7471    0.6868 C.2       1 RES1    0.0000
     31 C17       -2.7821   14.4287   -0.6651 C.3       1 RES1    0.0000
     32 H7        -2.6204   13.8091   -1.3824 H         1 RES1    0.0000
     33 H8        -3.1692   15.2316   -1.0167 H         1 RES1    0.0000
     34 H9        -3.3860   14.0321   -0.0326 H         1 RES1    0.0000
     35 C18        3.9360   20.3121    1.3151 C.3       1 RES1    0.0000
     36 H10        4.0746   20.9466    2.0204 H         1 RES1    0.0000
     37 H11        3.3456   20.6864    0.6575 H         1 RES1    0.0000
     38 H12        4.7783   20.0990    0.9049 H         1 RES1    0.0000
     39 C19        0.2783   17.6405   -1.5571 C.3       1 RES1    0.0000
     40 H13       -0.6802   17.7000   -1.5386 H         1 RES1    0.0000
     41 H14        0.5718   17.4993   -2.4598 H         1 RES1    0.0000
     42 H15        0.6544   18.4609   -1.2239 H         1 RES1    0.0000
     43 C20        7.3108   14.1635    7.2731 C.3       1 RES1    0.0000
     44 H16        6.6193   14.4014    7.8949 H         1 RES1    0.0000
     45 H17        8.1692   14.3196    7.6735 H         1 RES1    0.0000
     46 H18        7.2292   13.2341    7.0431 H         1 RES1    0.0000
@<TRIPOS>BOND
     1    1    8 1
     2    2   15 2
     3    3   15 1
     4    4   30 2
     5    5   30 1
     6    6   19 ar
     7    7   20 1
     8    8   23 2
     9    9   13 1
    10   10   11 1
    11   12   14 ar
    12   13    1 1
    13   14    9 ar
    14   15   14 1
    15   16   10 ar
    16   17   10 ar
    17   18   17 1
    18   19    9 ar
    19   20   17 ar
    20   21   13 2
    21   22   21 1
    22   23   21 1
    23   24    6 ar
    24   25   24 1
    25   26   20 ar
    26   27   26 1
    27   28   16 ar
    28   29   28 1
    29   30   12 1
    30   31    5 1
    31   32   31 1
    32   33   31 1
    33   34   31 1
    34   35   23 1
    35   36   35 1
    36   37   35 1
    37   38   35 1
    38   39    3 1
    39   40   39 1
    40   41   39 1
    41   42   39 1
    42   43    7 1
    43   44   43 1
    44   45   43 1
    45   46   43 1
    46   12   24 ar
    47   16   19 1
    48   26   28 ar
@<TRIPOS>SUBSTRUCTURE
     1 RES1 1

@<TRIPOS>CRYSIN
   6.7232   24.7830   10.9025  90.0000  95.5960  90.0000  14 1

