# MOL2 file generated by ConQuest
# Please check atom types

@<TRIPOS>MOLECULE
HOJTOQ
    26    28     1
SMALL
NO_CHARGES
****
Generated from CSD

@<TRIPOS>ATOM
      1 N1         0.3029    1.7735    8.0497 N.am      1 RES1    0.0000
      2 N2        -0.0629    4.0963   11.9705 N.2       1 RES1    0.0000
      3 O1         0.3503    4.0300    7.6435 O.2       1 RES1    0.0000
      4 O2        -0.0852    2.6541   11.9936 O.3       1 RES1    0.0000
      5 C1         0.2051    0.6728    8.9264 C.ar      1 RES1    0.0000
      6 C2         0.0580    0.8750   10.3199 C.ar      1 RES1    0.0000
      7 C3         0.0311    2.2419   10.7145 C.2       1 RES1    0.0000
      8 C4         0.1144    3.2865    9.8803 C.2       1 RES1    0.0000
      9 C5         0.2368   -0.6357    8.4546 C.ar      1 RES1    0.0000
     10 H1         0.3176   -0.7997    7.5420 H         1 RES1    0.0000
     11 C6        -0.0397   -0.2134   11.1696 C.ar      1 RES1    0.0000
     12 H2        -0.1396   -0.0708   12.0836 H         1 RES1    0.0000
     13 C7         0.2613    3.1124    8.4546 C.2       1 RES1    0.0000
     14 C8         0.0553    4.4501   10.7094 C.2       1 RES1    0.0000
     15 C9         0.0069   -1.4894   10.6965 C.ar      1 RES1    0.0000
     16 H3        -0.0559   -2.2127   11.2776 H         1 RES1    0.0000
     17 C10        0.1498   -1.6870    9.3403 C.ar      1 RES1    0.0000
     18 H4         0.1890   -2.5564    9.0138 H         1 RES1    0.0000
     19 C11        0.0836    5.8867   10.3379 C.3       1 RES1    0.0000
     20 H5         0.0175    6.4247   11.1297 H         1 RES1    0.0000
     21 H6        -0.6558    6.0810    9.7568 H         1 RES1    0.0000
     22 H7         0.9068    6.0833    9.8841 H         1 RES1    0.0000
     23 C12        0.4264    1.5231    6.6151 C.3       1 RES1    0.0000
     24 H8         0.4512    0.5762    6.4557 H         1 RES1    0.0000
     25 H9         1.2364    1.9229    6.2886 H         1 RES1    0.0000
     26 H10       -0.3258    1.9049    6.1562 H         1 RES1    0.0000
@<TRIPOS>BOND
     1    1    5 1
     2    2    4 1
     3    3   13 2
     4    4    7 1
     5    5    6 ar
     6    6    7 1
     7    7    8 2
     8    8   13 1
     9    9    5 ar
    10   10    9 1
    11   11    6 ar
    12   12   11 1
    13   13    1 1
    14   14    2 2
    15   15   11 ar
    16   16   15 1
    17   17    9 ar
    18   18   17 1
    19   19   14 1
    20   20   19 1
    21   21   19 1
    22   22   19 1
    23   23    1 1
    24   24   23 1
    25   25   23 1
    26   26   23 1
    27    8   14 1
    28   15   17 ar
@<TRIPOS>SUBSTRUCTURE
     1 RES1 1

@<TRIPOS>CRYSIN
   6.9940   11.2320   13.1300  90.0000 101.7500  90.0000  14 2

