# MOL2 file generated by ConQuest
# Please check atom types

@<TRIPOS>MOLECULE
HOKLUO
    36    39     1
SMALL
USER_CHARGES
****
Generated from CSD

@<TRIPOS>ATOM
      1 N1         5.5911    1.2820    1.3419 N.pl3     1 RES1    1.0000
      2 O1         5.0008    1.4046    0.1900 O.2       1 RES1   -1.0000
      3 C1         5.4583    0.3115    2.1934 C.2       1 RES1    0.0000
      4 C2         6.3298    0.5105    3.3733 C.3       1 RES1    0.0000
      5 H1         7.1033   -0.0886    3.3412 H         1 RES1    0.0000
      6 H2         5.8358    0.3466    4.2050 H         1 RES1    0.0000
      7 C3         6.7675    1.9813    3.2763 C.3       1 RES1    0.0000
      8 C4         5.7289    2.9277    3.8308 C.ar      1 RES1    0.0000
      9 C5         5.1592    3.0117    5.0855 C.ar      1 RES1    0.0000
     10 H3         5.3912    2.4137    5.7564 H         1 RES1    0.0000
     11 C6         4.2289    4.0091    5.3095 C.ar      1 RES1    0.0000
     12 H4         3.8084    4.0888    6.1989 H         1 RES1    0.0000
     13 C7         3.8875    4.8994    4.3082 C.ar      1 RES1    0.0000
     14 H5         3.2547    5.5595    4.4867 H         1 RES1    0.0000
     15 C8         4.4570    4.8351    3.0396 C.ar      1 RES1    0.0000
     16 O2         4.0575    5.7303    2.1048 O.3       1 RES1    0.0000
     17 H6         4.5100    5.7048    1.2974 H         1 RES1    0.0000
     18 C9         5.3897    3.8255    2.8408 C.ar      1 RES1    0.0000
     19 O3         6.0543    3.5993    1.6470 O.3       1 RES1    0.0000
     20 C10        6.6253    2.2995    1.7660 C.3       1 RES1    0.0000
     21 C11        7.8454    2.1569    0.8871 C.3       1 RES1    0.0000
     22 H7         7.7215    2.6893    0.0821 H         1 RES1    0.0000
     23 H8         7.9353    1.2259    0.6177 H         1 RES1    0.0000
     24 C12        9.1287    2.5994    1.5858 C.3       1 RES1    0.0000
     25 H9         9.9121    2.4022    1.0025 H         1 RES1    0.0000
     26 H10        9.0993    3.5784    1.7454 H         1 RES1    0.0000
     27 C13        9.2797    1.8702    2.9065 C.3       1 RES1    0.0000
     28 H11        9.2521    0.8855    2.7534 H         1 RES1    0.0000
     29 H12       10.1623    2.0964    3.3168 H         1 RES1    0.0000
     30 C14        8.1607    2.2750    3.8468 C.3       1 RES1    0.0000
     31 H13        8.2336    3.2475    4.0376 H         1 RES1    0.0000
     32 H14        8.2678    1.7877    4.7063 H         1 RES1    0.0000
     33 C15        4.5779   -0.8446    1.9395 C.3       1 RES1    0.0000
     34 H15        4.1326   -0.7284    1.0967 H         1 RES1    0.0000
     35 H16        3.9250   -0.9104    2.6403 H         1 RES1    0.0000
     36 H17        5.1037   -1.6472    1.9151 H         1 RES1    0.0000
@<TRIPOS>BOND
     1    1    2 1
     2    3    1 2
     3    4    3 1
     4    5    4 1
     5    6    4 1
     6    7    4 1
     7    8    7 1
     8    9    8 ar
     9   10    9 1
    10   11    9 ar
    11   12   11 1
    12   13   11 ar
    13   14   13 1
    14   15   13 ar
    15   16   15 1
    16   17   16 1
    17   18    8 ar
    18   19   18 1
    19   20    1 1
    20   21   20 1
    21   22   21 1
    22   23   21 1
    23   24   21 1
    24   25   24 1
    25   26   24 1
    26   27   24 1
    27   28   27 1
    28   29   27 1
    29   30    7 1
    30   31   30 1
    31   32   30 1
    32   33    3 1
    33   34   33 1
    34   35   33 1
    35   36   33 1
    36    7   20 1
    37   15   18 ar
    38   19   20 1
    39   27   30 1
@<TRIPOS>SUBSTRUCTURE
     1 RES1 1

@<TRIPOS>CRYSIN
   7.1610    8.2960   11.3770  77.4200  82.7800  68.7500   2 1

