# MOL2 file generated by ConQuest
# Please check atom types

@<TRIPOS>MOLECULE
HOKSUV
    66    68     1
SMALL
NO_CHARGES
****
Generated from CSD

@<TRIPOS>ATOM
      1 C1         0.9779    2.9695    2.1916 C.2       1 RES1    0.0000
      2 C2         2.0938    1.0271    1.4894 C.3       1 RES1    0.0000
      3 C3         1.9548   -0.4549    1.7770 C.3       1 RES1    0.0000
      4 H1         1.7547   -0.5823    2.7069 H         1 RES1    0.0000
      5 H2         2.7774   -0.9008    1.5625 H         1 RES1    0.0000
      6 H3         1.2446   -0.8192    1.2438 H         1 RES1    0.0000
      7 C4         2.4126    1.2294    0.0108 C.3       1 RES1    0.0000
      8 H4         2.5003    2.1682   -0.1714 H         1 RES1    0.0000
      9 H5         1.7015    0.8662   -0.5224 H         1 RES1    0.0000
     10 H6         3.2343    0.7835   -0.2037 H         1 RES1    0.0000
     11 C5         3.0135    1.8083    2.4492 C.3       1 RES1    0.0000
     12 C6         3.0355    1.2529    3.8704 C.3       1 RES1    0.0000
     13 H7         2.1359    1.1109    4.1723 H         1 RES1    0.0000
     14 H8         3.4728    1.8799    4.4515 H         1 RES1    0.0000
     15 H9         3.5136    0.4202    3.8811 H         1 RES1    0.0000
     16 C7         4.4286    2.0386    1.9603 C.3       1 RES1    0.0000
     17 H10        4.4059    2.3873    1.0664 H         1 RES1    0.0000
     18 H11        4.9090    1.2070    1.9675 H         1 RES1    0.0000
     19 H12        4.8690    2.6667    2.5379 H         1 RES1    0.0000
     20 C8        -0.0867    4.0000    2.3402 C.3       1 RES1    0.0000
     21 H13       -0.9294    3.5418    2.4876 H         1 RES1    0.0000
     22 H14        0.1039    4.5152    3.1394 H         1 RES1    0.0000
     23 C9        -0.5439    4.2772   -0.0383 C.3       1 RES1    0.0000
     24 H15       -1.2989    3.6759    0.0599 H         1 RES1    0.0000
     25 H16        0.2258    3.7541   -0.3139 H         1 RES1    0.0000
     26 C10        0.8535    5.8530    1.0844 C.3       1 RES1    0.0000
     27 H17        1.6475    5.3590    0.8244 H         1 RES1    0.0000
     28 H18        1.0322    6.2856    1.9340 H         1 RES1    0.0000
     29 N1        -0.2662    4.9332    1.2318 N.3       1 RES1    0.0000
     30 N2         2.2664    3.1115    2.5403 N.pl3     1 RES1    0.0000
     31 N3         0.7966    1.7290    1.7219 N.3       1 RES1    0.0000
     32 O1         2.7907    4.1598    3.0364 O.2       1 RES1    0.0000
     33 O2        -0.3369    1.2361    1.3696 O.2       1 RES1    0.0000
     34 C10B      -0.8535    5.3233   -1.0844 C.3       1 RES1    0.0000
     35 H17B      -1.6475    5.8173   -0.8244 H         1 RES1    0.0000
     36 H18B      -1.0322    4.8907   -1.9340 H         1 RES1    0.0000
     37 N1B        0.2662    6.2431   -1.2318 N.3       1 RES1    0.0000
     38 C8B        0.0867    7.1763   -2.3402 C.3       1 RES1    0.0000
     39 C1B       -0.9779    8.2068   -2.1916 C.2       1 RES1    0.0000
     40 N2B       -2.2664    8.0648   -2.5403 N.pl3     1 RES1    0.0000
     41 C5B       -3.0135    9.3680   -2.4492 C.3       1 RES1    0.0000
     42 C2B       -2.0938   10.1492   -1.4894 C.3       1 RES1    0.0000
     43 C3B       -1.9548   11.6312   -1.7770 C.3       1 RES1    0.0000
     44 H1B       -1.7547   11.7586   -2.7069 H         1 RES1    0.0000
     45 H2B       -2.7774   12.0771   -1.5625 H         1 RES1    0.0000
     46 H3B       -1.2446   11.9955   -1.2438 H         1 RES1    0.0000
     47 C4B       -2.4126    9.9469   -0.0108 C.3       1 RES1    0.0000
     48 H4B       -2.5003    9.0081    0.1714 H         1 RES1    0.0000
     49 H5B       -1.7015   10.3101    0.5224 H         1 RES1    0.0000
     50 H6B       -3.2343   10.3928    0.2037 H         1 RES1    0.0000
     51 N3B       -0.7966    9.4473   -1.7219 N.3       1 RES1    0.0000
     52 O2B        0.3369    9.9402   -1.3696 O.2       1 RES1    0.0000
     53 C6B       -3.0355    9.9234   -3.8704 C.3       1 RES1    0.0000
     54 H7B       -2.1359   10.0654   -4.1723 H         1 RES1    0.0000
     55 H8B       -3.4728    9.2964   -4.4515 H         1 RES1    0.0000
     56 H9B       -3.5136   10.7561   -3.8811 H         1 RES1    0.0000
     57 C7B       -4.4286    9.1377   -1.9603 C.3       1 RES1    0.0000
     58 H10B      -4.4059    8.7890   -1.0664 H         1 RES1    0.0000
     59 H11B      -4.9090    9.9693   -1.9675 H         1 RES1    0.0000
     60 H12B      -4.8690    8.5096   -2.5379 H         1 RES1    0.0000
     61 O1B       -2.7907    7.0165   -3.0364 O.2       1 RES1    0.0000
     62 H13B       0.9294    7.6345   -2.4876 H         1 RES1    0.0000
     63 H14B      -0.1039    6.6611   -3.1394 H         1 RES1    0.0000
     64 C9B        0.5439    6.8991    0.0383 C.3       1 RES1    0.0000
     65 H15B       1.2989    7.5004   -0.0599 H         1 RES1    0.0000
     66 H16B      -0.2258    7.4222    0.3139 H         1 RES1    0.0000
@<TRIPOS>BOND
     1    1   20 1
     2    2    3 1
     3    3    4 1
     4    5    3 1
     5    6    3 1
     6    7    2 1
     7    8    7 1
     8    9    7 1
     9   10    7 1
    10   11    2 1
    11   12   11 1
    12   13   12 1
    13   14   12 1
    14   15   12 1
    15   16   11 1
    16   17   16 1
    17   18   16 1
    18   19   16 1
    19   20   21 1
    20   22   20 1
    21   23   24 1
    22   25   23 1
    23   26   27 1
    24   28   26 1
    25   29   20 1
    26   30    1 2
    27   31    1 1
    28   32   30 1
    29   33   31 1
    30   34   23 1
    31   35   34 1
    32   36   34 1
    33   37   34 1
    34   38   37 1
    35   39   38 1
    36   40   39 2
    37   41   40 1
    38   42   41 1
    39   43   42 1
    40   44   43 1
    41   45   43 1
    42   46   43 1
    43   47   42 1
    44   48   47 1
    45   49   47 1
    46   50   47 1
    47   51   39 1
    48   52   51 1
    49   53   41 1
    50   54   53 1
    51   55   53 1
    52   56   53 1
    53   57   41 1
    54   58   57 1
    55   59   57 1
    56   60   57 1
    57   61   40 1
    58   62   38 1
    59   63   38 1
    60   64   26 1
    61   65   64 1
    62   66   64 1
    63    2   31 1
    64   11   30 1
    65   23   29 1
    66   26   29 1
    67   37   64 1
    68   42   51 1
@<TRIPOS>SUBSTRUCTURE
     1 RES1 1

@<TRIPOS>CRYSIN
   8.6283   11.1763   12.1170  90.0000  98.5440  90.0000  14 1

