# MOL2 file generated by ConQuest
# Please check atom types

@<TRIPOS>MOLECULE
HOLJIC
    37    38     1
SMALL
NO_CHARGES
****
Generated from CSD

@<TRIPOS>ATOM
      1 O1         4.7007   -3.0954    1.4292 O.2       1 RES1    0.0000
      2 O2         5.4656   -1.1218    0.9506 O.2       1 RES1    0.0000
      3 O3        -0.7834   -2.1320    3.9460 O.2       1 RES1    0.0000
      4 O4         0.4781   -3.8065    3.3679 O.2       1 RES1    0.0000
      5 N1         4.0474    1.0256    1.4556 N.3       1 RES1    0.0000
      6 N2         3.7400    2.3753    1.5446 N.2       1 RES1    0.0000
      7 N3         4.5797   -1.8751    1.4008 N.pl3     1 RES1    0.0000
      8 N4         0.2463   -2.6015    3.4442 N.pl3     1 RES1    0.0000
      9 C1         1.8986    0.5825    2.4411 C.ar      1 RES1    0.0000
     10 H1         1.7131    1.5144    2.4545 H         1 RES1    0.0000
     11 C2         0.9647   -0.2943    2.9316 C.ar      1 RES1    0.0000
     12 H2         0.1408    0.0285    3.2767 H         1 RES1    0.0000
     13 C3         1.2320   -1.6710    2.9218 C.ar      1 RES1    0.0000
     14 C4         2.4153   -2.1683    2.4222 C.ar      1 RES1    0.0000
     15 H3         2.5856   -3.1023    2.4248 H         1 RES1    0.0000
     16 C5         3.3593   -1.2784    1.9126 C.ar      1 RES1    0.0000
     17 C6         3.1403    0.1284    1.9122 C.ar      1 RES1    0.0000
     18 C7         4.6913    3.2131    1.2880 C.2       1 RES1    0.0000
     19 C8         6.0969    2.8182    0.9103 C.3       1 RES1    0.0000
     20 H4         6.0993    2.5587   -0.0450 H         1 RES1    0.0000
     21 H5         6.3437    2.0152    1.4338 H         1 RES1    0.0000
     22 C9         7.1816    3.8806    1.1221 C.3       1 RES1    0.0000
     23 H6         7.0703    4.2630    2.0285 H         1 RES1    0.0000
     24 H7         8.0648    3.4346    1.0946 H         1 RES1    0.0000
     25 C10        7.1911    5.0320    0.1104 C.3       1 RES1    0.0000
     26 H8         8.0749    5.4759    0.1503 H         1 RES1    0.0000
     27 H9         7.0911    4.6499   -0.7981 H         1 RES1    0.0000
     28 C11        6.1096    6.0909    0.3110 C.3       1 RES1    0.0000
     29 H10        6.2482    6.5203    1.1919 H         1 RES1    0.0000
     30 H11        6.2197    6.7885   -0.3818 H         1 RES1    0.0000
     31 C12        4.6797    5.5649    0.2470 C.3       1 RES1    0.0000
     32 H12        4.5640    5.0581   -0.5955 H         1 RES1    0.0000
     33 H13        4.0580    6.3351    0.2218 H         1 RES1    0.0000
     34 C13        4.2966    4.6582    1.4277 C.3       1 RES1    0.0000
     35 H14        4.7166    5.0201    2.2479 H         1 RES1    0.0000
     36 H15        3.3151    4.7045    1.5511 H         1 RES1    0.0000
     37 H16        4.8167    0.7026    1.1509 H         1 RES1    0.0000
@<TRIPOS>BOND
     1    1    7 2
     2    2    7 2
     3    3    8 2
     4    4    8 2
     5    5    6 1
     6    6   18 2
     7    7   16 1
     8    8   13 1
     9    9   10 1
    10   11    9 ar
    11   12   11 1
    12   13   11 ar
    13   14   13 ar
    14   15   14 1
    15   16   14 ar
    16   17    5 1
    17   18   19 1
    18   19   20 1
    19   21   19 1
    20   22   19 1
    21   23   22 1
    22   24   22 1
    23   25   22 1
    24   26   25 1
    25   27   25 1
    26   28   25 1
    27   29   28 1
    28   30   28 1
    29   31   28 1
    30   32   31 1
    31   33   31 1
    32   34   18 1
    33   35   34 1
    34   36   34 1
    35   37    5 1
    36    9   17 ar
    37   16   17 ar
    38   31   34 1
@<TRIPOS>SUBSTRUCTURE
     1 RES1 1

@<TRIPOS>CRYSIN
   6.9721   23.7359    8.2274  90.0000 102.3510  90.0000 231 1

