# MOL2 file generated by ConQuest
# Please check atom types

@<TRIPOS>MOLECULE
HOLRUW
    51    54     1
SMALL
NO_CHARGES
****
Generated from CSD

@<TRIPOS>ATOM
      1 N1        -1.0545    1.3396    3.7953 N.2       1 RES1    0.0000
      2 O1         0.2312    3.3335    1.2382 O.3       1 RES1    0.0000
      3 O2         1.1902    5.0266    2.4952 O.3       1 RES1    0.0000
      4 O3         0.5499    3.9378    4.3732 O.3       1 RES1    0.0000
      5 O4        -1.1801    1.7309    5.1436 O.3       1 RES1    0.0000
      6 O5        -2.6555    3.3665    1.2973 O.3       1 RES1    0.0000
      7 O6        -4.1047    1.6715    0.9635 O.3       1 RES1    0.0000
      8 C1        -0.0103    4.3928    2.1608 C.3       1 RES1    0.0000
      9 H1        -0.6608    5.0326    1.8028 H         1 RES1    0.0000
     10 C2        -0.5093    3.7668    3.4498 C.3       1 RES1    0.0000
     11 H2        -1.3299    4.2019    3.7639 H         1 RES1    0.0000
     12 C3        -0.7603    2.3353    3.0735 C.2       1 RES1    0.0000
     13 C4        -0.5833    2.2081    1.5804 C.3       1 RES1    0.0000
     14 H3        -0.1087    1.3768    1.3702 H         1 RES1    0.0000
     15 C5        -1.8887    2.2675    0.8092 C.3       1 RES1    0.0000
     16 H4        -1.7041    2.3918   -0.1447 H         1 RES1    0.0000
     17 C6        -2.8273    1.1007    0.9976 C.3       1 RES1    0.0000
     18 H5        -2.7197    0.4525    0.2839 H         1 RES1    0.0000
     19 H6        -2.6663    0.6620    1.8479 H         1 RES1    0.0000
     20 C7         1.7018    4.4306    3.6853 C.3       1 RES1    0.0000
     21 C8         2.3022    5.5253    4.5309 C.3       1 RES1    0.0000
     22 H7         2.6557    5.1472    5.3402 H         1 RES1    0.0000
     23 H8         1.6255    6.1700    4.7479 H         1 RES1    0.0000
     24 H9         3.0091    5.9551    4.0437 H         1 RES1    0.0000
     25 C9         2.6405    3.2980    3.3641 C.3       1 RES1    0.0000
     26 H10        2.9733    2.9169    4.1802 H         1 RES1    0.0000
     27 H11        3.3751    3.6299    2.8441 H         1 RES1    0.0000
     28 H12        2.1719    2.6258    2.8646 H         1 RES1    0.0000
     29 C10       -1.5508    0.5840    5.9130 C.3       1 RES1    0.0000
     30 H13       -1.3871    0.7712    6.8510 H         1 RES1    0.0000
     31 H14       -0.9828   -0.1597    5.6582 H         1 RES1    0.0000
     32 C11       -2.9882    0.1777    5.7420 C.ar      1 RES1    0.0000
     33 C12       -3.3814   -1.0431    6.2314 C.ar      1 RES1    0.0000
     34 H15       -2.7536   -1.6049    6.6272 H         1 RES1    0.0000
     35 C13       -4.7047   -1.4471    6.1441 C.ar      1 RES1    0.0000
     36 H16       -4.9606   -2.2741    6.4839 H         1 RES1    0.0000
     37 C14       -5.6174   -0.6470    5.5695 C.ar      1 RES1    0.0000
     38 H17       -6.5091   -0.9093    5.5381 H         1 RES1    0.0000
     39 C15       -5.2427    0.5402    5.0359 C.ar      1 RES1    0.0000
     40 H18       -5.8687    1.0773    4.6074 H         1 RES1    0.0000
     41 C16       -3.9119    0.9543    5.1328 C.ar      1 RES1    0.0000
     42 H19       -3.6591    1.7742    4.7739 H         1 RES1    0.0000
     43 C17       -4.0118    3.0772    0.9676 C.3       1 RES1    0.0000
     44 C18       -4.8835    3.6810    2.0294 C.3       1 RES1    0.0000
     45 H20       -4.8174    4.6383    1.9898 H         1 RES1    0.0000
     46 H21       -4.5950    3.3749    2.8919 H         1 RES1    0.0000
     47 H22       -5.7944    3.4169    1.8833 H         1 RES1    0.0000
     48 C19       -4.3306    3.5927   -0.4135 C.3       1 RES1    0.0000
     49 H23       -4.2687    4.5506   -0.4190 H         1 RES1    0.0000
     50 H24       -5.2198    3.3281   -0.6564 H         1 RES1    0.0000
     51 H25       -3.7040    3.2278   -1.0440 H         1 RES1    0.0000
@<TRIPOS>BOND
     1    1    5 1
     2    2    8 1
     3    3    8 1
     4    4   10 1
     5    5   29 1
     6    6   15 1
     7    7   17 1
     8    8    9 1
     9   10    8 1
    10   11   10 1
    11   12    1 2
    12   13    2 1
    13   14   13 1
    14   15   13 1
    15   16   15 1
    16   17   15 1
    17   18   17 1
    18   19   17 1
    19   20    3 1
    20   21   20 1
    21   22   21 1
    22   23   21 1
    23   24   21 1
    24   25   20 1
    25   26   25 1
    26   27   25 1
    27   28   25 1
    28   29   30 1
    29   31   29 1
    30   32   29 1
    31   33   32 ar
    32   34   33 1
    33   35   33 ar
    34   36   35 1
    35   37   35 ar
    36   38   37 1
    37   39   37 ar
    38   40   39 1
    39   41   32 ar
    40   42   41 1
    41   43    6 1
    42   44   43 1
    43   45   44 1
    44   46   44 1
    45   47   44 1
    46   48   43 1
    47   49   48 1
    48   50   48 1
    49   51   48 1
    50    4   20 1
    51    7   43 1
    52   10   12 1
    53   12   13 1
    54   39   41 ar
@<TRIPOS>SUBSTRUCTURE
     1 RES1 1

@<TRIPOS>CRYSIN
  11.8012    6.0019   13.7021  90.0000  95.1220  90.0000   4 1

