# MOL2 file generated by ConQuest
# Please check atom types

@<TRIPOS>MOLECULE
HOLXUD
    47    47     1
SMALL
NO_CHARGES
****
Generated from CSD

@<TRIPOS>ATOM
      1 O1         8.3848    4.5150    0.9569 O.2       1 RES1    0.0000
      2 O2         4.8388    1.6155    2.4915 O.3       1 RES1    0.0000
      3 O3         3.2761   -0.0945    1.1243 O.2       1 RES1    0.0000
      4 O4         0.7961   -0.8773    3.5468 O.2       1 RES1    0.0000
      5 N1         3.5815    1.9882    1.9668 N.am      1 RES1    0.0000
      6 C1        10.5224    3.2499   -0.2748 C.3       1 RES1    0.0000
      7 H1         9.8845    3.6459   -0.8725 H         1 RES1    0.0000
      8 H2        11.0255    2.5786   -0.7416 H         1 RES1    0.0000
      9 H3        11.1189    3.9275    0.0509 H         1 RES1    0.0000
     10 C2         9.8079    2.6256    0.8711 C.3       1 RES1    0.0000
     11 H4        10.4437    2.4715    1.5865 H         1 RES1    0.0000
     12 H5         9.4678    1.7614    0.5904 H         1 RES1    0.0000
     13 C3         8.6677    3.4351    1.4106 C.2       1 RES1    0.0000
     14 C4         7.8744    2.8190    2.5391 C.3       1 RES1    0.0000
     15 H6         8.4619    2.6804    3.2981 H         1 RES1    0.0000
     16 H7         7.5460    1.9509    2.2569 H         1 RES1    0.0000
     17 C5         6.6940    3.6697    2.9797 C.3       1 RES1    0.0000
     18 H8         6.1131    3.8248    2.2191 H         1 RES1    0.0000
     19 H9         7.0203    4.5310    3.2851 H         1 RES1    0.0000
     20 C6         5.8954    3.0182    4.0929 C.ar      1 RES1    0.0000
     21 C7         4.9648    2.0280    3.8355 C.ar      1 RES1    0.0000
     22 C8         4.2093    1.4022    4.8364 C.ar      1 RES1    0.0000
     23 C9         3.1644    0.3592    4.5531 C.3       1 RES1    0.0000
     24 H10        3.2607   -0.3756    5.1784 H         1 RES1    0.0000
     25 H11        3.2857    0.0107    3.6573 H         1 RES1    0.0000
     26 C10        1.7743    0.9626    4.6826 C.3       1 RES1    0.0000
     27 H12        1.6111    1.1439    5.6220 H         1 RES1    0.0000
     28 H13        1.7710    1.8147    4.2201 H         1 RES1    0.0000
     29 C11        0.6401    0.1556    4.1678 C.2       1 RES1    0.0000
     30 C12       -0.7276    0.7081    4.4223 C.3       1 RES1    0.0000
     31 H14       -0.8339    0.8143    5.3806 H         1 RES1    0.0000
     32 H15       -0.7715    1.5932    4.0282 H         1 RES1    0.0000
     33 C13       -1.8750   -0.0717    3.9191 C.3       1 RES1    0.0000
     34 H16       -1.8701   -0.0645    2.9593 H         1 RES1    0.0000
     35 H17       -2.6919    0.3184    4.2390 H         1 RES1    0.0000
     36 H18       -1.8077   -0.9767    4.2318 H         1 RES1    0.0000
     37 C14        2.9392    1.0722    1.2298 C.2       1 RES1    0.0000
     38 C15        1.6953    1.6199    0.5788 C.3       1 RES1    0.0000
     39 H19        1.7258    1.4493   -0.3650 H         1 RES1    0.0000
     40 H20        1.6437    2.5665    0.7315 H         1 RES1    0.0000
     41 H21        0.9219    1.1933    0.9569 H         1 RES1    0.0000
     42 C16        4.4332    1.8370    6.1426 C.ar      1 RES1    0.0000
     43 H22        3.9538    1.4473    6.8377 H         1 RES1    0.0000
     44 C17        5.3378    2.8205    6.4291 C.ar      1 RES1    0.0000
     45 H23        5.4591    3.0953    7.3089 H         1 RES1    0.0000
     46 C18        6.0717    3.4060    5.4198 C.ar      1 RES1    0.0000
     47 H24        6.6918    4.0676    5.6278 H         1 RES1    0.0000
@<TRIPOS>BOND
     1    1   13 2
     2    2    5 1
     3    3   37 2
     4    4   29 2
     5    5   37 1
     6    6    7 1
     7    8    6 1
     8    9    6 1
     9   10    6 1
    10   11   10 1
    11   12   10 1
    12   13   10 1
    13   14   13 1
    14   15   14 1
    15   16   14 1
    16   17   14 1
    17   18   17 1
    18   19   17 1
    19   20   17 1
    20   21    2 1
    21   22   21 ar
    22   23   22 1
    23   24   23 1
    24   25   23 1
    25   26   23 1
    26   27   26 1
    27   28   26 1
    28   29   26 1
    29   30   29 1
    30   31   30 1
    31   32   30 1
    32   33   30 1
    33   34   33 1
    34   35   33 1
    35   36   33 1
    36   37   38 1
    37   38   39 1
    38   40   38 1
    39   41   38 1
    40   42   22 ar
    41   43   42 1
    42   44   42 ar
    43   45   44 1
    44   46   20 ar
    45   47   46 1
    46   20   21 ar
    47   44   46 ar
@<TRIPOS>SUBSTRUCTURE
     1 RES1 1

@<TRIPOS>CRYSIN
  12.7071    4.8470   14.6978  90.0000  98.3470  90.0000   7 1

