# MOL2 file generated by ConQuest
# Please check atom types

@<TRIPOS>MOLECULE
HOMDAP
    31    33     1
SMALL
NO_CHARGES
****
Generated from CSD

@<TRIPOS>ATOM
      1 C1         3.5341    0.6096    9.1304 C.2       1 RES1    0.0000
      2 H1         3.0436    1.1234    8.4989 H         1 RES1    0.0000
      3 C2         2.9407    0.2851   10.2571 C.2       1 RES1    0.0000
      4 H2         2.0619    0.6124   10.4110 H         1 RES1    0.0000
      5 C3         3.5650   -0.5641   11.3040 C.3       1 RES1    0.0000
      6 H3         3.3996   -1.5157   11.0468 H         1 RES1    0.0000
      7 C4         5.0645   -0.3801   11.3837 C.3       1 RES1    0.0000
      8 H4         5.4780   -1.1933   11.7924 H         1 RES1    0.0000
      9 C5         5.7585   -0.0673   10.0652 C.3       1 RES1    0.0000
     10 H5         6.4971   -0.7158    9.8833 H         1 RES1    0.0000
     11 C6         4.9372    0.2200    8.7794 C.3       1 RES1    0.0000
     12 C7         5.6707    1.4143    8.1119 C.3       1 RES1    0.0000
     13 H6         6.1296    1.1100    7.2895 H         1 RES1    0.0000
     14 H7         5.0163    2.1138    7.8616 H         1 RES1    0.0000
     15 C8         6.6984    1.9900    9.1006 C.3       1 RES1    0.0000
     16 H8         7.6032    1.6554    8.8369 H         1 RES1    0.0000
     17 C9         6.2914    1.2837   10.3466 C.2       1 RES1    0.0000
     18 C10        4.7991   -2.1658    8.1857 C.2       1 RES1    0.0000
     19 C11        4.9091   -3.1769    7.0916 C.3       1 RES1    0.0000
     20 H9         5.6794   -3.7587    7.2613 H         1 RES1    0.0000
     21 H10        5.0292   -2.7186    6.2341 H         1 RES1    0.0000
     22 H11        4.0921   -3.7166    7.0627 H         1 RES1    0.0000
     23 N1         6.0440    1.7685   11.4816 N.2       1 RES1    0.0000
     24 N2         4.9559   -0.8983    7.8355 N.am      1 RES1    0.0000
     25 O1         5.3469    0.7855   12.2259 O.3       1 RES1    0.0000
     26 O2         2.9573   -0.3619   12.5763 O.3       1 RES1    0.0000
     27 O3         6.7502    3.3775    9.1502 O.3       1 RES1    0.0000
     28 O4         4.6006   -2.5111    9.3416 O.2       1 RES1    0.0000
     29 H12        5.0990   -0.6794    7.0360 H         1 RES1    0.0000
     30 H13        6.0195    3.6171    9.3512 H         1 RES1    0.0000
     31 H14        2.9343    0.4976   12.7054 H         1 RES1    0.0000
@<TRIPOS>BOND
     1    1    2 1
     2    3    1 2
     3    4    3 1
     4    5    3 1
     5    6    5 1
     6    7    5 1
     7    8    7 1
     8    9    7 1
     9   10    9 1
    10   11    1 1
    11   12   11 1
    12   13   12 1
    13   14   12 1
    14   15   12 1
    15   16   15 1
    16   17    9 1
    17   18   19 1
    18   19   20 1
    19   21   19 1
    20   22   19 1
    21   23   17 2
    22   24   11 1
    23   25    7 1
    24   26    5 1
    25   27   15 1
    26   28   18 2
    27   29   24 1
    28   30   27 1
    29   31   26 1
    30    9   11 1
    31   15   17 1
    32   18   24 1
    33   23   25 1
@<TRIPOS>SUBSTRUCTURE
     1 RES1 1

@<TRIPOS>CRYSIN
   7.1918    9.5690   14.8220  90.0000  90.0000  90.0000  19 1

