# MOL2 file generated by ConQuest
# Please check atom types

@<TRIPOS>MOLECULE
HOMDIW
    15    18     1
SMALL
NO_CHARGES
****
Generated from CSD

@<TRIPOS>ATOM
      1 N1         7.9669    1.3647    2.9742 N.pl3     1 RES1    0.0000
      2 C1         7.8593    0.1720    2.2487 C.2       1 RES1    0.0000
      3 N2         8.7621   -0.7536    2.0991 N.2       1 RES1    0.0000
      4 O1         8.1248   -1.6356    1.2593 O.3       1 RES1    0.0000
      5 N3         6.8659   -1.2382    0.8995 N.2       1 RES1    0.0000
      6 C2         6.7118   -0.1021    1.5140 C.2       1 RES1    0.0000
      7 N4         5.6580    0.7908    1.5468 N.pl3     1 RES1    0.0000
      8 C3         4.3966    0.7818    0.9651 C.2       1 RES1    0.0000
      9 N5         3.7838    1.8885    1.3291 N.2       1 RES1    0.0000
     10 N6         4.6054    2.6504    2.1588 N.2       1 RES1    0.0000
     11 C4         5.6992    1.9507    2.2580 C.2       1 RES1    0.0000
     12 C5         6.9341    2.2492    3.0213 C.2       1 RES1    0.0000
     13 N7         7.1851    3.2763    3.7913 N.2       1 RES1    0.0000
     14 N8         8.4559    3.0368    4.2906 N.2       1 RES1    0.0000
     15 C6         8.9319    1.9289    3.8182 C.2       1 RES1    0.0000
@<TRIPOS>BOND
     1    1    2 1
     2    2    3 2
     3    3    4 1
     4    4    5 1
     5    5    6 2
     6    6    2 1
     7    7    6 1
     8    8    7 1
     9    9    8 2
    10   10    9 1
    11   11    7 1
    12   12    1 1
    13   13   12 2
    14   14   13 1
    15   15    1 1
    16   10   11 2
    17   11   12 1
    18   14   15 2
@<TRIPOS>SUBSTRUCTURE
     1 RES1 1

@<TRIPOS>CRYSIN
   7.2040    6.4190    8.5620  90.0000 100.9400  90.0000   4 1

