# MOL2 file generated by ConQuest
# Please check atom types

@<TRIPOS>MOLECULE
HOPLAA
    12    12     1
SMALL
NO_CHARGES
****
Generated from CSD

@<TRIPOS>ATOM
      1 O1         4.9236    1.4360    5.8331 O.2       1 RES1    0.0000
      2 O2         3.7001    3.2234    5.9555 O.2       1 RES1    0.0000
      3 N1         4.4718    1.9492    1.9364 N.3       1 RES1    0.0000
      4 N2         3.5486    3.3447    3.2295 N.2       1 RES1    0.0000
      5 N3         4.8156    1.5034    3.1295 N.2       1 RES1    0.0000
      6 N4         3.7177    3.0437    1.9585 N.2       1 RES1    0.0000
      7 N5         4.2843    2.3502    5.3319 N.pl3     1 RES1    0.0000
      8 C1         4.2172    2.4026    3.8895 C.2       1 RES1    0.0000
      9 C2         4.8587    1.2982    0.6877 C.3       1 RES1    0.0000
     10 H1         5.8344    1.2432    0.6261 H         1 RES1    0.0000
     11 H2         4.5132    0.3795    0.6618 H         1 RES1    0.0000
     12 H3         4.5477    1.8574   -0.0699 H         1 RES1    0.0000
@<TRIPOS>BOND
     1    1    7 2
     2    2    7 2
     3    3    5 1
     4    4    6 2
     5    5    8 2
     6    6    3 1
     7    7    8 1
     8    8    4 1
     9    9    3 1
    10   10    9 1
    11   11    9 1
    12   12    9 1
@<TRIPOS>SUBSTRUCTURE
     1 RES1 1

@<TRIPOS>CRYSIN
   6.3305    4.9929   16.3880  90.0000  97.1300  90.0000  14 1

