# MOL2 file generated by ConQuest
# Please check atom types

@<TRIPOS>MOLECULE
HOPWUG
    40    41     1
SMALL
NO_CHARGES
****
Generated from CSD

@<TRIPOS>ATOM
      1 H1        11.4377    0.5886    2.2894 H         1 RES1    0.0000
      2 H2        21.4705   -4.8738    6.8882 H         1 RES1    0.0000
      3 H3        20.7858   -3.6177    6.2945 H         1 RES1    0.0000
      4 O1        11.8481    0.7217    1.5732 O.3       1 RES1    0.0000
      5 O2        21.6199   -6.8916    7.2972 O.2       1 RES1    0.0000
      6 N1        14.6843   -3.1962    2.5938 N.3       1 RES1    0.0000
      7 N2        17.0671   -4.6107    3.4449 N.3       1 RES1    0.0000
      8 C1        13.3366   -1.1426    2.0920 C.3       1 RES1    0.0000
      9 H4        12.9485   -1.2210    2.9776 H         1 RES1    0.0000
     10 H5        14.0990   -0.5455    2.1510 H         1 RES1    0.0000
     11 C2        19.8962   -6.6790    5.7757 C.ar      1 RES1    0.0000
     12 O3        20.6549   -8.6917    6.5791 O.2       1 RES1    0.0000
     13 C3        15.9627   -2.4951    2.7172 C.3       1 RES1    0.0000
     14 H6        15.7995   -1.5849    3.0108 H         1 RES1    0.0000
     15 H7        16.3883   -2.4548    1.8475 H         1 RES1    0.0000
     16 N3        20.8935   -4.5099    6.3463 N.pl3     1 RES1    0.0000
     17 C4        18.9730   -4.6063    4.9556 C.ar      1 RES1    0.0000
     18 H8        18.9722   -3.6765    4.9395 H         1 RES1    0.0000
     19 C5        18.0140   -6.7060    4.2576 C.ar      1 RES1    0.0000
     20 H9        17.3961   -7.1887    3.7575 H         1 RES1    0.0000
     21 C6        12.3071   -0.5542    1.1406 C.3       1 RES1    0.0000
     22 H10       12.7001   -0.4694    0.2582 H         1 RES1    0.0000
     23 H11       11.5522   -1.1592    1.0742 H         1 RES1    0.0000
     24 C7        13.8038   -2.5141    1.6220 C.3       1 RES1    0.0000
     25 H12       13.0279   -3.0714    1.4562 H         1 RES1    0.0000
     26 H13       14.2797   -2.4139    0.7827 H         1 RES1    0.0000
     27 C8        14.9873   -4.5433    2.0988 C.3       1 RES1    0.0000
     28 H14       15.4624   -4.4769    1.2552 H         1 RES1    0.0000
     29 H15       14.1582   -5.0209    1.9393 H         1 RES1    0.0000
     30 C9        18.9292   -7.3632    5.0275 C.ar      1 RES1    0.0000
     31 H16       18.9099   -8.2926    5.0567 H         1 RES1    0.0000
     32 C10       19.9567   -5.2614    5.7256 C.ar      1 RES1    0.0000
     33 C11       16.9015   -3.1769    3.7023 C.3       1 RES1    0.0000
     34 H17       17.7695   -2.7470    3.6591 H         1 RES1    0.0000
     35 H18       16.5558   -3.0563    4.6014 H         1 RES1    0.0000
     36 C12       15.8322   -5.3208    3.0914 C.3       1 RES1    0.0000
     37 H19       15.3144   -5.4782    3.8960 H         1 RES1    0.0000
     38 H20       16.0584   -6.1830    2.7100 H         1 RES1    0.0000
     39 N4        20.7669   -7.4525    6.5868 N.pl3     1 RES1    0.0000
     40 C13       18.0027   -5.2794    4.2180 C.ar      1 RES1    0.0000
@<TRIPOS>BOND
     1    1    4 1
     2    2   16 1
     3    3   16 1
     4    4   21 1
     5    5   39 2
     6    6   13 1
     7    7   33 1
     8    8    9 1
     9   10    8 1
    10   11   30 ar
    11   12   39 2
    12   13   14 1
    13   15   13 1
    14   16   32 1
    15   17   18 1
    16   19   20 1
    17   21    8 1
    18   22   21 1
    19   23   21 1
    20   24    6 1
    21   25   24 1
    22   26   24 1
    23   27    6 1
    24   28   27 1
    25   29   27 1
    26   30   19 ar
    27   31   30 1
    28   32   11 ar
    29   33   13 1
    30   34   33 1
    31   35   33 1
    32   36    7 1
    33   37   36 1
    34   38   36 1
    35   39   11 1
    36   40    7 1
    37    8   24 1
    38   17   32 ar
    39   17   40 ar
    40   19   40 ar
    41   27   36 1
@<TRIPOS>SUBSTRUCTURE
     1 RES1 1

@<TRIPOS>CRYSIN
  13.8338    7.1779   14.2283  90.0000 110.6920  90.0000  14 1

