# MOL2 file generated by ConQuest
# Please check atom types

@<TRIPOS>MOLECULE
HORWES
    21    21     1
SMALL
NO_CHARGES
****
Generated from CSD

@<TRIPOS>ATOM
      1 O1         1.6569    2.9846   12.1961 O.3       1 RES1    0.0000
      2 H1         1.0785    2.4471   11.7918 H         1 RES1    0.0000
      3 O2         6.3990    1.1017    7.8812 O.3       1 RES1    0.0000
      4 H2         6.8105    1.2603    7.1329 H         1 RES1    0.0000
      5 N1         6.2964    4.8936    9.4947 N.pl3     1 RES1    0.0000
      6 H3         6.9204    4.8022    8.8596 H         1 RES1    0.0000
      7 N2         5.0464    5.8199   11.0503 N.2       1 RES1    0.0000
      8 N3         2.6031    3.2935   11.1899 N.2       1 RES1    0.0000
      9 N4         3.5573    4.3998   13.0085 N.pl3     1 RES1    0.0000
     10 H4         2.8560    4.3146   13.4040 H         1 RES1    0.0000
     11 H5         4.1243    4.9862   13.3060 H         1 RES1    0.0000
     12 N5         6.4027    2.4437    8.3926 N.2       1 RES1    0.0000
     13 N6         4.6753    1.5852    9.7735 N.pl3     1 RES1    0.0000
     14 H6         4.5936    0.8096    9.2598 H         1 RES1    0.0000
     15 H7         3.9046    1.8491   10.2178 H         1 RES1    0.0000
     16 C1         6.0377    6.0033   10.2108 C.2       1 RES1    0.0000
     17 H8         6.5409    6.7709   10.1016 H         1 RES1    0.0000
     18 C2         4.6304    4.5167   10.8592 C.2       1 RES1    0.0000
     19 C3         5.4105    3.9175    9.8885 C.2       1 RES1    0.0000
     20 C4         3.5390    4.0259   11.7109 C.2       1 RES1    0.0000
     21 C5         5.4957    2.5729    9.3006 C.2       1 RES1    0.0000
@<TRIPOS>BOND
     1    1    2 1
     2    3    4 1
     3    5    6 1
     4    7   16 2
     5    8    1 1
     6    9   10 1
     7   11    9 1
     8   12    3 1
     9   13   14 1
    10   15   13 1
    11   16    5 1
    12   17   16 1
    13   18    7 1
    14   19    5 1
    15   20    8 2
    16   21   12 2
    17    9   20 1
    18   13   21 1
    19   18   19 2
    20   18   20 1
    21   19   21 1
@<TRIPOS>SUBSTRUCTURE
     1 RES1 1

@<TRIPOS>CRYSIN
   9.9861    9.1996   16.6035  90.0000  90.0000  90.0000  61 1

