# MOL2 file generated by ConQuest
# Please check atom types

@<TRIPOS>MOLECULE
HOSCIC
    55    59     1
SMALL
NO_CHARGES
****
Generated from CSD

@<TRIPOS>ATOM
      1 O1        -2.2774   -5.5931    6.3708 O.2       1 RES1    0.0000
      2 O2        -1.5699   -4.4801    4.6661 O.2       1 RES1    0.0000
      3 N1        -4.0235    0.2468    7.9745 N.pl3     1 RES1    0.0000
      4 N2        -2.1184   -4.5562    5.7546 N.pl3     1 RES1    0.0000
      5 C1        -4.8206    1.1217    7.2470 C.2       1 RES1    0.0000
      6 C2        -4.8601    2.2906    7.9318 C.2       1 RES1    0.0000
      7 H1        -5.3424    3.0467    7.6837 H         1 RES1    0.0000
      8 C3        -4.0452    2.1737    9.0915 C.2       1 RES1    0.0000
      9 C4        -3.5426    0.9014    9.1023 C.2       1 RES1    0.0000
     10 C5        -2.6749    0.2064   10.0957 C.3       1 RES1    0.0000
     11 H2        -3.0717   -0.6553   10.2969 H         1 RES1    0.0000
     12 H3        -2.6758    0.7247   10.9155 H         1 RES1    0.0000
     13 C6        -1.2416   -0.0204    9.6780 C.ar      1 RES1    0.0000
     14 C7        -0.5078   -1.0199   10.2710 C.ar      1 RES1    0.0000
     15 H4        -0.9066   -1.5724   10.9036 H         1 RES1    0.0000
     16 C8         0.8192   -1.2096    9.9329 C.ar      1 RES1    0.0000
     17 H5         1.3103   -1.8825   10.3460 H         1 RES1    0.0000
     18 C9         1.4117   -0.4202    9.0020 C.ar      1 RES1    0.0000
     19 H6         2.3000   -0.5664    8.7666 H         1 RES1    0.0000
     20 C10        0.7143    0.5775    8.4166 C.ar      1 RES1    0.0000
     21 H7         1.1265    1.1328    7.7939 H         1 RES1    0.0000
     22 C11       -0.6137    0.7682    8.7491 C.ar      1 RES1    0.0000
     23 H8        -1.0940    1.4484    8.3328 H         1 RES1    0.0000
     24 C12       -5.4811    0.7385    5.9934 C.ar      1 RES1    0.0000
     25 C13       -5.3957    1.5633    4.8863 C.ar      1 RES1    0.0000
     26 H9        -4.8876    2.3415    4.9281 H         1 RES1    0.0000
     27 C14       -6.0563    1.2402    3.7210 C.ar      1 RES1    0.0000
     28 H10       -6.0080    1.8131    2.9894 H         1 RES1    0.0000
     29 C15       -6.7845    0.0805    3.6324 C.ar      1 RES1    0.0000
     30 H11       -7.2163   -0.1416    2.8403 H         1 RES1    0.0000
     31 C16       -6.8686   -0.7469    4.7224 C.ar      1 RES1    0.0000
     32 H12       -7.3664   -1.5308    4.6705 H         1 RES1    0.0000
     33 C17       -6.2193   -0.4239    5.8919 C.ar      1 RES1    0.0000
     34 H13       -6.2793   -0.9958    6.6228 H         1 RES1    0.0000
     35 C18       -3.8441    3.2374   10.0847 C.ar      1 RES1    0.0000
     36 C19       -4.8970    4.0167   10.5020 C.ar      1 RES1    0.0000
     37 H14       -5.7500    3.8427   10.1715 H         1 RES1    0.0000
     38 C20       -4.7228    5.0505   11.3986 C.ar      1 RES1    0.0000
     39 H15       -5.4541    5.5586   11.6662 H         1 RES1    0.0000
     40 C21       -3.4766    5.3318   11.8975 C.ar      1 RES1    0.0000
     41 H16       -3.3505    6.0343   12.4932 H         1 RES1    0.0000
     42 C22       -2.4307    4.5664   11.5047 C.ar      1 RES1    0.0000
     43 H17       -1.5838    4.7404   11.8492 H         1 RES1    0.0000
     44 C23       -2.5942    3.5373   10.6045 C.ar      1 RES1    0.0000
     45 H18       -1.8564    3.0356   10.3427 H         1 RES1    0.0000
     46 C24       -3.5274   -0.9820    7.4537 C.ar      1 RES1    0.0000
     47 C25       -2.7748   -0.9496    6.2949 C.ar      1 RES1    0.0000
     48 H19       -2.5794   -0.1351    5.8907 H         1 RES1    0.0000
     49 C26       -2.3113   -2.1212    5.7365 C.ar      1 RES1    0.0000
     50 H20       -1.8131   -2.1092    4.9502 H         1 RES1    0.0000
     51 C27       -2.6001   -3.3077    6.3649 C.ar      1 RES1    0.0000
     52 C28       -3.3266   -3.3623    7.5203 C.ar      1 RES1    0.0000
     53 H21       -3.4993   -4.1777    7.9328 H         1 RES1    0.0000
     54 C29       -3.8001   -2.1860    8.0664 C.ar      1 RES1    0.0000
     55 H22       -4.3021   -2.2064    8.8479 H         1 RES1    0.0000
@<TRIPOS>BOND
     1    1    4 2
     2    2    4 2
     3    3    5 1
     4    4   51 1
     5    5    6 2
     6    6    7 1
     7    8    6 1
     8    9    3 1
     9   10    9 1
    10   11   10 1
    11   12   10 1
    12   13   10 1
    13   14   13 ar
    14   15   14 1
    15   16   14 ar
    16   17   16 1
    17   18   16 ar
    18   19   18 1
    19   20   18 ar
    20   21   20 1
    21   22   13 ar
    22   23   22 1
    23   24    5 1
    24   25   24 ar
    25   26   25 1
    26   27   25 ar
    27   28   27 1
    28   29   27 ar
    29   30   29 1
    30   31   29 ar
    31   32   31 1
    32   33   24 ar
    33   34   33 1
    34   35    8 1
    35   36   35 ar
    36   37   36 1
    37   38   36 ar
    38   39   38 1
    39   40   38 ar
    40   41   40 1
    41   42   40 ar
    42   43   42 1
    43   44   35 ar
    44   45   44 1
    45   46    3 1
    46   47   46 ar
    47   48   47 1
    48   49   47 ar
    49   50   49 1
    50   51   49 ar
    51   52   51 ar
    52   53   52 1
    53   54   46 ar
    54   55   54 1
    55    8    9 2
    56   20   22 ar
    57   31   33 ar
    58   42   44 ar
    59   52   54 ar
@<TRIPOS>SUBSTRUCTURE
     1 RES1 1

@<TRIPOS>CRYSIN
  29.0490    9.2550   21.0890  90.0000 126.5260  90.0000  15 1

