# MOL2 file generated by ConQuest
# Please check atom types

@<TRIPOS>MOLECULE
HOTFUS
    45    49     1
SMALL
NO_CHARGES
****
Generated from CSD

@<TRIPOS>ATOM
      1 N1         2.7357    7.4644    2.8941 N.3       1 RES1    0.0000
      2 O1         2.7334    8.0513    4.0327 O.2       1 RES1    0.0000
      3 C1         3.3284    5.4909    1.5786 C.ar      1 RES1    0.0000
      4 C2         1.0977    5.6842    2.7996 C.ar      1 RES1    0.0000
      5 C3         2.4007    8.1878    1.7362 C.ar      1 RES1    0.0000
      6 C4         2.6212    7.5931    0.4958 C.ar      1 RES1    0.0000
      7 C5         3.2715    5.3687    4.0816 C.ar      1 RES1    0.0000
      8 C6         2.6096    5.9641    2.8441 C.3       1 RES1    0.0000
      9 C7         3.3033    6.2963    0.4343 C.ar      1 RES1    0.0000
     10 C8         3.9701    5.8571   -0.7107 C.ar      1 RES1    0.0000
     11 H1         3.9925    6.4018   -1.4645 H         1 RES1    0.0000
     12 C9         0.5309    4.8243    1.8866 C.ar      1 RES1    0.0000
     13 H2         1.0670    4.4033    1.2542 H         1 RES1    0.0000
     14 C10        3.9604    4.2604    1.5230 C.ar      1 RES1    0.0000
     15 H3         3.9671    3.7131    2.2753 H         1 RES1    0.0000
     16 C11        0.2597    6.3088    3.7021 C.ar      1 RES1    0.0000
     17 H4         0.6186    6.9056    4.3176 H         1 RES1    0.0000
     18 C12       -1.0941    6.0672    3.7101 C.ar      1 RES1    0.0000
     19 H5        -1.6378    6.5002    4.3289 H         1 RES1    0.0000
     20 C13        4.5933    4.6366   -0.7444 C.ar      1 RES1    0.0000
     21 H6         5.0231    4.3536   -1.5179 H         1 RES1    0.0000
     22 C14       -1.6457    5.1916    2.8113 C.ar      1 RES1    0.0000
     23 H7        -2.5594    5.0171    2.8223 H         1 RES1    0.0000
     24 C15        1.8630    9.4622    1.8371 C.ar      1 RES1    0.0000
     25 H8         1.7614    9.8657    2.6685 H         1 RES1    0.0000
     26 C16        2.6838    4.3401    4.7815 C.ar      1 RES1    0.0000
     27 H9         1.8348    4.0449    4.5425 H         1 RES1    0.0000
     28 C17       -0.8349    4.5814    1.9028 C.ar      1 RES1    0.0000
     29 H10       -1.2023    3.9926    1.2833 H         1 RES1    0.0000
     30 C18        2.2004    8.2920   -0.6350 C.ar      1 RES1    0.0000
     31 H11        2.3114    7.9071   -1.4742 H         1 RES1    0.0000
     32 C19        4.5393    5.7814    4.4556 C.ar      1 RES1    0.0000
     33 H12        4.9574    6.4674    3.9874 H         1 RES1    0.0000
     34 C20        4.5796    3.8358    0.3654 C.ar      1 RES1    0.0000
     35 H13        4.9893    3.0017    0.3398 H         1 RES1    0.0000
     36 C21        1.6266    9.5339   -0.5355 C.ar      1 RES1    0.0000
     37 H14        1.3363    9.9748   -1.3011 H         1 RES1    0.0000
     38 C22        1.4827   10.1220    0.6925 C.ar      1 RES1    0.0000
     39 H15        1.1235   10.9771    0.7525 H         1 RES1    0.0000
     40 C23        5.1857    5.1865    5.5130 C.ar      1 RES1    0.0000
     41 H16        6.0340    5.4801    5.7578 H         1 RES1    0.0000
     42 C24        3.3505    3.7380    5.8444 C.ar      1 RES1    0.0000
     43 H17        2.9488    3.0390    6.3097 H         1 RES1    0.0000
     44 C25        4.5968    4.1717    6.2061 C.ar      1 RES1    0.0000
     45 H18        5.0398    3.7761    6.9214 H         1 RES1    0.0000
@<TRIPOS>BOND
     1    1    2 1
     2    3    8 1
     3    4    8 1
     4    5    1 1
     5    6    5 ar
     6    7    8 1
     7    8    1 1
     8    9    3 ar
     9   10    9 ar
    10   11   10 1
    11   12    4 ar
    12   13   12 1
    13   14    3 ar
    14   15   14 1
    15   16    4 ar
    16   17   16 1
    17   18   16 ar
    18   19   18 1
    19   20   10 ar
    20   21   20 1
    21   22   18 ar
    22   23   22 1
    23   24    5 ar
    24   25   24 1
    25   26    7 ar
    26   27   26 1
    27   28   12 ar
    28   29   28 1
    29   30    6 ar
    30   31   30 1
    31   32    7 ar
    32   33   32 1
    33   34   14 ar
    34   35   34 1
    35   36   30 ar
    36   37   36 1
    37   38   24 ar
    38   39   38 1
    39   40   32 ar
    40   41   40 1
    41   42   26 ar
    42   43   42 1
    43   44   40 ar
    44   45   44 1
    45    6    9 1
    46   20   34 ar
    47   22   28 ar
    48   36   38 ar
    49   42   44 ar
@<TRIPOS>SUBSTRUCTURE
     1 RES1 1

@<TRIPOS>CRYSIN
  12.6188    8.8704   16.6083  90.0000 102.9980  90.0000  14 1

