# MOL2 file generated by ConQuest
# Please check atom types

@<TRIPOS>MOLECULE
HOTHAB
    45    48     1
SMALL
NO_CHARGES
****
Generated from CSD

@<TRIPOS>ATOM
      1 C1        12.3305    9.1901   12.6627 C.ar      1 RES1    0.0000
      2 H1        12.5752    8.3967   12.2432 H         1 RES1    0.0000
      3 C2        12.8707   10.3962   12.2295 C.ar      1 RES1    0.0000
      4 H2        13.4653   10.4045   11.5151 H         1 RES1    0.0000
      5 C3        12.5358   11.5721   12.8440 C.ar      1 RES1    0.0000
      6 H3        12.9054   12.3740   12.5509 H         1 RES1    0.0000
      7 C4        11.6488   11.5618   13.8985 C.ar      1 RES1    0.0000
      8 H4        11.4202   12.3594   14.3191 H         1 RES1    0.0000
      9 C5        11.0906   10.3578   14.3384 C.ar      1 RES1    0.0000
     10 H5        10.4912   10.3599   15.0493 H         1 RES1    0.0000
     11 C6         7.7219    5.0063   17.2386 C.2       1 RES1    0.0000
     12 C7         7.1723    5.4472   18.5264 C.ar      1 RES1    0.0000
     13 C8         7.2215    5.4207   15.8780 C.3       1 RES1    0.0000
     14 H6         6.2475    5.3657   15.7861 H         1 RES1    0.0000
     15 C9         7.7918    6.8015   15.5269 C.2       1 RES1    0.0000
     16 C10        9.2866    7.8310   13.8709 C.3       1 RES1    0.0000
     17 H7         8.8958    8.6260   14.2909 H         1 RES1    0.0000
     18 C11        8.6537    5.3182   13.8952 C.3       1 RES1    0.0000
     19 H8         8.0835    5.3356   13.0991 H         1 RES1    0.0000
     20 C12        6.0039    6.2134   18.5585 C.ar      1 RES1    0.0000
     21 H9         5.5904    6.4604   17.7623 H         1 RES1    0.0000
     22 C13        7.9673    4.4609   14.9715 C.3       1 RES1    0.0000
     23 H10        7.3784    3.7791   14.5856 H         1 RES1    0.0000
     24 C14       11.4236    9.1624   13.7245 C.ar      1 RES1    0.0000
     25 C15        7.7889    5.0883   19.7394 C.ar      1 RES1    0.0000
     26 H11        8.5639    4.5740   19.7299 H         1 RES1    0.0000
     27 C16       10.7984    7.8612   14.1548 C.3       1 RES1    0.0000
     28 H12       10.9480    7.7336   15.1057 H         1 RES1    0.0000
     29 H13       11.2262    7.1297   13.6842 H         1 RES1    0.0000
     30 C17        8.9651    7.9024   12.3844 C.3       1 RES1    0.0000
     31 H14        8.0138    7.8623   12.2605 H         1 RES1    0.0000
     32 H15        9.3782    7.1629   11.9311 H         1 RES1    0.0000
     33 H16        9.3006    8.7266   12.0243 H         1 RES1    0.0000
     34 C18        6.0767    6.2542   20.9744 C.ar      1 RES1    0.0000
     35 H17        5.7120    6.5216   21.7863 H         1 RES1    0.0000
     36 C19        7.2468    5.4986   20.9505 C.ar      1 RES1    0.0000
     37 H18        7.6661    5.2681   21.7473 H         1 RES1    0.0000
     38 C20        5.4543    6.6096   19.7799 C.ar      1 RES1    0.0000
     39 H19        4.6724    7.1110   19.7949 H         1 RES1    0.0000
     40 O1         8.9988    3.8833   15.8247 O.3       1 RES1    0.0000
     41 O2         7.5295    7.8449   16.1066 O.2       1 RES1    0.0000
     42 O3         9.9179    4.8565   13.5266 O.3       1 RES1    0.0000
     43 H20       10.3312    4.6258   14.1956 H         1 RES1    0.0000
     44 N1         8.6614    6.6570   14.4944 N.am      1 RES1    0.0000
     45 N2         8.7393    4.2219   17.1692 N.2       1 RES1    0.0000
@<TRIPOS>BOND
     1    1    2 1
     2    3    1 ar
     3    4    3 1
     4    5    3 ar
     5    6    5 1
     6    7    5 ar
     7    8    7 1
     8    9    7 ar
     9   10    9 1
    10   11   12 1
    11   12   20 ar
    12   13   11 1
    13   14   13 1
    14   15   13 1
    15   16   17 1
    16   18   19 1
    17   20   21 1
    18   22   13 1
    19   23   22 1
    20   24    1 ar
    21   25   12 ar
    22   26   25 1
    23   27   16 1
    24   28   27 1
    25   29   27 1
    26   30   16 1
    27   31   30 1
    28   32   30 1
    29   33   30 1
    30   34   35 1
    31   36   25 ar
    32   37   36 1
    33   38   20 ar
    34   39   38 1
    35   40   22 1
    36   41   15 2
    37   42   18 1
    38   43   42 1
    39   44   15 1
    40   45   11 2
    41    9   24 ar
    42   16   44 1
    43   18   22 1
    44   18   44 1
    45   24   27 1
    46   34   36 ar
    47   34   38 ar
    48   40   45 1
@<TRIPOS>SUBSTRUCTURE
     1 RES1 1

@<TRIPOS>CRYSIN
  14.7373   10.3765   22.4070  90.0000 104.7430  90.0000  15 1

