# MOL2 file generated by ConQuest
# Please check atom types

@<TRIPOS>MOLECULE
HOTHOP
    48    49     2
SMALL
NO_CHARGES
****
Generated from CSD

@<TRIPOS>ATOM
      1 O1         2.1930    7.8874    1.8672 O.2       1 RES1    0.0000
      2 N1         0.8759    9.4495    2.8977 N.am      1 RES1    0.0000
      3 C1         3.0900    6.4295    5.0640 C.ar      1 RES1    0.0000
      4 C2         2.8225    8.8713    4.0307 C.3       1 RES1    0.0000
      5 H1         3.7575    9.0274    3.7844 H         1 RES1    0.0000
      6 C3         2.7896    5.5614    6.1159 C.ar      1 RES1    0.0000
      7 H2         2.3218    5.8762    6.8554 H         1 RES1    0.0000
      8 O2         2.0938    9.7320    6.1137 O.3       1 RES1    0.0000
      9 C4         1.9493    8.6407    2.7949 C.2       1 RES1    0.0000
     10 C5         0.8380   10.2943    4.0844 C.3       1 RES1    0.0000
     11 H3         0.1519    9.9536    4.6949 H         1 RES1    0.0000
     12 C6         3.8864    3.7394    4.9838 C.ar      1 RES1    0.0000
     13 C7         0.5068   11.7190    3.7250 C.ar      1 RES1    0.0000
     14 C8         2.2209   10.0816    4.7216 C.3       1 RES1    0.0000
     15 H4         2.7884   10.8723    4.6064 H         1 RES1    0.0000
     16 C9         3.1839    4.2388    6.0652 C.ar      1 RES1    0.0000
     17 H5         2.9720    3.6733    6.7716 H         1 RES1    0.0000
     18 C10       -0.1563    9.5530    1.8716 C.3       1 RES1    0.0000
     19 H6         0.1360    8.9923    1.1227 H         1 RES1    0.0000
     20 C11       -0.0676   12.0216    2.4895 C.ar      1 RES1    0.0000
     21 C12        3.7980    5.9341    3.9814 C.ar      1 RES1    0.0000
     22 H7         4.0069    6.4961    3.2702 H         1 RES1    0.0000
     23 C13        4.1961    4.6056    3.9507 C.ar      1 RES1    0.0000
     24 H8         4.6811    4.2914    3.2207 H         1 RES1    0.0000
     25 C14        0.7417   12.7180    4.6382 C.ar      1 RES1    0.0000
     26 H9         1.1238   12.5125    5.4614 H         1 RES1    0.0000
     27 C15       -1.4663    8.9885    2.3468 C.3       1 RES1    0.0000
     28 H10       -1.3197    8.1234    2.7384 H         1 RES1    0.0000
     29 H11       -2.0676    8.9038    1.6027 H         1 RES1    0.0000
     30 H12       -1.8493    9.5753    3.0025 H         1 RES1    0.0000
     31 C16       -0.4039   13.3570    2.2348 C.ar      1 RES1    0.0000
     32 H13       -0.8100   13.5771    1.4282 H         1 RES1    0.0000
     33 C17       -0.1980   10.9687    1.3598 C.3       1 RES1    0.0000
     34 H14       -1.0356   11.1103    0.8904 H         1 RES1    0.0000
     35 H15        0.5232   11.0956    0.7241 H         1 RES1    0.0000
     36 C18       -0.1508   14.3403    3.1393 C.ar      1 RES1    0.0000
     37 H16       -0.3620   15.2228    2.9377 H         1 RES1    0.0000
     38 C19        0.4114   14.0309    4.3375 C.ar      1 RES1    0.0000
     39 H17        0.5744   14.7025    4.9602 H         1 RES1    0.0000
     40 C20        4.2887    2.2783    4.9272 C.3       1 RES1    0.0000
     41 H18        4.2140    1.8911    5.8022 H         1 RES1    0.0000
     42 H19        5.1967    2.2084    4.6229 H         1 RES1    0.0000
     43 H20        3.7104    1.8099    4.3198 H         1 RES1    0.0000
     44 N2         2.2971    8.3377    6.2466 N.2       1 RES1    0.0000
     45 C21        2.7049    7.8435    5.1364 C.2       1 RES1    0.0000
     46 C22       -0.9420   10.8613    2.0614 Du        2 SUP2    0.0000
     47 H21       -1.3817   11.0901    1.2277 Du        2 SUP2    0.0000
     48 H22       -1.6303   10.7229    2.7301 Du        2 SUP2    0.0000
@<TRIPOS>BOND
     1    1    9 2
     2    2    9 1
     3    3    6 ar
     4    4    5 1
     5    6    7 1
     6    8   14 1
     7    9    4 1
     8   10    2 1
     9   11   10 1
    10   12   16 ar
    11   13   10 1
    12   14    4 1
    13   15   14 1
    14   16    6 ar
    15   17   16 1
    16   18    2 1
    17   19   18 1
    18   20   13 ar
    19   21    3 ar
    20   22   21 1
    21   23   12 ar
    22   24   23 1
    23   25   13 ar
    24   26   25 1
    25   27   18 1
    26   28   27 1
    27   29   27 1
    28   30   27 1
    29   31   20 ar
    30   32   31 1
    31   33   18 1
    32   34   33 1
    33   35   33 1
    34   36   31 ar
    35   37   36 1
    36   38   25 ar
    37   39   38 1
    38   40   12 1
    39   41   40 1
    40   42   40 1
    41   43   40 1
    42   44    8 1
    43   45    3 1
    44    4   45 1
    45   10   14 1
    46   20   33 1
    47   21   23 ar
    48   36   38 ar
    49   44   45 2
@<TRIPOS>SUBSTRUCTURE
     1 RES1 1
     2 SUP2 46

@<TRIPOS>CRYSIN
   7.9071   18.4496   11.7939  90.0000  90.6450  90.0000  14 1

