# MOL2 file generated by ConQuest
# Please check atom types

@<TRIPOS>MOLECULE
HOTMEI
    73    75     1
SMALL
NO_CHARGES
****
Generated from CSD

@<TRIPOS>ATOM
      1 O1         4.9037    3.9265    2.6055 O.2       1 RES1    0.0000
      2 O2         4.1184    5.8391    3.5993 O.3       1 RES1    0.0000
      3 O3         2.8121    2.5188    3.6991 O.3       1 RES1    0.0000
      4 N1         5.1941    6.5872    2.9346 N.3       1 RES1    0.0000
      5 N2         1.4391    2.3250    3.2242 N.3       1 RES1    0.0000
      6 C1         4.1315    4.5008    3.3245 C.2       1 RES1    0.0000
      7 C2         3.0147    3.8532    4.1533 C.3       1 RES1    0.0000
      8 H1         2.1697    4.3783    4.0525 H         1 RES1    0.0000
      9 C3         3.4673    3.8786    5.6078 C.ar      1 RES1    0.0000
     10 C4         3.0257    4.8586    6.4831 C.ar      1 RES1    0.0000
     11 H2         2.4038    5.5110    6.1825 H         1 RES1    0.0000
     12 C5         3.4808    4.8956    7.7932 C.ar      1 RES1    0.0000
     13 H3         3.1679    5.5690    8.3860 H         1 RES1    0.0000
     14 C6         4.3931    3.9485    8.2364 C.ar      1 RES1    0.0000
     15 H4         4.7083    3.9719    9.1318 H         1 RES1    0.0000
     16 C7         4.8399    2.9742    7.3723 C.ar      1 RES1    0.0000
     17 H5         5.4646    2.3254    7.6755 H         1 RES1    0.0000
     18 C8         4.3838    2.9323    6.0588 C.ar      1 RES1    0.0000
     19 H6         4.6982    2.2573    5.4692 H         1 RES1    0.0000
     20 C9         6.1546    7.0096    3.9950 C.3       1 RES1    0.0000
     21 C10        7.2228    7.8226    3.2560 C.3       1 RES1    0.0000
     22 H7         7.8670    8.1825    3.9155 H         1 RES1    0.0000
     23 H8         7.7195    7.2219    2.6456 H         1 RES1    0.0000
     24 C11        6.6432    8.9780    2.4486 C.3       1 RES1    0.0000
     25 H9         6.1964    9.6201    3.0552 H         1 RES1    0.0000
     26 H10        7.3705    9.4541    1.9747 H         1 RES1    0.0000
     27 C12        5.6400    8.4386    1.4422 C.3       1 RES1    0.0000
     28 H11        6.1175    7.8712    0.7854 H         1 RES1    0.0000
     29 H12        5.2399    9.1978    0.9492 H         1 RES1    0.0000
     30 C13        4.5119    7.6116    2.0885 C.3       1 RES1    0.0000
     31 C14        6.8023    5.7192    4.5471 C.3       1 RES1    0.0000
     32 H13        7.1084    5.1622    3.8010 H         1 RES1    0.0000
     33 H14        6.1430    5.2231    5.0765 H         1 RES1    0.0000
     34 H15        7.5664    5.9538    5.1147 H         1 RES1    0.0000
     35 C15        5.5679    7.7918    5.1751 C.3       1 RES1    0.0000
     36 H16        5.3198    8.6919    4.8788 H         1 RES1    0.0000
     37 H17        6.2362    7.8550    5.8887 H         1 RES1    0.0000
     38 H18        4.7733    7.3279    5.5116 H         1 RES1    0.0000
     39 C16        3.7643    6.8375    0.9974 C.3       1 RES1    0.0000
     40 H19        2.9544    6.4372    1.3772 H         1 RES1    0.0000
     41 H20        4.3430    6.1304    0.6441 H         1 RES1    0.0000
     42 H21        3.5170    7.4501    0.2740 H         1 RES1    0.0000
     43 C17        3.5022    8.5205    2.8073 C.3       1 RES1    0.0000
     44 H22        2.9089    7.9743    3.3632 H         1 RES1    0.0000
     45 H23        2.9703    9.0078    2.1428 H         1 RES1    0.0000
     46 H24        3.9827    9.1605    3.3731 H         1 RES1    0.0000
     47 C18        1.5261    1.9947    1.7666 C.3       1 RES1    0.0000
     48 C19        0.0960    1.6720    1.2965 C.3       1 RES1    0.0000
     49 H25       -0.4465    2.4994    1.3334 H         1 RES1    0.0000
     50 H26        0.1294    1.3759    0.3531 H         1 RES1    0.0000
     51 C20       -0.5895    0.5950    2.1265 C.3       1 RES1    0.0000
     52 H27       -1.5148    0.4557    1.8038 H         1 RES1    0.0000
     53 H28       -0.0981   -0.2609    2.0467 H         1 RES1    0.0000
     54 C21       -0.6065    1.0536    3.5772 C.3       1 RES1    0.0000
     55 H29       -1.0379    0.3526    4.1273 H         1 RES1    0.0000
     56 H30       -1.1584    1.8721    3.6457 H         1 RES1    0.0000
     57 C22        0.7889    1.3467    4.1536 C.3       1 RES1    0.0000
     58 C23        2.5008    0.8656    1.3934 C.3       1 RES1    0.0000
     59 H31        2.1064    0.0010    1.6329 H         1 RES1    0.0000
     60 H32        3.3422    0.9863    1.8800 H         1 RES1    0.0000
     61 H33        2.6754    0.8902    0.4294 H         1 RES1    0.0000
     62 C24        1.9836    3.2754    1.0582 C.3       1 RES1    0.0000
     63 H34        1.4723    4.0387    1.3998 H         1 RES1    0.0000
     64 H35        1.8329    3.1868    0.0932 H         1 RES1    0.0000
     65 H36        2.9380    3.4202    1.2289 H         1 RES1    0.0000
     66 C25        1.5779    0.0441    4.3915 C.3       1 RES1    0.0000
     67 H37        2.5120    0.2597    4.5920 H         1 RES1    0.0000
     68 H38        1.5368   -0.5137    3.5863 H         1 RES1    0.0000
     69 H39        1.1859   -0.4418    5.1472 H         1 RES1    0.0000
     70 C26        0.6111    2.0437    5.4999 C.3       1 RES1    0.0000
     71 H40        1.4885    2.1863    5.9113 H         1 RES1    0.0000
     72 H41        0.0618    1.4836    6.0879 H         1 RES1    0.0000
     73 H42        0.1694    2.9072    5.3647 H         1 RES1    0.0000
@<TRIPOS>BOND
     1    1    6 2
     2    2    4 1
     3    3    5 1
     4    4   20 1
     5    5   47 1
     6    6    2 1
     7    7    3 1
     8    8    7 1
     9    9    7 1
    10   10    9 ar
    11   11   10 1
    12   12   10 ar
    13   13   12 1
    14   14   12 ar
    15   15   14 1
    16   16   14 ar
    17   17   16 1
    18   18    9 ar
    19   19   18 1
    20   20   21 1
    21   21   22 1
    22   23   21 1
    23   24   21 1
    24   25   24 1
    25   26   24 1
    26   27   24 1
    27   28   27 1
    28   29   27 1
    29   30    4 1
    30   31   20 1
    31   32   31 1
    32   33   31 1
    33   34   31 1
    34   35   20 1
    35   36   35 1
    36   37   35 1
    37   38   35 1
    38   39   30 1
    39   40   39 1
    40   41   39 1
    41   42   39 1
    42   43   30 1
    43   44   43 1
    44   45   43 1
    45   46   43 1
    46   47   48 1
    47   48   49 1
    48   50   48 1
    49   51   48 1
    50   52   51 1
    51   53   51 1
    52   54   51 1
    53   55   54 1
    54   56   54 1
    55   57    5 1
    56   58   47 1
    57   59   58 1
    58   60   58 1
    59   61   58 1
    60   62   47 1
    61   63   62 1
    62   64   62 1
    63   65   62 1
    64   66   57 1
    65   67   66 1
    66   68   66 1
    67   69   66 1
    68   70   57 1
    69   71   70 1
    70   72   70 1
    71   73   70 1
    72    6    7 1
    73   16   18 ar
    74   27   30 1
    75   54   57 1
@<TRIPOS>SUBSTRUCTURE
     1 RES1 1

@<TRIPOS>CRYSIN
   7.4729   12.4337   14.4929  79.2960  80.3630  75.5460   2 1

