# MOL2 file generated by ConQuest
# Please check atom types

@<TRIPOS>MOLECULE
HOTWUK
    61    66     1
SMALL
NO_CHARGES
****
Generated from CSD

@<TRIPOS>ATOM
      1 O1         7.6097   18.5299   -2.0039 O.3       1 RES1    0.0000
      2 N1         5.8531   10.2782    0.9680 N.ar      1 RES1    0.0000
      3 O2         1.3549   20.7179   -1.0888 O.3       1 RES1    0.0000
      4 H1         0.8390   21.3480   -0.9879 H         1 RES1    0.0000
      5 C1         4.5634   10.5893    0.7645 C.ar      1 RES1    0.0000
      6 C2         4.0388   17.8641   -2.1594 C.3       1 RES1    0.0000
      7 O3         3.2674   11.1214   -1.7821 O.3       1 RES1    0.0000
      8 H2         3.5979   10.3722   -1.8252 H         1 RES1    0.0000
      9 N2         7.1392   19.8615   -1.9526 N.2       1 RES1    0.0000
     10 C3         4.2391   11.9685    0.2234 C.3       1 RES1    0.0000
     11 H3         4.8815   12.6012    0.5792 H         1 RES1    0.0000
     12 H4         3.3608   12.2293    0.5428 H         1 RES1    0.0000
     13 C4         5.2537   15.6060   -2.2388 C.3       1 RES1    0.0000
     14 H5         5.0584   15.5676   -3.1986 H         1 RES1    0.0000
     15 C5         3.4591   17.8919   -3.5775 C.3       1 RES1    0.0000
     16 H6         3.5401   18.7774   -3.9383 H         1 RES1    0.0000
     17 H7         2.5329   17.6404   -3.5494 H         1 RES1    0.0000
     18 H8         3.9418   17.2738   -4.1319 H         1 RES1    0.0000
     19 N3         2.5660   21.1839   -1.5207 N.2       1 RES1    0.0000
     20 C6         3.4382   20.2652   -1.5952 C.2       1 RES1    0.0000
     21 C7         5.2304   14.1804   -1.6928 C.3       1 RES1    0.0000
     22 H9         5.4134   14.2558   -0.7314 H         1 RES1    0.0000
     23 C8         3.8828   13.4709   -1.8103 C.3       1 RES1    0.0000
     24 C9         3.4591   13.3412   -3.2879 C.3       1 RES1    0.0000
     25 H10        2.5624   13.0023   -3.3343 H         1 RES1    0.0000
     26 H11        4.0524   12.7376   -3.7397 H         1 RES1    0.0000
     27 H12        3.4984   14.2029   -3.7082 H         1 RES1    0.0000
     28 C10        5.6333   11.8097   -1.9278 C.3       1 RES1    0.0000
     29 H13        5.5460   11.2895   -2.7419 H         1 RES1    0.0000
     30 H14        6.1971   11.3213   -1.3089 H         1 RES1    0.0000
     31 C11        3.2429   18.8304   -1.2394 C.3       1 RES1    0.0000
     32 H15        2.2983   18.6160   -1.2973 H         1 RES1    0.0000
     33 H16        3.5205   18.6914   -0.3194 H         1 RES1    0.0000
     34 O4         5.0350   21.9635   -2.1958 O.2       1 RES1    0.0000
     35 C12        4.2550   12.0546   -1.3072 C.3       1 RES1    0.0000
     36 C13        4.1371   16.4332   -1.5521 C.3       1 RES1    0.0000
     37 H17        4.3951   16.5378   -0.6123 H         1 RES1    0.0000
     38 C14        6.6540   16.2109   -2.0601 C.3       1 RES1    0.0000
     39 H18        7.0225   15.9395   -1.2046 H         1 RES1    0.0000
     40 H19        7.2424   15.8879   -2.7617 H         1 RES1    0.0000
     41 C15        2.8682   14.2691   -1.0292 C.3       1 RES1    0.0000
     42 H20        3.1262   14.2916   -0.0943 H         1 RES1    0.0000
     43 H21        2.0010   13.8389   -1.0921 H         1 RES1    0.0000
     44 C16        5.4281   18.3750   -2.1545 C.2       1 RES1    0.0000
     45 C17        2.7663   15.6999   -1.5654 C.3       1 RES1    0.0000
     46 H22        2.1337   16.1976   -1.0243 H         1 RES1    0.0000
     47 H23        2.4272   15.6748   -2.4738 H         1 RES1    0.0000
     48 C18        3.5586    9.6654    1.0226 C.ar      1 RES1    0.0000
     49 H24        2.6643    9.9036    0.9366 H         1 RES1    0.0000
     50 C19        5.8495   19.7344   -2.0486 C.2       1 RES1    0.0000
     51 C20        3.9148    8.3788    1.4148 C.ar      1 RES1    0.0000
     52 H25        3.2552    7.7421    1.5753 H         1 RES1    0.0000
     53 C21        6.5619   17.7013   -2.1214 C.2       1 RES1    0.0000
     54 C22        4.7992   20.8093   -1.9757 C.2       1 RES1    0.0000
     55 C23        6.2511   13.1770   -2.2388 C.3       1 RES1    0.0000
     56 H26        6.3727   13.2922   -3.1953 H         1 RES1    0.0000
     57 H27        7.1085   13.2776   -1.7970 H         1 RES1    0.0000
     58 C24        6.1725    9.0287    1.3304 C.ar      1 RES1    0.0000
     59 H28        7.0717    8.8103    1.4313 H         1 RES1    0.0000
     60 C25        5.2254    8.0492    1.5637 C.ar      1 RES1    0.0000
     61 H29        5.4773    7.1901    1.8152 H         1 RES1    0.0000
@<TRIPOS>BOND
     1    1    9 1
     2    2    5 ar
     3    3    4 1
     4    5   10 1
     5    6   15 1
     6    7    8 1
     7    9   50 2
     8   10   11 1
     9   12   10 1
    10   13   14 1
    11   15   16 1
    12   17   15 1
    13   18   15 1
    14   19    3 1
    15   20   19 2
    16   21   13 1
    17   22   21 1
    18   23   21 1
    19   24   23 1
    20   25   24 1
    21   26   24 1
    22   27   24 1
    23   28   29 1
    24   30   28 1
    25   31    6 1
    26   32   31 1
    27   33   31 1
    28   34   54 2
    29   35    7 1
    30   36    6 1
    31   37   36 1
    32   38   13 1
    33   39   38 1
    34   40   38 1
    35   41   23 1
    36   42   41 1
    37   43   41 1
    38   44    6 1
    39   45   36 1
    40   46   45 1
    41   47   45 1
    42   48    5 ar
    43   49   48 1
    44   50   44 1
    45   51   48 ar
    46   52   51 1
    47   53    1 1
    48   54   20 1
    49   55   21 1
    50   56   55 1
    51   57   55 1
    52   58    2 ar
    53   59   58 1
    54   60   51 ar
    55   61   60 1
    56   10   35 1
    57   13   36 1
    58   20   31 1
    59   23   35 1
    60   28   35 1
    61   28   55 1
    62   38   53 1
    63   41   45 1
    64   44   53 2
    65   50   54 1
    66   58   60 ar
@<TRIPOS>SUBSTRUCTURE
     1 RES1 1

@<TRIPOS>CRYSIN
  12.2836   13.2366   16.5473  90.0000  90.0000  90.0000  19 1

