# MOL2 file generated by ConQuest
# Please check atom types

@<TRIPOS>MOLECULE
HOTYIA
    50    52     1
SMALL
NO_CHARGES
****
Generated from CSD

@<TRIPOS>ATOM
      1 C1         5.5024    0.9905   14.1824 C.ar      1 RES1    0.0000
      2 C2         6.5857    1.8273   14.4460 C.ar      1 RES1    0.0000
      3 H1         6.4560    2.7681   14.4790 H         1 RES1    0.0000
      4 C3         7.8604    1.2963   14.6609 C.ar      1 RES1    0.0000
      5 H2         8.5928    1.8785   14.8228 H         1 RES1    0.0000
      6 C4         8.0600   -0.0702   14.6409 C.ar      1 RES1    0.0000
      7 H3         8.9259   -0.4301   14.7927 H         1 RES1    0.0000
      8 C5         6.9879   -0.9115   14.3959 C.ar      1 RES1    0.0000
      9 H4         7.1176   -1.8522   14.3873 H         1 RES1    0.0000
     10 C6         5.7217   -0.3848   14.1623 C.ar      1 RES1    0.0000
     11 H5         4.9958   -0.9715   13.9861 H         1 RES1    0.0000
     12 C7         3.4254    1.5230   15.4074 C.ar      1 RES1    0.0000
     13 C8         3.3694    2.6349   16.2297 C.ar      1 RES1    0.0000
     14 H6         3.7408    3.4586   15.9375 H         1 RES1    0.0000
     15 C9         2.7703    2.5486   17.4848 C.ar      1 RES1    0.0000
     16 H7         2.7368    3.3182   18.0407 H         1 RES1    0.0000
     17 C10        2.2264    1.3665   17.9304 C.ar      1 RES1    0.0000
     18 H8         1.8009    1.3241   18.7785 H         1 RES1    0.0000
     19 C11        2.3057    0.2385   17.1295 C.ar      1 RES1    0.0000
     20 H9         1.9530   -0.5896   17.4346 H         1 RES1    0.0000
     21 C12        2.9028    0.3233   15.8744 C.ar      1 RES1    0.0000
     22 H10        2.9551   -0.4521   15.3286 H         1 RES1    0.0000
     23 C13        3.2360    0.8895   12.9488 C.ar      1 RES1    0.0000
     24 C14        1.8494    0.9890   13.0190 C.ar      1 RES1    0.0000
     25 H11        1.4510    1.4601   13.7411 H         1 RES1    0.0000
     26 C15        1.0413    0.4155   12.0563 C.ar      1 RES1    0.0000
     27 H12        0.0961    0.4857   12.1250 H         1 RES1    0.0000
     28 C16        1.6105   -0.2619   10.9960 C.ar      1 RES1    0.0000
     29 H13        1.0544   -0.6759   10.3470 H         1 RES1    0.0000
     30 C17        2.9840   -0.3394   10.8771 C.ar      1 RES1    0.0000
     31 H14        3.3750   -0.7871   10.1350 H         1 RES1    0.0000
     32 C18        3.7930    0.2414   11.8528 C.ar      1 RES1    0.0000
     33 H15        4.7382    0.1960   11.7654 H         1 RES1    0.0000
     34 C19        4.0925    1.5684   14.0176 C.3       1 RES1    0.0000
     35 C20        3.9488    3.8054   11.5004 C.2       1 RES1    0.0000
     36 C21        4.6645    4.0541   10.1851 C.3       1 RES1    0.0000
     37 H16        4.8315    5.0241   10.0777 H         1 RES1    0.0000
     38 H17        5.5379    3.5888   10.1909 H         1 RES1    0.0000
     39 C22        3.8303    3.5523    9.0318 C.3       1 RES1    0.0000
     40 H18        3.6195    2.5969    9.1808 H         1 RES1    0.0000
     41 H19        2.9747    4.0497    9.0160 H         1 RES1    0.0000
     42 C23        4.5040    3.7000    7.6965 C.2       1 RES1    0.0000
     43 H20        5.3643    3.3094    7.5977 H         1 RES1    0.0000
     44 C24        4.0002    4.3277    6.6492 C.2       1 RES1    0.0000
     45 H21        3.1426    4.7315    6.7065 H         1 RES1    0.0000
     46 H22        4.4956    4.3745    5.8412 H         1 RES1    0.0000
     47 N1         4.7074    3.1967   12.4273 N.am      1 RES1    0.0000
     48 H23        5.6116    3.1411   12.3643 H         1 RES1    0.0000
     49 O1         4.1812    3.0003   13.7072 O.3       1 RES1    0.0000
     50 O2         2.7722    4.1316   11.6637 O.2       1 RES1    0.0000
@<TRIPOS>BOND
     1    1    2 ar
     2    2    3 1
     3    4    2 ar
     4    5    4 1
     5    6    4 ar
     6    7    6 1
     7    8    6 ar
     8    9    8 1
     9   10    1 ar
    10   11   10 1
    11   12   13 ar
    12   13   14 1
    13   15   13 ar
    14   16   15 1
    15   17   15 ar
    16   18   17 1
    17   19   17 ar
    18   20   19 1
    19   21   12 ar
    20   22   21 1
    21   23   24 ar
    22   24   25 1
    23   26   24 ar
    24   27   26 1
    25   28   26 ar
    26   29   28 1
    27   30   28 ar
    28   31   30 1
    29   32   23 ar
    30   33   32 1
    31   34    1 1
    32   35   36 1
    33   36   37 1
    34   38   36 1
    35   39   36 1
    36   40   39 1
    37   41   39 1
    38   42   39 1
    39   43   42 1
    40   44   42 2
    41   45   44 1
    42   46   44 1
    43   47   35 1
    44   48   47 1
    45   49   34 1
    46   50   35 2
    47    8   10 ar
    48   12   34 1
    49   19   21 ar
    50   23   34 1
    51   30   32 ar
    52   47   49 1
@<TRIPOS>SUBSTRUCTURE
     1 RES1 1

@<TRIPOS>CRYSIN
   9.3309   14.6304   14.3271  90.0000  90.0000  90.0000  33 1

