# MOL2 file generated by ConQuest
# Please check atom types

@<TRIPOS>MOLECULE
HOVBEB
    57    57     2
SMALL
NO_CHARGES
****
Generated from CSD

@<TRIPOS>ATOM
      1 O1         4.8310   10.1917    4.3640 O.2       1 RES1    0.0000
      2 O2         3.0090    6.7540    1.8096 O.3       1 RES1    0.0000
      3 C1         1.9864    9.8043    0.6579 C.ar      1 RES1    0.0000
      4 C2         4.6257    6.6240    5.0246 C.ar      1 RES1    0.0000
      5 C3         1.8834   11.1848    0.5696 C.ar      1 RES1    0.0000
      6 C4         4.0968    7.0115    3.7185 C.2       1 RES1    0.0000
      7 C5         4.1353    5.4692    5.6743 C.ar      1 RES1    0.0000
      8 H1         3.4387    4.9834    5.2936 H         1 RES1    0.0000
      9 C6         4.2186    9.6075    3.4799 C.2       1 RES1    0.0000
     10 C7         5.7215    5.7472    7.4866 C.ar      1 RES1    0.0000
     11 C8         4.5154    8.2150    2.9116 C.3       1 RES1    0.0000
     12 H2         5.4517    8.1414    2.6303 H         1 RES1    0.0000
     13 C9         2.5077    9.1602    1.9061 C.3       1 RES1    0.0000
     14 H3         1.7475    8.7624    2.3820 H         1 RES1    0.0000
     15 C10        2.5944   11.4363    3.0413 C.3       1 RES1    0.0000
     16 H4         3.2814   11.9623    3.4992 H         1 RES1    0.0000
     17 C11        4.6859    5.0595    6.8756 C.ar      1 RES1    0.0000
     18 H5         4.3507    4.2948    7.2853 H         1 RES1    0.0000
     19 C12        1.6044    9.0139   -0.4276 C.ar      1 RES1    0.0000
     20 H6         1.6624    8.0892   -0.3545 H         1 RES1    0.0000
     21 C13        1.0269   10.9479   -1.6951 C.ar      1 RES1    0.0000
     22 H7         0.7048   11.3362   -2.4772 H         1 RES1    0.0000
     23 C14        5.6474    7.3262    5.6343 C.ar      1 RES1    0.0000
     24 H8         5.9811    8.0969    5.2343 H         1 RES1    0.0000
     25 C15        2.3383   12.1069    1.6799 C.3       1 RES1    0.0000
     26 H9         1.6650   12.7946    1.8013 H         1 RES1    0.0000
     27 H10        3.1547   12.5466    1.3972 H         1 RES1    0.0000
     28 C16        6.2914    5.3187    8.8024 C.3       1 RES1    0.0000
     29 H11        5.8949    5.8362    9.5072 H         1 RES1    0.0000
     30 H12        7.2403    5.4564    8.7997 H         1 RES1    0.0000
     31 H13        6.1035    4.3872    8.9445 H         1 RES1    0.0000
     32 C17        3.5711    8.0773    1.7186 C.3       1 RES1    0.0000
     33 H14        4.0525    8.1987    0.8731 H         1 RES1    0.0000
     34 C18        1.3883   11.7451   -0.6179 C.ar      1 RES1    0.0000
     35 H15        1.3000   12.6689   -0.6855 H         1 RES1    0.0000
     36 C19        1.1474    9.5639   -1.5999 C.ar      1 RES1    0.0000
     37 H16        0.9233    9.0199   -2.3199 H         1 RES1    0.0000
     38 N1         3.2730    6.2382    3.1116 N.2       1 RES1    0.0000
     39 N2         3.1562   10.0968    2.7999 N.am      1 RES1    0.0000
     40 C20        0.5975   11.1095    6.2508 C.ar      1 RES1    0.0000
     41 H17        0.7758   11.0018    7.1570 H         1 RES1    0.0000
     42 C21       -0.6739   11.1848    5.8094 C.ar      1 RES1    0.0000
     43 H18       -1.3894   10.9427    6.3515 H         1 RES1    0.0000
     44 C22        0.1721   11.6424    3.5847 C.ar      1 RES1    0.0000
     45 H19        0.0012   11.8571    2.6965 H         1 RES1    0.0000
     46 C23        6.1789    6.8900    6.8356 C.ar      1 RES1    0.0000
     47 H20        6.8686    7.3793    7.2232 H         1 RES1    0.0000
     48 C24        1.4026   11.3379    3.9778 C.ar      1 RES1    0.0000
     49 C25       -0.8678   11.6339    4.5267 C.ar      1 RES1    0.0000
     50 H21       -1.7075   11.9410    4.2771 H         1 RES1    0.0000
     51 C26        1.6346   11.1934    5.3322 C.ar      1 RES1    0.0000
     52 H22        2.5130   11.1515    5.6384 H         1 RES1    0.0000
     53 H23       -1.3513   11.4029    6.4094 Du        2 SUP2    0.0000
     54 C27       -1.0217   10.9291    4.3902 Du        2 SUP2    0.0000
     55 H24       -1.8754   10.6836    4.1185 Du        2 SUP2    0.0000
     56 C28        0.0397   11.0865    3.4923 Du        2 SUP2    0.0000
     57 H25       -0.1192   11.0317    2.5778 Du        2 SUP2    0.0000
@<TRIPOS>BOND
     1    1    9 2
     2    2   32 1
     3    3    5 ar
     4    4    6 1
     5    5   25 1
     6    6   11 1
     7    7    4 ar
     8    8    7 1
     9    9   11 1
    10   10   17 ar
    11   11   12 1
    12   13    3 1
    13   14   13 1
    14   15   16 1
    15   17    7 ar
    16   18   17 1
    17   19    3 ar
    18   20   19 1
    19   21   22 1
    20   23    4 ar
    21   24   23 1
    22   25   15 1
    23   26   25 1
    24   27   25 1
    25   28   10 1
    26   29   28 1
    27   30   28 1
    28   31   28 1
    29   32   11 1
    30   33   32 1
    31   34    5 ar
    32   35   34 1
    33   36   19 ar
    34   37   36 1
    35   38    2 1
    36   39    9 1
    37   40   41 1
    38   42   40 ar
    39   43   42 1
    40   44   45 1
    41   46   10 ar
    42   47   46 1
    43   48   15 1
    44   49   42 ar
    45   50   49 1
    46   51   40 ar
    47   52   51 1
    48    6   38 2
    49   13   32 1
    50   13   39 1
    51   15   39 1
    52   21   34 ar
    53   21   36 ar
    54   23   46 ar
    55   44   48 ar
    56   44   49 ar
    57   48   51 ar
@<TRIPOS>SUBSTRUCTURE
     1 RES1 1
     2 SUP2 53

@<TRIPOS>CRYSIN
  33.0280    8.5537   16.9250  90.0000 125.4200  90.0000  15 1

