# MOL2 file generated by ConQuest
# Please check atom types

@<TRIPOS>MOLECULE
HOXFAD
    46    49     1
SMALL
NO_CHARGES
****
Generated from CSD

@<TRIPOS>ATOM
      1 C1         0.7538    2.0177    4.1599 C.ar      1 RES1    0.0000
      2 C2         2.9578    3.0255    3.3897 C.3       1 RES1    0.0000
      3 H1         2.5575    3.9142    3.4938 H         1 RES1    0.0000
      4 C3         3.9898    3.0791    2.2761 C.ar      1 RES1    0.0000
      5 C4        -1.1379    2.0809    6.1780 C.ar      1 RES1    0.0000
      6 H2        -1.7706    2.1055    6.8591 H         1 RES1    0.0000
      7 C5         6.0643    0.1498    3.3270 C.3       1 RES1    0.0000
      8 H3         6.1206   -0.1984    2.4340 H         1 RES1    0.0000
      9 H4         5.7930   -0.5494    3.9264 H         1 RES1    0.0000
     10 H5         6.9231    0.4846    3.5946 H         1 RES1    0.0000
     11 C6         1.8214    1.9926    3.0821 C.3       1 RES1    0.0000
     12 H6         2.2254    1.1000    3.0890 H         1 RES1    0.0000
     13 C7         5.9211    2.1223    1.2335 C.ar      1 RES1    0.0000
     14 H7         6.6050    1.4918    1.2179 H         1 RES1    0.0000
     15 C8         3.6303    2.6437    4.6757 C.ar      1 RES1    0.0000
     16 C9         5.0066    2.1312    2.2989 C.ar      1 RES1    0.0000
     17 C10        3.9180    4.0126    1.2613 C.ar      1 RES1    0.0000
     18 H8         3.2523    4.6609    1.2804 H         1 RES1    0.0000
     19 C11        4.6248    1.6578    4.6283 C.ar      1 RES1    0.0000
     20 C12       -0.1413    3.0613    4.2565 C.ar      1 RES1    0.0000
     21 H9        -0.1107    3.7532    3.6363 H         1 RES1    0.0000
     22 C13        5.1297    1.1480    5.8219 C.ar      1 RES1    0.0000
     23 H10        5.7685    0.4729    5.8045 H         1 RES1    0.0000
     24 C14        1.2471    2.2217    1.6946 C.3       1 RES1    0.0000
     25 H11        0.8897    3.1222    1.6366 H         1 RES1    0.0000
     26 H12        1.9527    2.1340    1.0337 H         1 RES1    0.0000
     27 C15       -1.0848    3.0920    5.2659 C.ar      1 RES1    0.0000
     28 H13       -1.6833    3.8018    5.3232 H         1 RES1    0.0000
     29 C16        0.6795    0.9949    5.0870 C.ar      1 RES1    0.0000
     30 H14        1.2699    0.2783    5.0314 H         1 RES1    0.0000
     31 C17        4.6838    1.6416    7.0276 C.ar      1 RES1    0.0000
     32 H15        5.0186    1.2850    7.8181 H         1 RES1    0.0000
     33 C18       -0.2675    1.0295    6.0964 C.ar      1 RES1    0.0000
     34 H16       -0.3118    0.3398    6.7183 H         1 RES1    0.0000
     35 C19        3.7559    2.6499    7.0814 C.ar      1 RES1    0.0000
     36 H17        3.4879    2.9992    7.8997 H         1 RES1    0.0000
     37 C20        4.8241    3.9969    0.2154 C.ar      1 RES1    0.0000
     38 H18        4.7671    4.6207   -0.4726 H         1 RES1    0.0000
     39 C21        3.2260    3.1384    5.9105 C.ar      1 RES1    0.0000
     40 H19        2.5856    3.8113    5.9452 H         1 RES1    0.0000
     41 C22        5.8119    3.0383    0.2154 C.ar      1 RES1    0.0000
     42 H20        6.4180    3.0098   -0.4899 H         1 RES1    0.0000
     43 N1         0.1736    1.2453    1.4045 N.pl3     1 RES1    0.0000
     44 N2         5.0902    1.2274    3.3677 N.pl3     1 RES1    0.0000
     45 O1        -0.9051    1.6662    1.0370 O.2       1 RES1    0.0000
     46 O2         0.4199    0.0553    1.5605 O.2       1 RES1    0.0000
@<TRIPOS>BOND
     1    1   11 1
     2    2    3 1
     3    4    2 1
     4    5    6 1
     5    7    8 1
     6    9    7 1
     7   10    7 1
     8   11    2 1
     9   12   11 1
    10   13   14 1
    11   15    2 1
    12   16    4 ar
    13   17    4 ar
    14   18   17 1
    15   19   15 ar
    16   20    1 ar
    17   21   20 1
    18   22   19 ar
    19   23   22 1
    20   24   11 1
    21   25   24 1
    22   26   24 1
    23   27    5 ar
    24   28   27 1
    25   29    1 ar
    26   30   29 1
    27   31   22 ar
    28   32   31 1
    29   33    5 ar
    30   34   33 1
    31   35   31 ar
    32   36   35 1
    33   37   17 ar
    34   38   37 1
    35   39   15 ar
    36   40   39 1
    37   41   13 ar
    38   42   41 1
    39   43   24 1
    40   44    7 1
    41   45   43 2
    42   46   43 2
    43   13   16 ar
    44   16   44 1
    45   19   44 1
    46   20   27 ar
    47   29   33 ar
    48   35   39 ar
    49   37   41 ar
@<TRIPOS>SUBSTRUCTURE
     1 RES1 1

@<TRIPOS>CRYSIN
  18.0920    5.5893   19.1730  90.0000 115.0220  90.0000  14 1

