# MOL2 file generated by ConQuest
# Please check atom types

@<TRIPOS>MOLECULE
HOYYID
    68    71     1
SMALL
NO_CHARGES
****
Generated from CSD

@<TRIPOS>ATOM
      1 N1         0.6040   -2.6832   12.0809 N.3       1 RES1    0.0000
      2 N2        -0.5127    3.1436   12.5842 N.2       1 RES1    0.0000
      3 O1         0.3292    2.4235   13.4760 O.3       1 RES1    0.0000
      4 O2         1.7813   -0.5667    8.5680 O.2       1 RES1    0.0000
      5 O3         0.2274    0.9529    9.1321 O.3       1 RES1    0.0000
      6 O4        -3.2795   -1.7455   13.6449 O.2       1 RES1    0.0000
      7 O5        -3.3526   -0.1821   12.0539 O.3       1 RES1    0.0000
      8 C1         1.0775   -2.0052   10.9679 C.2       1 RES1    0.0000
      9 C2         0.4228   -0.9124   10.5136 C.2       1 RES1    0.0000
     10 C3        -0.7836   -0.3474   11.2686 C.3       1 RES1    0.0000
     11 C4        -1.3704   -1.3863   12.2245 C.2       1 RES1    0.0000
     12 C5        -0.6374   -2.4471   12.6417 C.2       1 RES1    0.0000
     13 C6         2.3147   -2.6276   10.3751 C.3       1 RES1    0.0000
     14 C7        -1.0123   -3.4506   13.6972 C.3       1 RES1    0.0000
     15 C8         0.9021   -0.2074    9.3162 C.2       1 RES1    0.0000
     16 C9         0.7532    1.8670    8.1221 C.3       1 RES1    0.0000
     17 C10        1.7204    2.8114    8.7588 C.3       1 RES1    0.0000
     18 C11       -2.7302   -1.1603   12.7379 C.2       1 RES1    0.0000
     19 C12       -4.7292    0.0810   12.4390 C.3       1 RES1    0.0000
     20 C13       -5.2956    1.0625   11.4476 C.3       1 RES1    0.0000
     21 C14       -0.4711    0.9444   12.0168 C.2       1 RES1    0.0000
     22 C15        0.3209    1.1148   13.1061 C.2       1 RES1    0.0000
     23 C16       -0.9732    2.2549   11.7364 C.2       1 RES1    0.0000
     24 C17       -1.9076    2.6950   10.6572 C.3       1 RES1    0.0000
     25 C18        1.1603    0.2108   13.9438 C.3       1 RES1    0.0000
     26 C19        0.4578   -0.2935   15.2105 C.3       1 RES1    0.0000
     27 C20        1.2803   -1.2784   16.0246 C.ar      1 RES1    0.0000
     28 C21        2.5678   -1.6123   15.6851 C.ar      1 RES1    0.0000
     29 C22        3.3325   -2.5281   16.4570 C.ar      1 RES1    0.0000
     30 C23        2.7949   -3.0964   17.5717 C.ar      1 RES1    0.0000
     31 C24        1.4672   -2.7895   17.9753 C.ar      1 RES1    0.0000
     32 C25        0.8887   -3.3814   19.1238 C.ar      1 RES1    0.0000
     33 C26       -0.3916   -3.1032   19.5004 C.ar      1 RES1    0.0000
     34 C27       -1.1596   -2.2076   18.7404 C.ar      1 RES1    0.0000
     35 C28       -0.6312   -1.6072   17.6206 C.ar      1 RES1    0.0000
     36 C29        0.6973   -1.8771   17.1950 C.ar      1 RES1    0.0000
     37 H1         1.0586   -3.3679   12.3596 H         1 RES1    0.0000
     38 H2        -1.4654   -0.1147   10.6149 H         1 RES1    0.0000
     39 H3         2.9787   -1.9563   10.1049 H         1 RES1    0.0000
     40 H4         2.7095   -3.2499   10.9933 H         1 RES1    0.0000
     41 H5         2.1190   -3.0677    9.5458 H         1 RES1    0.0000
     42 H6        -0.6365   -4.3225   13.4371 H         1 RES1    0.0000
     43 H7        -1.9741   -3.6108   13.7445 H         1 RES1    0.0000
     44 H8        -0.6674   -3.1993   14.5265 H         1 RES1    0.0000
     45 H9         1.1949    1.3306    7.4144 H         1 RES1    0.0000
     46 H10       -0.0490    2.3577    7.8096 H         1 RES1    0.0000
     47 H11        2.0454    3.4995    8.1086 H         1 RES1    0.0000
     48 H12        2.5199    2.3139    9.0713 H         1 RES1    0.0000
     49 H13        1.2758    3.2971    9.4834 H         1 RES1    0.0000
     50 H14       -4.7161    0.4486   13.3645 H         1 RES1    0.0000
     51 H15       -5.2713   -0.8011   12.9507 H         1 RES1    0.0000
     52 H16       -5.1824    0.7151   10.5254 H         1 RES1    0.0000
     53 H17       -4.8172    1.9243   11.5371 H         1 RES1    0.0000
     54 H18       -6.2402    1.2126   11.6435 H         1 RES1    0.0000
     55 H19       -1.4343    2.8603    9.7992 H         1 RES1    0.0000
     56 H20       -2.3240    3.5433   10.8953 H         1 RES1    0.0000
     57 H21       -2.5320    2.0305   10.4207 H         1 RES1    0.0000
     58 H22        1.9536    0.6982   14.1887 H         1 RES1    0.0000
     59 H23        1.4249   -0.5532   13.3848 H         1 RES1    0.0000
     60 H24        0.2554    0.4739   15.7611 H         1 RES1    0.0000
     61 H25       -0.4088   -0.7050   14.9538 H         1 RES1    0.0000
     62 H26        3.0104   -1.2345   14.8660 H         1 RES1    0.0000
     63 H27        4.2949   -2.7051   16.1513 H         1 RES1    0.0000
     64 H28        3.2968   -3.6867   18.1138 H         1 RES1    0.0000
     65 H29        1.4525   -3.9886   19.5933 H         1 RES1    0.0000
     66 H30       -0.7862   -3.5568   20.2723 H         1 RES1    0.0000
     67 H31       -2.0764   -1.9665   19.0191 H         1 RES1    0.0000
     68 H32       -1.1778   -0.9478   17.0903 H         1 RES1    0.0000
@<TRIPOS>BOND
     1    1    8 1
     2    2    3 1
     3    3   22 1
     4    4   15 2
     5    5   15 1
     6    6   18 2
     7    7   18 1
     8    8    9 2
     9    9   10 1
    10   10   11 1
    11   11   12 2
    12   12    1 1
    13   13    8 1
    14   14   12 1
    15   15    9 1
    16   16    5 1
    17   17   16 1
    18   18   11 1
    19   19    7 1
    20   20   19 1
    21   21   10 1
    22   22   21 2
    23   23    2 2
    24   24   23 1
    25   25   22 1
    26   26   25 1
    27   27   26 1
    28   28   27 ar
    29   29   28 ar
    30   30   29 ar
    31   31   30 ar
    32   32   31 ar
    33   33   32 ar
    34   34   33 ar
    35   35   34 ar
    36   36   27 ar
    37   37    1 1
    38   38   10 1
    39   39   13 1
    40   40   13 1
    41   41   13 1
    42   42   14 1
    43   43   14 1
    44   44   14 1
    45   45   16 1
    46   46   16 1
    47   47   17 1
    48   48   17 1
    49   49   17 1
    50   50   19 1
    51   51   19 1
    52   52   20 1
    53   53   20 1
    54   54   20 1
    55   55   24 1
    56   56   24 1
    57   57   24 1
    58   58   25 1
    59   59   25 1
    60   60   26 1
    61   61   26 1
    62   62   28 1
    63   63   29 1
    64   64   30 1
    65   65   32 1
    66   66   33 1
    67   67   34 1
    68   68   35 1
    69   21   23 1
    70   31   36 ar
    71   35   36 ar
@<TRIPOS>SUBSTRUCTURE
     1 RES1 1

@<TRIPOS>CRYSIN
   8.9934   16.8650   17.0122  90.0000  96.8910  90.0000 231 1

