# MOL2 file generated by ConQuest
# Please check atom types

@<TRIPOS>MOLECULE
HOZBII
    32    33     1
SMALL
NO_CHARGES
****
Generated from CSD

@<TRIPOS>ATOM
      1 N1         0.9460   13.2753   13.1057 N.2       1 RES1    0.0000
      2 N2         1.4203   14.2896   12.3139 N.am      1 RES1    0.0000
      3 N3        -0.6236    7.4256   15.2964 N.pl3     1 RES1    0.0000
      4 O1         0.7414   15.8602   13.7787 O.2       1 RES1    0.0000
      5 O2         3.4611   19.6010    9.4241 O.3       1 RES1    0.0000
      6 H1         3.8232   19.2854    8.7597 H         1 RES1    0.0000
      7 O3        -0.4705    6.3589   14.7320 O.2       1 RES1    0.0000
      8 O4        -1.1513    7.5253   16.3937 O.2       1 RES1    0.0000
      9 C1         0.6315   10.9239   13.3475 C.ar      1 RES1    0.0000
     10 C2         0.0634   11.0026   14.6193 C.ar      1 RES1    0.0000
     11 H2        -0.0431   11.8302   15.0303 H         1 RES1    0.0000
     12 C3        -0.3386    9.8583   15.2643 C.ar      1 RES1    0.0000
     13 H3        -0.7184    9.9022   16.1118 H         1 RES1    0.0000
     14 C4        -0.1700    8.6424   14.6312 C.ar      1 RES1    0.0000
     15 C5         0.3956    8.5321   13.3802 C.ar      1 RES1    0.0000
     16 H4         0.5047    7.7011   12.9778 H         1 RES1    0.0000
     17 C6         0.7933    9.6820   12.7444 C.ar      1 RES1    0.0000
     18 H5         1.1753    9.6291   11.8988 H         1 RES1    0.0000
     19 C7         1.0698   12.1064   12.6197 C.2       1 RES1    0.0000
     20 H6         1.4508   12.0041   11.7771 H         1 RES1    0.0000
     21 C8         1.3033   15.5774   12.7291 C.2       1 RES1    0.0000
     22 C9         1.8922   16.6056   11.8343 C.ar      1 RES1    0.0000
     23 C10        1.8471   17.9426   12.2111 C.ar      1 RES1    0.0000
     24 H7         1.4606   18.1767   13.0242 H         1 RES1    0.0000
     25 C11        2.3653   18.9263   11.3982 C.ar      1 RES1    0.0000
     26 H8         2.3217   19.8166   11.6654 H         1 RES1    0.0000
     27 C12        2.9538   18.5991   10.1805 C.ar      1 RES1    0.0000
     28 C13        3.0034   17.2685    9.7910 C.ar      1 RES1    0.0000
     29 H9         3.3891   17.0354    8.9780 H         1 RES1    0.0000
     30 C14        2.4826   16.2971   10.6089 C.ar      1 RES1    0.0000
     31 H10        2.5241   15.4077   10.3380 H         1 RES1    0.0000
     32 H11        1.7609   14.0734   11.5124 H         1 RES1    0.0000
@<TRIPOS>BOND
     1    1    2 1
     2    2   21 1
     3    3    7 2
     4    4   21 2
     5    5    6 1
     6    8    3 2
     7    9   10 ar
     8   10   11 1
     9   12   10 ar
    10   13   12 1
    11   14    3 1
    12   15   14 ar
    13   16   15 1
    14   17    9 ar
    15   18   17 1
    16   19    1 2
    17   20   19 1
    18   21   22 1
    19   22   23 ar
    20   23   24 1
    21   25   23 ar
    22   26   25 1
    23   27    5 1
    24   28   27 ar
    25   29   28 1
    26   30   22 ar
    27   31   30 1
    28   32    2 1
    29    9   19 1
    30   12   14 ar
    31   15   17 ar
    32   25   27 ar
    33   28   30 ar
@<TRIPOS>SUBSTRUCTURE
     1 RES1 1

@<TRIPOS>CRYSIN
   7.6590   13.5870   12.5610  90.0000  92.7840  90.0000 231 1

