# MOL2 file generated by ConQuest
# Please check atom types

@<TRIPOS>MOLECULE
HPIOXZ10
    12    13     1
SMALL
NO_CHARGES
****
Generated from CSD

@<TRIPOS>ATOM
      1 C1        -9.2427    3.5728    1.3384 C.ar      1 RES1    0.0000
      2 C2        -8.3503    4.4890    0.7634 C.ar      1 RES1    0.0000
      3 C3        -6.9759    4.3430    0.9244 C.ar      1 RES1    0.0000
      4 C4        -5.0170    3.0780    1.8257 C.2       1 RES1    0.0000
      5 C5        -4.3312    1.9525    2.5431 C.3       1 RES1    0.0000
      6 C6        -2.8980    2.3100    2.3476 C.2       1 RES1    0.0000
      7 C7        -6.4725    3.2717    1.6719 C.ar      1 RES1    0.0000
      8 C8        -7.3619    2.3626    2.2627 C.ar      1 RES1    0.0000
      9 C9        -8.7349    2.5171    2.0960 C.ar      1 RES1    0.0000
     10 N1        -4.1814    3.9104    1.3197 N.2       1 RES1    0.0000
     11 O1        -2.8333    3.4639    1.6101 O.3       1 RES1    0.0000
     12 O2        -1.8857    1.7652    2.7170 O.2       1 RES1    0.0000
@<TRIPOS>BOND
     1    1    2 ar
     2    2    3 ar
     3    3    7 ar
     4    4    5 1
     5    5    6 1
     6    6   11 1
     7    7    4 1
     8    8    7 ar
     9    9    1 ar
    10   10    4 2
    11   11   10 1
    12   12    6 2
    13    8    9 ar
@<TRIPOS>SUBSTRUCTURE
     1 RES1 1

@<TRIPOS>CRYSIN
  10.0840    5.3670   18.0960  90.0000 127.4000  90.0000  14 1

