# MOL2 file generated by ConQuest
# Please check atom types

@<TRIPOS>MOLECULE
HPXAXB01
    69    70     1
SMALL
NO_CHARGES
****
Generated from CSD

@<TRIPOS>ATOM
      1 O1         3.1405    0.8292    7.3292 O.3       1 RES1    0.0000
      2 O2         6.3239    3.6843   11.9008 O.2       1 RES1    0.0000
      3 O3         6.4547    9.2794   14.8661 O.3       1 RES1    0.0000
      4 N1         5.4218    4.1847   11.1669 N.pl3     1 RES1    0.0000
      5 N2         4.9406    5.3444   11.2306 N.2       1 RES1    0.0000
      6 C1         2.6187   -6.6207    2.7707 C.3       1 RES1    0.0000
      7 C2         2.1025   -5.2686    3.2012 C.3       1 RES1    0.0000
      8 C3         2.9400   -4.5880    4.2402 C.3       1 RES1    0.0000
      9 C4         2.4410   -3.2087    4.6221 C.3       1 RES1    0.0000
     10 C5         3.2618   -2.5518    5.7342 C.3       1 RES1    0.0000
     11 C6         2.8463   -1.1234    6.0150 C.3       1 RES1    0.0000
     12 C7         3.5983   -0.5214    7.1420 C.3       1 RES1    0.0000
     13 C8         3.7500    1.5977    8.2783 C.ar      1 RES1    0.0000
     14 C9         3.3160    2.9187    8.3420 C.ar      1 RES1    0.0000
     15 C10        3.8694    3.7749    9.2630 C.ar      1 RES1    0.0000
     16 C11        4.8415    3.3204   10.1466 C.ar      1 RES1    0.0000
     17 C12        5.2605    2.0170   10.0755 C.ar      1 RES1    0.0000
     18 C13        4.7173    1.1520    9.1488 C.ar      1 RES1    0.0000
     19 C14        5.4300    6.2687   12.1909 C.ar      1 RES1    0.0000
     20 C15        4.6688    7.4297   12.2640 C.ar      1 RES1    0.0000
     21 C16        4.9724    8.4457   13.1232 C.ar      1 RES1    0.0000
     22 C17        6.0637    8.3366   13.9563 C.ar      1 RES1    0.0000
     23 C18        6.8566    7.2115   13.8833 C.ar      1 RES1    0.0000
     24 C19        6.5438    6.1837   13.0278 C.ar      1 RES1    0.0000
     25 C20        5.6362   10.4347   15.0590 C.3       1 RES1    0.0000
     26 C21        6.2667   11.2698   16.1204 C.3       1 RES1    0.0000
     27 C22        5.5019   12.5438   16.4031 C.3       1 RES1    0.0000
     28 C23        6.1164   13.4051   17.4814 C.3       1 RES1    0.0000
     29 C24        5.3927   14.6932   17.7772 C.3       1 RES1    0.0000
     30 C25        6.0488   15.5580   18.7881 C.3       1 RES1    0.0000
     31 C26        5.3139   16.8225   19.1139 C.3       1 RES1    0.0000
     32 H1         2.4910   -7.1902    3.4821 H         1 RES1    0.0000
     33 H2         3.5231   -6.4628    2.1903 H         1 RES1    0.0000
     34 H3         1.9151   -7.0041    2.0967 H         1 RES1    0.0000
     35 H4         1.1872   -5.2720    3.6505 H         1 RES1    0.0000
     36 H5         2.0661   -4.6398    2.5460 H         1 RES1    0.0000
     37 H6         3.1321   -5.1494    5.0733 H         1 RES1    0.0000
     38 H7         4.0717   -4.4981    4.0250 H         1 RES1    0.0000
     39 H8         2.4548   -2.6716    3.8003 H         1 RES1    0.0000
     40 H9         1.4853   -3.2220    4.8112 H         1 RES1    0.0000
     41 H10        4.2412   -2.5227    5.4665 H         1 RES1    0.0000
     42 H11        3.0673   -3.0702    6.5523 H         1 RES1    0.0000
     43 H12        2.9398   -0.5256    5.2418 H         1 RES1    0.0000
     44 H13        1.9522   -1.0752    6.2714 H         1 RES1    0.0000
     45 H14        3.4664   -1.0607    7.9938 H         1 RES1    0.0000
     46 H15        4.5231   -0.5296    6.9267 H         1 RES1    0.0000
     47 H16        2.5732    3.2472    7.7129 H         1 RES1    0.0000
     48 H17        3.6865    4.6515    9.3978 H         1 RES1    0.0000
     49 H18        5.8875    1.7043   10.6708 H         1 RES1    0.0000
     50 H19        5.0900    0.2702    9.0983 H         1 RES1    0.0000
     51 H20        3.9081    7.4164   11.6256 H         1 RES1    0.0000
     52 H21        4.4334    9.2310   13.1045 H         1 RES1    0.0000
     53 H22        7.6086    7.2006   14.4711 H         1 RES1    0.0000
     54 H23        7.1281    5.4984   13.0296 H         1 RES1    0.0000
     55 H24        5.6459   10.9218   14.2465 H         1 RES1    0.0000
     56 H25        4.6492   10.1617   15.3510 H         1 RES1    0.0000
     57 H26        7.1826   11.5010   15.7816 H         1 RES1    0.0000
     58 H27        6.2838   10.7373   16.7925 H         1 RES1    0.0000
     59 H28        5.4309   13.1105   15.4633 H         1 RES1    0.0000
     60 H29        4.6397   12.2856   16.6615 H         1 RES1    0.0000
     61 H30        6.2680   12.8023   18.5710 H         1 RES1    0.0000
     62 H31        6.9520   13.6492   17.2792 H         1 RES1    0.0000
     63 H32        5.1971   15.2288   17.0733 H         1 RES1    0.0000
     64 H33        4.3334   14.5263   18.1217 H         1 RES1    0.0000
     65 H34        6.4172   15.0094   19.6006 H         1 RES1    0.0000
     66 H35        7.2137   15.7667   18.4212 H         1 RES1    0.0000
     67 H36        5.2123   17.3186   18.1591 H         1 RES1    0.0000
     68 H37        5.9370   17.4227   19.7691 H         1 RES1    0.0000
     69 H38        4.3397   16.7064   19.5632 H         1 RES1    0.0000
@<TRIPOS>BOND
     1    1   12 1
     2    2    4 1
     3    3   22 1
     4    4    5 2
     5    5   19 1
     6    6    7 1
     7    7    8 1
     8    8    9 1
     9    9   10 1
    10   10   11 1
    11   11   12 1
    12   12   45 1
    13   13    1 1
    14   14   13 ar
    15   15   14 ar
    16   16    4 1
    17   17   16 ar
    18   18   13 ar
    19   19   20 ar
    20   20   21 ar
    21   21   22 ar
    22   22   23 ar
    23   23   24 ar
    24   24   19 ar
    25   25    3 1
    26   26   25 1
    27   27   26 1
    28   28   27 1
    29   29   28 1
    30   30   29 1
    31   31   30 1
    32   32    6 1
    33   33    6 1
    34   34    6 1
    35   35    7 1
    36   36    7 1
    37   37    8 1
    38   38    8 1
    39   39    9 1
    40   40    9 1
    41   41   10 1
    42   42   10 1
    43   43   11 1
    44   44   11 1
    45   46   12 1
    46   47   14 1
    47   48   15 1
    48   49   17 1
    49   50   18 1
    50   51   20 1
    51   52   21 1
    52   53   23 1
    53   54   24 1
    54   55   25 1
    55   56   25 1
    56   57   26 1
    57   58   26 1
    58   59   27 1
    59   60   27 1
    60   61   28 1
    61   62   28 1
    62   63   29 1
    63   64   29 1
    64   65   30 1
    65   66   30 1
    66   67   31 1
    67   68   31 1
    68   69   31 1
    69   15   16 ar
    70   17   18 ar
@<TRIPOS>SUBSTRUCTURE
     1 RES1 1

@<TRIPOS>CRYSIN
   7.7820    8.5890   18.8960  87.0100  97.5000  96.4300   2 1

