# MOL2 file generated by ConQuest
# Please check atom types

@<TRIPOS>MOLECULE
HPZTDX
    30    32     1
SMALL
NO_CHARGES
****
Generated from CSD

@<TRIPOS>ATOM
      1 C1        -1.5897   -0.4392    1.0274 C.ar      1 RES1    0.0000
      2 C2        -5.7676   -5.0852   -0.2075 C.3       1 RES1    0.0000
      3 C3        -4.3975   -5.7447   -0.2288 C.3       1 RES1    0.0000
      4 C4        -3.3050   -4.7230   -0.4879 C.3       1 RES1    0.0000
      5 C5        -3.5167   -3.4572    0.3098 C.2       1 RES1    0.0000
      6 C6        -2.6445   -1.3619    0.9930 C.ar      1 RES1    0.0000
      7 C7        -1.7826    0.7719    1.6247 C.ar      1 RES1    0.0000
      8 C8        -3.0151    1.0957    2.2047 C.ar      1 RES1    0.0000
      9 C9        -4.0489    0.2011    2.2077 C.ar      1 RES1    0.0000
     10 C10       -3.8638   -1.0484    1.6014 C.ar      1 RES1    0.0000
     11 C11       -4.7286   -3.1585    0.9434 C.2       1 RES1    0.0000
     12 C12       -5.8660   -4.1418    0.9677 C.3       1 RES1    0.0000
     13 H1        -0.7513   -0.7394    0.6074 H         1 RES1    0.0000
     14 H2        -6.0921   -4.5100    2.8647 H         1 RES1    0.0000
     15 H3        -5.9474   -4.5544   -1.0527 H         1 RES1    0.0000
     16 H4        -6.5239   -5.7669   -0.1316 H         1 RES1    0.0000
     17 H5        -4.2530   -6.1958    0.6478 H         1 RES1    0.0000
     18 H6        -4.3461   -6.4471   -0.9515 H         1 RES1    0.0000
     19 H7        -2.4096   -5.1311   -0.2227 H         1 RES1    0.0000
     20 H8        -2.6910   -4.7614   -2.2270 H         1 RES1    0.0000
     21 H9        -1.0504    1.4196    1.7208 H         1 RES1    0.0000
     22 H10       -3.1447    1.9371    2.6116 H         1 RES1    0.0000
     23 H11       -4.8771    0.3992    2.6015 H         1 RES1    0.0000
     24 H12       -6.7067   -3.6524    0.9212 H         1 RES1    0.0000
     25 N1        -2.4892   -2.5877    0.3523 N.pl3     1 RES1    0.0000
     26 N2        -4.8910   -1.9889    1.5923 N.pl3     1 RES1    0.0000
     27 O1        -5.7777   -4.9152    2.1571 O.3       1 RES1    0.0000
     28 O2        -3.3025   -4.3370   -1.8646 O.3       1 RES1    0.0000
     29 O3        -1.3562   -2.8642   -0.2146 O.2       1 RES1    0.0000
     30 O4        -5.9962   -1.6946    2.2128 O.2       1 RES1    0.0000
@<TRIPOS>BOND
     1    1    6 ar
     2    2    3 1
     3    3    4 1
     4    4    5 1
     5    5   11 2
     6    6   10 ar
     7    7    1 ar
     8    8    7 ar
     9    9    8 ar
    10   10    9 ar
    11   11   12 1
    12   12    2 1
    13   13    1 1
    14   14   27 1
    15   15    2 1
    16   16    2 1
    17   17    3 1
    18   18    3 1
    19   19    4 1
    20   20   28 1
    21   21    7 1
    22   22    8 1
    23   23    9 1
    24   24   12 1
    25   25    5 1
    26   26   10 1
    27   27   12 1
    28   28    4 1
    29   29   25 2
    30   30   26 2
    31    6   25 1
    32   11   26 1
@<TRIPOS>SUBSTRUCTURE
     1 RES1 1

@<TRIPOS>CRYSIN
   7.2290   14.7870   10.4320  90.0000 103.9900  90.0000 231 1

