# MOL2 file generated by ConQuest
# Please check atom types

@<TRIPOS>MOLECULE
HUBMAS
    78    84     1
SMALL
NO_CHARGES
****
Generated from CSD

@<TRIPOS>ATOM
      1 O1        -0.7897   14.3513    3.7451 O.3       1 RES1    0.0000
      2 H1        -0.7642   14.2494    4.5585 H         1 RES1    0.0000
      3 O2         1.2252   13.5159    2.2134 O.3       1 RES1    0.0000
      4 H2         1.8909   13.1458    2.5174 H         1 RES1    0.0000
      5 O3         2.4545   11.9936    4.1476 O.3       1 RES1    0.0000
      6 H3         2.7051   12.4387    3.5063 H         1 RES1    0.0000
      7 O4         0.1952   12.6064    5.5173 O.3       1 RES1    0.0000
      8 H4        -0.2731   13.2485    5.3159 H         1 RES1    0.0000
      9 O5        -2.0848    6.7512    5.9219 O.3       1 RES1    0.0000
     10 N1        -1.8900    7.2684    4.6225 N.2       1 RES1    0.0000
     11 N2        -3.6196   11.1561   -1.6914 N.1       1 RES1    0.0000
     12 C1        -2.8590   13.1689    4.1073 C.ar      1 RES1    0.0000
     13 C2        -2.6363   13.0559    5.6071 C.3       1 RES1    0.0000
     14 H5        -2.0824   13.7988    5.8932 H         1 RES1    0.0000
     15 H6        -3.4931   13.1423    6.0539 H         1 RES1    0.0000
     16 C3        -1.9826   11.7628    6.0602 C.ar      1 RES1    0.0000
     17 C4        -2.7414   10.7156    6.5901 C.ar      1 RES1    0.0000
     18 H7        -3.6624   10.8253    6.6675 H         1 RES1    0.0000
     19 C5        -2.1732    9.5189    7.0054 C.ar      1 RES1    0.0000
     20 C6        -0.8052    9.3859    6.8885 C.ar      1 RES1    0.0000
     21 H8        -0.4061    8.5948    7.1701 H         1 RES1    0.0000
     22 C7        -0.0018   10.3882    6.3677 C.ar      1 RES1    0.0000
     23 C8         1.4838   10.1638    6.1446 C.3       1 RES1    0.0000
     24 H9         1.7973    9.4524    6.7257 H         1 RES1    0.0000
     25 H10        1.9737   10.9716    6.3624 H         1 RES1    0.0000
     26 C9         1.7350    9.7865    4.6924 C.ar      1 RES1    0.0000
     27 C10        1.4357    8.4950    4.2664 C.ar      1 RES1    0.0000
     28 H11        1.1294    7.8701    4.8833 H         1 RES1    0.0000
     29 C11        1.5800    8.1294    2.9590 C.ar      1 RES1    0.0000
     30 H12        1.3770    7.2601    2.6966 H         1 RES1    0.0000
     31 C12        2.0236    9.0419    2.0293 C.ar      1 RES1    0.0000
     32 H13        2.1109    8.7826    1.1416 H         1 RES1    0.0000
     33 C13        2.3442   10.3433    2.3966 C.ar      1 RES1    0.0000
     34 C14        2.8091   11.3206    1.3305 C.3       1 RES1    0.0000
     35 H14        3.2847   12.0503    1.7586 H         1 RES1    0.0000
     36 H15        3.4308   10.8702    0.7366 H         1 RES1    0.0000
     37 C15        1.6709   11.8891    0.5100 C.ar      1 RES1    0.0000
     38 C16        1.3378   11.3655   -0.7261 C.ar      1 RES1    0.0000
     39 H16        1.8472   10.6707   -1.0766 H         1 RES1    0.0000
     40 C17        0.2725   11.8492   -1.4480 C.ar      1 RES1    0.0000
     41 H17        0.0748   11.4968   -2.2853 H         1 RES1    0.0000
     42 C18       -0.5041   12.8631   -0.9213 C.ar      1 RES1    0.0000
     43 H18       -1.2327   13.1789   -1.4060 H         1 RES1    0.0000
     44 C19       -0.2209   13.4232    0.3163 C.ar      1 RES1    0.0000
     45 C20       -1.1400   14.4770    0.9213 C.3       1 RES1    0.0000
     46 H19       -0.6039   15.1252    1.4018 H         1 RES1    0.0000
     47 H20       -1.5996   14.9440    0.2057 H         1 RES1    0.0000
     48 C21       -2.1679   13.8803    1.8671 C.ar      1 RES1    0.0000
     49 C22       -3.3506   13.3551    1.3662 C.ar      1 RES1    0.0000
     50 H21       -3.5216   13.4049    0.4533 H         1 RES1    0.0000
     51 C23       -4.2787   12.7600    2.1951 C.ar      1 RES1    0.0000
     52 H22       -5.0696   12.4243    1.8425 H         1 RES1    0.0000
     53 C24       -4.0293   12.6636    3.5382 C.ar      1 RES1    0.0000
     54 H23       -4.6581   12.2514    4.0859 H         1 RES1    0.0000
     55 C25       -1.9541   13.7855    3.2444 C.ar      1 RES1    0.0000
     56 C26        0.8871   12.9362    1.0019 C.ar      1 RES1    0.0000
     57 C27        2.1773   10.6957    3.7312 C.ar      1 RES1    0.0000
     58 C28       -0.6056   11.5766    5.9723 C.ar      1 RES1    0.0000
     59 C29       -3.0015    8.3571    7.5254 C.3       1 RES1    0.0000
     60 H24       -3.8316    8.7028    7.8864 H         1 RES1    0.0000
     61 H25       -2.5188    7.9316    8.2515 H         1 RES1    0.0000
     62 C30       -3.3257    7.3050    6.4699 C.3       1 RES1    0.0000
     63 H26       -3.8458    6.5836    6.8812 H         1 RES1    0.0000
     64 C31       -4.0649    7.8269    5.2590 C.3       1 RES1    0.0000
     65 H27       -4.7757    7.2269    4.9883 H         1 RES1    0.0000
     66 H28       -4.4319    8.7111    5.4185 H         1 RES1    0.0000
     67 C32       -2.9605    7.8634    4.2538 C.2       1 RES1    0.0000
     68 C33       -3.0496    8.5383    2.9506 C.ar      1 RES1    0.0000
     69 C34       -4.2555    8.5383    2.2622 C.ar      1 RES1    0.0000
     70 H29       -4.9894    8.0895    2.6148 H         1 RES1    0.0000
     71 C35       -4.3767    9.1998    1.0556 C.ar      1 RES1    0.0000
     72 H30       -5.1890    9.1865    0.6023 H         1 RES1    0.0000
     73 C36       -3.3043    9.8812    0.5204 C.ar      1 RES1    0.0000
     74 C37       -2.0930    9.8829    1.1983 C.ar      1 RES1    0.0000
     75 H31       -1.3627   10.3333    0.8415 H         1 RES1    0.0000
     76 C38       -1.9701    9.2164    2.4029 C.ar      1 RES1    0.0000
     77 H32       -1.1561    9.2230    2.8519 H         1 RES1    0.0000
     78 C39       -3.4664   10.5960   -0.7093 C.1       1 RES1    0.0000
@<TRIPOS>BOND
     1    1    2 1
     2    3    4 1
     3    5    6 1
     4    7    8 1
     5    9   10 1
     6   10   67 2
     7   11   78 3
     8   12   13 1
     9   13   14 1
    10   15   13 1
    11   16   13 1
    12   17   16 ar
    13   18   17 1
    14   19   17 ar
    15   20   19 ar
    16   21   20 1
    17   22   20 ar
    18   23   22 1
    19   24   23 1
    20   25   23 1
    21   26   23 1
    22   27   26 ar
    23   28   27 1
    24   29   27 ar
    25   30   29 1
    26   31   29 ar
    27   32   31 1
    28   33   31 ar
    29   34   33 1
    30   35   34 1
    31   36   34 1
    32   37   34 1
    33   38   37 ar
    34   39   38 1
    35   40   38 ar
    36   41   40 1
    37   42   40 ar
    38   43   42 1
    39   44   42 ar
    40   45   44 1
    41   46   45 1
    42   47   45 1
    43   48   45 1
    44   49   48 ar
    45   50   49 1
    46   51   49 ar
    47   52   51 1
    48   53   12 ar
    49   54   53 1
    50   55    1 1
    51   56    3 1
    52   57    5 1
    53   58    7 1
    54   59   19 1
    55   60   59 1
    56   61   59 1
    57   62    9 1
    58   63   62 1
    59   64   62 1
    60   65   64 1
    61   66   64 1
    62   67   64 1
    63   68   67 1
    64   69   68 ar
    65   70   69 1
    66   71   69 ar
    67   72   71 1
    68   73   71 ar
    69   74   73 ar
    70   75   74 1
    71   76   68 ar
    72   77   76 1
    73   78   73 1
    74   12   55 ar
    75   16   58 ar
    76   22   58 ar
    77   26   57 ar
    78   33   57 ar
    79   37   56 ar
    80   44   56 ar
    81   48   55 ar
    82   51   53 ar
    83   59   62 1
    84   74   76 ar
@<TRIPOS>SUBSTRUCTURE
     1 RES1 1

@<TRIPOS>CRYSIN
  17.8131   16.6211   20.9856  90.0000  90.0000  90.0000  61 1

