# MOL2 file generated by ConQuest
# Please check atom types

@<TRIPOS>MOLECULE
HUCTEG
    18    18     1
SMALL
NO_CHARGES
****
Generated from CSD

@<TRIPOS>ATOM
      1 C1         5.5288    0.8565    1.3561 C.3       1 RES1    0.0000
      2 H1         5.5471    0.8518    0.3657 H         1 RES1    0.0000
      3 H2         6.2857    0.3027    1.6729 H         1 RES1    0.0000
      4 C2         5.7320    2.2696    1.8353 C.2       1 RES1    0.0000
      5 H3         6.6130    2.4991    2.1082 H         1 RES1    0.0000
      6 C3         4.8231    3.2301    1.9193 C.2       1 RES1    0.0000
      7 H4         5.1226    4.0541    2.2848 H         1 RES1    0.0000
      8 C4         3.3851    3.1800    1.5110 C.3       1 RES1    0.0000
      9 H5         3.1833    3.9844    0.9693 H         1 RES1    0.0000
     10 H6         2.8248    3.2210    2.3265 H         1 RES1    0.0000
     11 C5         2.9855    1.9401    0.7082 C.3       1 RES1    0.0000
     12 H7         2.0634    2.0545    0.3657 H         1 RES1    0.0000
     13 H8         3.5902    1.8442   -0.0695 H         1 RES1    0.0000
     14 C6         3.0532    0.6911    1.5489 C.2       1 RES1    0.0000
     15 N1         4.2795    0.2440    1.8043 N.am      1 RES1    0.0000
     16 O1         4.4149   -0.9319    2.5402 O.3       1 RES1    0.0000
     17 H9         4.3616   -0.7567    3.3597 H         1 RES1    0.0000
     18 O2         2.0257    0.1458    1.9918 O.2       1 RES1    0.0000
@<TRIPOS>BOND
     1    1    2 1
     2    3    1 1
     3    4    1 1
     4    5    4 1
     5    6    4 2
     6    7    6 1
     7    8    6 1
     8    9    8 1
     9   10    8 1
    10   11    8 1
    11   12   11 1
    12   13   11 1
    13   14   11 1
    14   15    1 1
    15   16   15 1
    16   17   16 1
    17   18   14 2
    18   14   15 1
@<TRIPOS>SUBSTRUCTURE
     1 RES1 1

@<TRIPOS>CRYSIN
   6.6764   13.3930   13.9189  90.0000  92.4480  90.0000  15 1

