# MOL2 file generated by ConQuest
# Please check atom types

@<TRIPOS>MOLECULE
HUCTEF
    46    47     1
SMALL
USER_CHARGES
****
Generated from CSD

@<TRIPOS>ATOM
      1 N1         1.4009    1.4960   11.3390 N.pl3     1 RES1    1.0000
      2 N2         3.1512    0.3118   10.8164 N.pl3     1 RES1    0.0000
      3 O1         0.3531    1.9139   11.9397 O.2       1 RES1   -1.0000
      4 O2         4.1747   -0.4547   10.8920 O.2       1 RES1    0.0000
      5 O3         1.4752    1.0060   16.6303 O.3       1 RES1    0.0000
      6 O4         2.6078   -1.3669   17.0522 O.3       1 RES1    0.0000
      7 O5         3.5554   -2.8485   15.0422 O.3       1 RES1    0.0000
      8 C1         1.8035    2.0424    9.9954 C.3       1 RES1    0.0000
      9 C2         2.7082    0.8855    9.5089 C.3       1 RES1    0.0000
     10 C3         2.2854    0.6055   11.8137 C.2       1 RES1    0.0000
     11 C4         2.3316    0.0743   13.1712 C.ar      1 RES1    0.0000
     12 C5         2.9161   -1.1655   13.4011 C.ar      1 RES1    0.0000
     13 H1         3.2461   -1.6692   12.6918 H         1 RES1    0.0000
     14 C6         3.0009   -1.6425   14.6975 C.ar      1 RES1    0.0000
     15 C7         2.5181   -0.8884   15.7614 C.ar      1 RES1    0.0000
     16 C8         1.9221    0.3457   15.5214 C.ar      1 RES1    0.0000
     17 C9         1.8231    0.8169   14.2292 C.ar      1 RES1    0.0000
     18 H2         1.4147    1.6353   14.0662 H         1 RES1    0.0000
     19 C10        0.8080    2.2589   16.4374 C.3       1 RES1    0.0000
     20 H3         1.4292    2.9026   16.0890 H         1 RES1    0.0000
     21 H4         0.4620    2.5706   17.2762 H         1 RES1    0.0000
     22 H5         0.0846    2.1441   15.8173 H         1 RES1    0.0000
     23 C11        3.8662   -1.1532   17.6525 C.3       1 RES1    0.0000
     24 H6         4.5432   -1.6122   17.1484 H         1 RES1    0.0000
     25 H7         3.8524   -1.4895   18.5525 H         1 RES1    0.0000
     26 H8         4.0586   -0.2129   17.6643 H         1 RES1    0.0000
     27 C12        4.1147   -3.6337   14.0039 C.3       1 RES1    0.0000
     28 H9         3.4296   -3.8639   13.3721 H         1 RES1    0.0000
     29 H10        4.4896   -4.4354   14.3744 H         1 RES1    0.0000
     30 H11        4.8031   -3.1343   13.5616 H         1 RES1    0.0000
     31 C13        2.5544    3.3407   10.2838 C.3       1 RES1    0.0000
     32 H12        1.9901    3.9324   10.7854 H         1 RES1    0.0000
     33 H13        2.8006    3.7592    9.4543 H         1 RES1    0.0000
     34 H14        3.3451    3.1465   10.7922 H         1 RES1    0.0000
     35 C14        0.5803    2.3267    9.1495 C.3       1 RES1    0.0000
     36 H15        0.0392    1.5365    9.0959 H         1 RES1    0.0000
     37 H16        0.8538    2.5879    8.2671 H         1 RES1    0.0000
     38 H17        0.0722    3.0361    9.5502 H         1 RES1    0.0000
     39 C15        3.9149    1.3106    8.6906 C.3       1 RES1    0.0000
     40 H18        4.4711    1.8901    9.2169 H         1 RES1    0.0000
     41 H19        3.6214    1.7768    7.9041 H         1 RES1    0.0000
     42 H20        4.4154    0.5333    8.4338 H         1 RES1    0.0000
     43 C16        1.9390   -0.2281    8.8064 C.3       1 RES1    0.0000
     44 H21        2.5036   -0.9995    8.7169 H         1 RES1    0.0000
     45 H22        1.6663    0.0714    7.9361 H         1 RES1    0.0000
     46 H23        1.1631   -0.4568    9.3242 H         1 RES1    0.0000
@<TRIPOS>BOND
     1    1    3 1
     2    2    4 1
     3    5   16 1
     4    6   15 1
     5    7   14 1
     6    8    1 1
     7    9    2 1
     8   10    1 2
     9   11   10 1
    10   12   11 ar
    11   13   12 1
    12   14   12 ar
    13   15   14 ar
    14   16   15 ar
    15   17   11 ar
    16   18   17 1
    17   19    5 1
    18   20   19 1
    19   21   19 1
    20   22   19 1
    21   23    6 1
    22   24   23 1
    23   25   23 1
    24   26   23 1
    25   27    7 1
    26   28   27 1
    27   29   27 1
    28   30   27 1
    29   31    8 1
    30   32   31 1
    31   33   31 1
    32   34   31 1
    33   35    8 1
    34   36   35 1
    35   37   35 1
    36   38   35 1
    37   39    9 1
    38   40   39 1
    39   41   39 1
    40   42   39 1
    41   43    9 1
    42   44   43 1
    43   45   43 1
    44   46   43 1
    45    2   10 1
    46    8    9 1
    47   16   17 ar
@<TRIPOS>SUBSTRUCTURE
     1 RES1 1

@<TRIPOS>CRYSIN
  20.6230    7.2168   22.8310  90.0000  90.0000  90.0000  61 1

