# MOL2 file generated by ConQuest
# Please check atom types

@<TRIPOS>MOLECULE
HUCZEL
    25    26     1
SMALL
NO_CHARGES
****
Generated from CSD

@<TRIPOS>ATOM
      1 O1         0.2564    1.7295    3.7281 O.3       1 RES1    0.0000
      2 O2         2.4296    0.1499    2.9575 O.2       1 RES1    0.0000
      3 N1         2.3589    3.3044    1.2733 N.3       1 RES1    0.0000
      4 N2         0.0314    1.7919    0.5590 N.ar      1 RES1    0.0000
      5 N3         1.3576    2.1834    3.0081 N.am      1 RES1    0.0000
      6 C1         0.9524    4.6081    2.8463 C.3       1 RES1    0.0000
      7 H1         0.1855    4.5523    3.4205 H         1 RES1    0.0000
      8 H2         0.8337    5.3296    2.2242 H         1 RES1    0.0000
      9 H3         1.7375    4.7676    3.3756 H         1 RES1    0.0000
     10 C2         1.1100    3.3078    2.0871 C.3       1 RES1    0.0000
     11 C3        -0.0831    2.9686    1.1887 C.ar      1 RES1    0.0000
     12 C4         2.2572    1.2879    2.5380 C.2       1 RES1    0.0000
     13 C5         3.0101    1.9791    1.4338 C.3       1 RES1    0.0000
     14 H4         3.9445    2.0847    1.6720 H         1 RES1    0.0000
     15 H5         2.9534    1.4687    0.6104 H         1 RES1    0.0000
     16 C6        -1.1664    3.8197    1.0111 C.ar      1 RES1    0.0000
     17 H6        -1.2215    4.6233    1.4760 H         1 RES1    0.0000
     18 C7        -2.1670    3.4415    0.1224 C.ar      1 RES1    0.0000
     19 H7        -2.9048    3.9892   -0.0184 H         1 RES1    0.0000
     20 C8        -2.0484    2.2421   -0.5464 C.ar      1 RES1    0.0000
     21 H8        -2.6981    1.9713   -1.1534 H         1 RES1    0.0000
     22 C9        -0.9397    1.4489   -0.2946 C.ar      1 RES1    0.0000
     23 H9        -0.8670    0.6373   -0.7421 H         1 RES1    0.0000
     24 H10        0.5129    1.8143    4.6342 H         1 RES1    0.0000
     25 H11        2.8883    3.9267    1.5883 H         1 RES1    0.0000
@<TRIPOS>BOND
     1    1    5 1
     2    2   12 2
     3    3   10 1
     4    4   11 ar
     5    5   10 1
     6    6    7 1
     7    8    6 1
     8    9    6 1
     9   10    6 1
    10   11   10 1
    11   12    5 1
    12   13    3 1
    13   14   13 1
    14   15   13 1
    15   16   11 ar
    16   17   16 1
    17   18   16 ar
    18   19   18 1
    19   20   18 ar
    20   21   20 1
    21   22    4 ar
    22   23   22 1
    23   24    1 1
    24   25    3 1
    25   12   13 1
    26   20   22 ar
@<TRIPOS>SUBSTRUCTURE
     1 RES1 1

@<TRIPOS>CRYSIN
   8.2070   10.6040   10.6420  90.0000 106.4300  90.0000  14 1

