# MOL2 file generated by ConQuest
# Please check atom types

@<TRIPOS>MOLECULE
HUDCAL
    40    41     1
SMALL
NO_CHARGES
****
Generated from CSD

@<TRIPOS>ATOM
      1 C1         2.5840   13.4509   -0.3782 C.2       1 RES1    0.0000
      2 H1         2.2172   14.2236    0.0350 H         1 RES1    0.0000
      3 C2         2.0338   12.1577    0.0176 C.ar      1 RES1    0.0000
      4 C3         2.5412   10.9662   -0.5130 C.ar      1 RES1    0.0000
      5 H2         3.2539   10.9877   -1.1405 H         1 RES1    0.0000
      6 C4         3.5748    8.5033   -1.3781 C.3       1 RES1    0.0000
      7 H3         3.3829    8.9796   -2.2123 H         1 RES1    0.0000
      8 H4         3.8029    7.5718   -1.5782 H         1 RES1    0.0000
      9 H5         4.3276    8.9340   -0.9217 H         1 RES1    0.0000
     10 C5         2.0042    9.7673   -0.1219 C.ar      1 RES1    0.0000
     11 C6         0.9256    9.7450    0.7897 C.ar      1 RES1    0.0000
     12 C7         0.4424   10.9216    1.3155 C.ar      1 RES1    0.0000
     13 H6        -0.2731   10.9068    1.9396 H         1 RES1    0.0000
     14 C8         1.0061   12.1324    0.9295 C.ar      1 RES1    0.0000
     15 H7         0.6795   12.9449    1.2981 H         1 RES1    0.0000
     16 C9        -0.5616    8.3672    2.0717 C.3       1 RES1    0.0000
     17 H8        -1.3882    8.8400    1.8008 H         1 RES1    0.0000
     18 H9        -0.2503    8.7409    2.9338 H         1 RES1    0.0000
     19 C10       -0.8152    6.8799    2.1964 C.3       1 RES1    0.0000
     20 H10       -1.5973    6.7223    2.7825 H         1 RES1    0.0000
     21 H11       -1.0155    6.4992    1.3043 H         1 RES1    0.0000
     22 C11        0.3942    6.2073    2.7738 C.3       1 RES1    0.0000
     23 H12        1.1900    6.4796    2.2535 H         1 RES1    0.0000
     24 H13        0.5206    6.5227    3.7042 H         1 RES1    0.0000
     25 C12        1.1199    3.8720    2.0975 C.2       1 RES1    0.0000
     26 C13        2.2189    4.3235    1.2093 C.3       1 RES1    0.0000
     27 H14        2.6324    3.5451    0.7804 H         1 RES1    0.0000
     28 H15        2.8911    4.8017    1.7383 H         1 RES1    0.0000
     29 H16        1.8578    4.9217    0.5215 H         1 RES1    0.0000
     30 C14       -0.5652    4.0016    3.5049 C.2       1 RES1    0.0000
     31 H17       -1.2530    4.3111    4.0819 H         1 RES1    0.0000
     32 C15       -0.2344    2.7184    3.2198 C.2       1 RES1    0.0000
     33 N1         0.3091    4.7423    2.7790 N.pl3     1 RES1    0.0000
     34 N2         0.8116    2.6195    2.3537 N.2       1 RES1    0.0000
     35 N3        -0.8914    1.5655    3.7463 N.pl3     1 RES1    0.0000
     36 O1         3.4648   13.6208   -1.1850 O.2       1 RES1    0.0000
     37 O2         2.4232    8.5393   -0.5341 O.3       1 RES1    0.0000
     38 O3         0.4489    8.5060    1.0689 O.3       1 RES1    0.0000
     39 O4        -0.4703    0.4547    3.4532 O.2       1 RES1    0.0000
     40 O5        -1.8685    1.7499    4.4770 O.2       1 RES1    0.0000
@<TRIPOS>BOND
     1    1    2 1
     2    3    1 1
     3    4    3 ar
     4    5    4 1
     5    6    7 1
     6    8    6 1
     7    9    6 1
     8   10    4 ar
     9   11   10 ar
    10   12   11 ar
    11   13   12 1
    12   14    3 ar
    13   15   14 1
    14   16   17 1
    15   18   16 1
    16   19   16 1
    17   20   19 1
    18   21   19 1
    19   22   19 1
    20   23   22 1
    21   24   22 1
    22   25   26 1
    23   26   27 1
    24   28   26 1
    25   29   26 1
    26   30   31 1
    27   32   30 2
    28   33   22 1
    29   34   25 2
    30   35   32 1
    31   36    1 2
    32   37    6 1
    33   38   11 1
    34   39   35 2
    35   40   35 2
    36   10   37 1
    37   12   14 ar
    38   16   38 1
    39   25   33 1
    40   30   33 1
    41   32   34 1
@<TRIPOS>SUBSTRUCTURE
     1 RES1 1

@<TRIPOS>CRYSIN
   9.4885   13.0480   12.7450  90.0000 101.1200  90.0000 231 1

