# MOL2 file generated by ConQuest
# Please check atom types

@<TRIPOS>MOLECULE
HUDFIV
    60    65     1
SMALL
NO_CHARGES
****
Generated from CSD

@<TRIPOS>ATOM
      1 C1        -3.9058    2.3826   10.9323 C.3       1 RES1    0.0000
      2 H1        -4.5513    2.9999   10.5813 H         1 RES1    0.0000
      3 H2        -3.4245    2.7966   11.6527 H         1 RES1    0.0000
      4 H3        -4.3563    1.5996   11.2581 H         1 RES1    0.0000
      5 O1        -2.9798    2.0063    9.8880 O.3       1 RES1    0.0000
      6 C2        -2.0230    1.1677   10.2124 C.2       1 RES1    0.0000
      7 O2        -1.8818    0.7568   11.3270 O.2       1 RES1    0.0000
      8 C3        -1.1239    0.8176    9.0891 C.ar      1 RES1    0.0000
      9 C4        -0.1114   -0.0891    9.3231 C.ar      1 RES1    0.0000
     10 H4        -0.0144   -0.4560   10.1729 H         1 RES1    0.0000
     11 C5         0.7579   -0.4623    8.3219 C.ar      1 RES1    0.0000
     12 H5         1.4332   -1.0765    8.4981 H         1 RES1    0.0000
     13 C6         0.6282    0.0744    7.0538 C.ar      1 RES1    0.0000
     14 C7        -0.3900    0.9801    6.8166 C.ar      1 RES1    0.0000
     15 H6        -0.4889    1.3448    5.9675 H         1 RES1    0.0000
     16 C8        -1.2651    1.3532    7.8224 C.ar      1 RES1    0.0000
     17 H7        -1.9452    1.9633    7.6469 H         1 RES1    0.0000
     18 C9         1.5908   -0.3344    5.9698 C.3       1 RES1    0.0000
     19 H8         2.3467   -0.8029    6.3575 H         1 RES1    0.0000
     20 H9         1.1508   -0.9298    5.3434 H         1 RES1    0.0000
     21 O3         2.0346    0.8258    5.3021 O.3       1 RES1    0.0000
     22 C10        2.9241    0.5346    4.2018 C.3       1 RES1    0.0000
     23 H10        3.6224   -0.1059    4.4509 H         1 RES1    0.0000
     24 C11        2.1364    0.0776    2.9883 C.3       1 RES1    0.0000
     25 H11        1.4851   -0.5996    3.2304 H         1 RES1    0.0000
     26 H12        2.7243   -0.2809    2.3058 H         1 RES1    0.0000
     27 C12        1.4486    1.3490    2.5038 C.3       1 RES1    0.0000
     28 H13        0.7176    1.5450    3.1271 H         1 RES1    0.0000
     29 C13        2.5129    2.4182    2.6947 C.3       1 RES1    0.0000
     30 H14        2.1047    3.2515    2.9780 H         1 RES1    0.0000
     31 H15        2.9846    2.5754    1.8607 H         1 RES1    0.0000
     32 C14        3.5081    1.8972    3.7945 C.3       1 RES1    0.0000
     33 C15        1.6974    0.9497   -0.0025 C.3       1 RES1    0.0000
     34 H16        1.1642    0.9266   -0.8007 H         1 RES1    0.0000
     35 H17        2.1037    0.0912    0.1354 H         1 RES1    0.0000
     36 H18        2.3823    1.6163   -0.0941 H         1 RES1    0.0000
     37 C16       -0.4476    1.4654    0.9682 C.2       1 RES1    0.0000
     38 H19       -0.8309    1.3910    0.1239 H         1 RES1    0.0000
     39 H20       -0.9789    1.6729    1.7024 H         1 RES1    0.0000
     40 C17        0.8607    1.2725    1.1242 C.2       1 RES1    0.0000
     41 C18        4.8904    1.8752    3.1567 C.2       1 RES1    0.0000
     42 C19        5.3803    0.8281    2.2053 C.3       1 RES1    0.0000
     43 H21        6.2756    1.0409    1.9295 H         1 RES1    0.0000
     44 H22        4.8059    0.8008    1.4362 H         1 RES1    0.0000
     45 H23        5.3746   -0.0273    2.6407 H         1 RES1    0.0000
     46 N1         5.5888    2.8857    3.4309 N.2       1 RES1    0.0000
     47 O4         4.8664    3.7054    4.3654 O.3       1 RES1    0.0000
     48 C20        3.8607    2.8427    4.9598 C.3       1 RES1    0.0000
     49 C21        4.5744    2.0681    6.0581 C.3       1 RES1    0.0000
     50 H24        5.0998    1.2977    5.7587 H         1 RES1    0.0000
     51 O5         5.1719    2.8553    7.0910 O.3       1 RES1    0.0000
     52 C22        4.0729    1.9926    7.4257 C.3       1 RES1    0.0000
     53 H25        4.2852    1.1803    7.9314 H         1 RES1    0.0000
     54 C23        2.8011    2.6855    7.7692 C.2       1 RES1    0.0000
     55 C24        2.2689    3.6792    6.8125 C.3       1 RES1    0.0000
     56 H26        1.3295    3.9308    6.9357 H         1 RES1    0.0000
     57 O6         3.1508    4.7326    6.4165 O.3       1 RES1    0.0000
     58 C25        2.7742    3.7515    5.4453 C.3       1 RES1    0.0000
     59 H27        2.1316    4.0471    4.7676 H         1 RES1    0.0000
     60 O7         2.1796    2.4192    8.7736 O.2       1 RES1    0.0000
@<TRIPOS>BOND
     1    1    2 1
     2    3    1 1
     3    4    1 1
     4    5    1 1
     5    6    5 1
     6    7    6 2
     7    8    6 1
     8    9    8 ar
     9   10    9 1
    10   11    9 ar
    11   12   11 1
    12   13   11 ar
    13   14   13 ar
    14   15   14 1
    15   16    8 ar
    16   17   16 1
    17   18   13 1
    18   19   18 1
    19   20   18 1
    20   21   18 1
    21   22   21 1
    22   23   22 1
    23   24   22 1
    24   25   24 1
    25   26   24 1
    26   27   24 1
    27   28   27 1
    28   29   27 1
    29   30   29 1
    30   31   29 1
    31   32   22 1
    32   33   34 1
    33   35   33 1
    34   36   33 1
    35   37   38 1
    36   39   37 1
    37   40   27 1
    38   41   32 1
    39   42   41 1
    40   43   42 1
    41   44   42 1
    42   45   42 1
    43   46   41 2
    44   47   46 1
    45   48   32 1
    46   49   48 1
    47   50   49 1
    48   51   49 1
    49   52   49 1
    50   53   52 1
    51   54   52 1
    52   55   54 1
    53   56   55 1
    54   57   55 1
    55   58   48 1
    56   59   58 1
    57   60   54 2
    58   14   16 ar
    59   29   32 1
    60   33   40 1
    61   37   40 2
    62   47   48 1
    63   51   52 1
    64   55   58 1
    65   57   58 1
@<TRIPOS>SUBSTRUCTURE
     1 RES1 1

@<TRIPOS>CRYSIN
   9.6060   10.4820   22.9430  90.0000  90.0000  90.0000  19 1

