# MOL2 file generated by ConQuest
# Please check atom types

@<TRIPOS>MOLECULE
HUDJEW01
    53    56     1
SMALL
NO_CHARGES
****
Generated from CSD

@<TRIPOS>ATOM
      1 O1         1.4491    7.8462   -0.4436 O.2       1 RES1    0.0000
      2 O2         2.0636    6.6780   -2.1166 O.2       1 RES1    0.0000
      3 O3        -3.5400   -2.5007    4.4518 O.3       1 RES1    0.0000
      4 O4         2.5208  -10.3546   12.2848 O.2       1 RES1    0.0000
      5 O5         2.4505  -11.5797   10.5403 O.2       1 RES1    0.0000
      6 N1         1.4597    6.8132   -1.0688 N.pl3     1 RES1    0.0000
      7 N2        -1.7350    2.2833    2.2479 N.2       1 RES1    0.0000
      8 N3        -0.5701   -6.3835    7.0903 N.2       1 RES1    0.0000
      9 N4         2.2593  -10.5278   11.1146 N.pl3     1 RES1    0.0000
     10 C1         0.7010    5.6691   -0.5392 C.ar      1 RES1    0.0000
     11 C2         0.0585    5.8033    0.6724 C.ar      1 RES1    0.0000
     12 H1         0.0581    6.6359    1.1285 H         1 RES1    0.0000
     13 C3        -0.5810    4.7144    1.2086 C.ar      1 RES1    0.0000
     14 H2        -1.0312    4.7927    2.0409 H         1 RES1    0.0000
     15 C4        -0.5738    3.4969    0.5402 C.ar      1 RES1    0.0000
     16 C5         0.0470    3.4124   -0.7009 C.ar      1 RES1    0.0000
     17 H3         0.0245    2.5928   -1.1810 H         1 RES1    0.0000
     18 C6         0.6938    4.5024   -1.2439 C.ar      1 RES1    0.0000
     19 H4         1.1243    4.4411   -2.0884 H         1 RES1    0.0000
     20 C7        -1.1468    2.2828    1.1328 C.2       1 RES1    0.0000
     21 H5        -1.0721    1.4640    0.6568 H         1 RES1    0.0000
     22 C8        -2.1481    1.0409    2.7965 C.ar      1 RES1    0.0000
     23 C9        -3.4180    0.9373    3.3322 C.ar      1 RES1    0.0000
     24 H6        -3.9959    1.6910    3.3152 H         1 RES1    0.0000
     25 C10       -3.8601   -0.2447    3.8931 C.ar      1 RES1    0.0000
     26 H7        -4.7448   -0.3139    4.2325 H         1 RES1    0.0000
     27 C11       -3.0075   -1.3204    3.9543 C.ar      1 RES1    0.0000
     28 C12       -1.7162   -1.2299    3.4775 C.ar      1 RES1    0.0000
     29 H8        -1.1244   -1.9693    3.5478 H         1 RES1    0.0000
     30 C13       -1.2919   -0.0459    2.8954 C.ar      1 RES1    0.0000
     31 H9        -0.4059    0.0217    2.5601 H         1 RES1    0.0000
     32 C14       -2.6953   -3.4064    5.0752 C.ar      1 RES1    0.0000
     33 C15       -2.7474   -4.7125    4.6626 C.ar      1 RES1    0.0000
     34 H10       -3.2800   -4.9594    3.9163 H         1 RES1    0.0000
     35 C16       -2.0170   -5.6665    5.3441 C.ar      1 RES1    0.0000
     36 H11       -2.0403   -6.5698    5.0514 H         1 RES1    0.0000
     37 C17       -1.2546   -5.3281    6.4432 C.ar      1 RES1    0.0000
     38 C18       -1.1864   -3.9870    6.8161 C.ar      1 RES1    0.0000
     39 H12       -0.6424   -3.7294    7.5509 H         1 RES1    0.0000
     40 C19       -1.9030   -3.0337    6.1271 C.ar      1 RES1    0.0000
     41 H13       -1.8469   -2.1196    6.3814 H         1 RES1    0.0000
     42 C20       -0.1780   -6.2669    8.2665 C.2       1 RES1    0.0000
     43 H14       -0.3326   -5.4501    8.7253 H         1 RES1    0.0000
     44 C21        0.5188   -7.3559    8.9635 C.ar      1 RES1    0.0000
     45 C22        0.6798   -8.5899    8.3745 C.ar      1 RES1    0.0000
     46 H15        0.3880   -8.7253    7.4805 H         1 RES1    0.0000
     47 C23        1.2594   -9.6310    9.0662 C.ar      1 RES1    0.0000
     48 H16        1.3662  -10.4827    8.6598 H         1 RES1    0.0000
     49 C24        1.6804   -9.4126   10.3513 C.ar      1 RES1    0.0000
     50 C25        1.5647   -8.1991   10.9518 C.ar      1 RES1    0.0000
     51 H17        1.8788   -8.0643   11.8391 H         1 RES1    0.0000
     52 C26        0.9854   -7.1731   10.2504 C.ar      1 RES1    0.0000
     53 H18        0.9032   -6.3187   10.6581 H         1 RES1    0.0000
@<TRIPOS>BOND
     1    1    6 2
     2    2    6 2
     3    3   27 1
     4    4    9 2
     5    5    9 2
     6    6   10 1
     7    7   20 2
     8    8   37 1
     9    9   49 1
    10   10   11 ar
    11   11   12 1
    12   13   11 ar
    13   14   13 1
    14   15   13 ar
    15   16   15 ar
    16   17   16 1
    17   18   10 ar
    18   19   18 1
    19   20   15 1
    20   21   20 1
    21   22    7 1
    22   23   22 ar
    23   24   23 1
    24   25   23 ar
    25   26   25 1
    26   27   25 ar
    27   28   27 ar
    28   29   28 1
    29   30   22 ar
    30   31   30 1
    31   32    3 1
    32   33   32 ar
    33   34   33 1
    34   35   33 ar
    35   36   35 1
    36   37   35 ar
    37   38   37 ar
    38   39   38 1
    39   40   32 ar
    40   41   40 1
    41   42    8 2
    42   43   42 1
    43   44   42 1
    44   45   44 ar
    45   46   45 1
    46   47   45 ar
    47   48   47 1
    48   49   47 ar
    49   50   49 ar
    50   51   50 1
    51   52   44 ar
    52   53   52 1
    53   16   18 ar
    54   28   30 ar
    55   38   40 ar
    56   50   52 ar
@<TRIPOS>SUBSTRUCTURE
     1 RES1 1

@<TRIPOS>CRYSIN
   8.3067    9.0591   17.0515  74.7180  78.8650  64.5220   2 1

