# MOL2 file generated by ConQuest
# Please check atom types

@<TRIPOS>MOLECULE
HUDKIB
    33    35     1
SMALL
NO_CHARGES
****
Generated from CSD

@<TRIPOS>ATOM
      1 O1         3.2495    3.7581    5.1320 O.3       1 RES1    0.0000
      2 O2         0.5270   -1.6535    1.8390 O.2       1 RES1    0.0000
      3 O3         1.4441   -0.8667    0.0704 O.2       1 RES1    0.0000
      4 N1         4.8021    3.1673    7.2231 N.ar      1 RES1    0.0000
      5 N2         1.1330   -0.7817    1.2465 N.pl3     1 RES1    0.0000
      6 C1         5.5534    2.9085    8.2703 C.ar      1 RES1    0.0000
      7 H1         5.8549    2.0351    8.3752 H         1 RES1    0.0000
      8 C2         5.9364    3.8461    9.2417 C.ar      1 RES1    0.0000
      9 H2         6.4547    3.5925    9.9718 H         1 RES1    0.0000
     10 C3         5.5312    5.1314    9.0909 C.ar      1 RES1    0.0000
     11 H3         5.7876    5.7748    9.7121 H         1 RES1    0.0000
     12 C4         4.7236    5.4923    7.9959 C.ar      1 RES1    0.0000
     13 C5         4.2871    6.8263    7.7690 C.ar      1 RES1    0.0000
     14 H4         4.5079    7.4985    8.3731 H         1 RES1    0.0000
     15 C6         3.5520    7.1140    6.6762 C.ar      1 RES1    0.0000
     16 H5         3.2856    7.9918    6.5234 H         1 RES1    0.0000
     17 C7         3.1782    6.1083    5.7567 C.ar      1 RES1    0.0000
     18 H6         2.6650    6.3264    5.0127 H         1 RES1    0.0000
     19 C8         3.5701    4.8134    5.9594 C.ar      1 RES1    0.0000
     20 C9         4.3813    4.4666    7.0864 C.ar      1 RES1    0.0000
     21 C10        2.4437    4.0783    3.9941 C.3       1 RES1    0.0000
     22 H7         2.9215    4.6796    3.4012 H         1 RES1    0.0000
     23 H8         1.6219    4.5110    4.2745 H         1 RES1    0.0000
     24 C11        2.1370    2.7835    3.2877 C.ar      1 RES1    0.0000
     25 C12        2.5122    2.5979    1.9622 C.ar      1 RES1    0.0000
     26 H9         2.9835    3.2664    1.5193 H         1 RES1    0.0000
     27 C13        2.1916    1.4287    1.2933 C.ar      1 RES1    0.0000
     28 H10        2.4424    1.3082    0.4056 H         1 RES1    0.0000
     29 C14        1.4975    0.4504    1.9611 C.ar      1 RES1    0.0000
     30 C15        1.1064    0.6020    3.2819 C.ar      1 RES1    0.0000
     31 H11        0.6347   -0.0710    3.7188 H         1 RES1    0.0000
     32 C16        1.4329    1.7763    3.9385 C.ar      1 RES1    0.0000
     33 H12        1.1783    1.8931    4.8260 H         1 RES1    0.0000
@<TRIPOS>BOND
     1    1   19 1
     2    2    5 2
     3    3    5 2
     4    4    6 ar
     5    5   29 1
     6    6    7 1
     7    8    6 ar
     8    9    8 1
     9   10    8 ar
    10   11   10 1
    11   12   10 ar
    12   13   12 ar
    13   14   13 1
    14   15   13 ar
    15   16   15 1
    16   17   15 ar
    17   18   17 1
    18   19   17 ar
    19   20    4 ar
    20   21    1 1
    21   22   21 1
    22   23   21 1
    23   24   21 1
    24   25   24 ar
    25   26   25 1
    26   27   25 ar
    27   28   27 1
    28   29   27 ar
    29   30   29 ar
    30   31   30 1
    31   32   24 ar
    32   33   32 1
    33   12   20 ar
    34   19   20 ar
    35   30   32 ar
@<TRIPOS>SUBSTRUCTURE
     1 RES1 1

