# MOL2 file generated by ConQuest
# Please check atom types

@<TRIPOS>MOLECULE
HUDLOI
    30    30     1
SMALL
NO_CHARGES
****
Generated from CSD

@<TRIPOS>ATOM
      1 O1         0.9442    5.6471    4.3593 O.2       1 RES1    0.0000
      2 N1        -0.9301    5.9493    5.5786 N.am      1 RES1    0.0000
      3 H1        -1.7725    5.7863    5.6295 H         1 RES1    0.0000
      4 C1         0.0622    5.9678    7.8000 C.3       1 RES1    0.0000
      5 H2         0.6587    5.2656    7.5274 H         1 RES1    0.0000
      6 H3        -0.7246    5.5849    8.1948 H         1 RES1    0.0000
      7 H4         0.5022    6.5296    8.4413 H         1 RES1    0.0000
      8 O2        -0.3166    6.7950    1.9243 O.2       1 RES1    0.0000
      9 N2         0.0264    5.6564    1.7392 N.pl3     1 RES1    0.0000
     10 C2        -1.2448    7.8864    6.9883 C.3       1 RES1    0.0000
     11 H5        -1.4540    8.4071    6.2107 H         1 RES1    0.0000
     12 H6        -0.8207    8.4456    7.6436 H         1 RES1    0.0000
     13 H7        -2.0523    7.5194    7.3550 H         1 RES1    0.0000
     14 O3         1.0252    5.3318    1.1219 O.2       1 RES1    0.0000
     15 C3        -0.3223    6.7774    6.6123 C.3       1 RES1    0.0000
     16 H8         0.4928    7.1749    6.2408 H         1 RES1    0.0000
     17 C4        -0.2554    5.4391    4.5681 C.2       1 RES1    0.0000
     18 C5        -1.0139    4.5249    3.6469 C.ar      1 RES1    0.0000
     19 C6        -1.8431    3.5272    4.1244 C.ar      1 RES1    0.0000
     20 H9        -1.9807    3.4450    5.0423 H         1 RES1    0.0000
     21 C7        -2.4679    2.6553    3.2667 C.ar      1 RES1    0.0000
     22 H10       -3.0210    1.9875    3.6034 H         1 RES1    0.0000
     23 C8        -2.2804    2.7639    1.9259 C.ar      1 RES1    0.0000
     24 H11       -2.7176    2.1677    1.3608 H         1 RES1    0.0000
     25 C9        -1.4559    3.7352    1.3708 C.ar      1 RES1    0.0000
     26 C10       -0.8377    4.5885    2.2773 C.ar      1 RES1    0.0000
     27 C11       -1.2919    3.8412   -0.1162 C.3       1 RES1    0.0000
     28 H12       -0.7001    4.5686   -0.3207 H         1 RES1    0.0000
     29 H13       -2.1475    4.0015   -0.5211 H         1 RES1    0.0000
     30 H14       -0.9244    3.0237   -0.4569 H         1 RES1    0.0000
@<TRIPOS>BOND
     1    1   17 2
     2    2    3 1
     3    4    5 1
     4    6    4 1
     5    7    4 1
     6    8    9 2
     7    9   14 2
     8   10   11 1
     9   12   10 1
    10   13   10 1
    11   15    2 1
    12   16   15 1
    13   17    2 1
    14   18   17 1
    15   19   18 ar
    16   20   19 1
    17   21   19 ar
    18   22   21 1
    19   23   21 ar
    20   24   23 1
    21   25   23 ar
    22   26    9 1
    23   27   25 1
    24   28   27 1
    25   29   27 1
    26   30   27 1
    27    4   15 1
    28   10   15 1
    29   18   26 ar
    30   25   26 ar
@<TRIPOS>SUBSTRUCTURE
     1 RES1 1

@<TRIPOS>CRYSIN
   9.4230   13.2500   20.0410  90.0000  90.0000  90.0000  61 1

