# MOL2 file generated by ConQuest
# Please check atom types

@<TRIPOS>MOLECULE
HUFCOB
    30    31     1
SMALL
NO_CHARGES
****
Generated from CSD

@<TRIPOS>ATOM
      1 C1        -1.9028    9.4412    4.0786 C.3       1 RES1    0.0000
      2 H1        -2.8178    9.2542    4.3003 H         1 RES1    0.0000
      3 H2        -1.4425    9.7557    4.8606 H         1 RES1    0.0000
      4 H3        -1.4810    8.6418    3.7581 H         1 RES1    0.0000
      5 C2        -1.8529   10.4780    3.0288 C.2       1 RES1    0.0000
      6 C3        -1.6078   12.0844    1.5697 C.2       1 RES1    0.0000
      7 H4        -1.2784   12.8455    1.1509 H         1 RES1    0.0000
      8 C4        -1.1023   11.5854    2.8066 C.2       1 RES1    0.0000
      9 C5        -0.0378   12.0403    3.7109 C.2       1 RES1    0.0000
     10 C6         1.2129   15.0133    2.3749 C.2       1 RES1    0.0000
     11 H5         1.8548   15.1136    3.0405 H         1 RES1    0.0000
     12 C7         1.1454   16.0025    1.3071 C.ar      1 RES1    0.0000
     13 C8         0.2599   15.8979    0.2260 C.ar      1 RES1    0.0000
     14 H6        -0.3410   15.1892    0.1895 H         1 RES1    0.0000
     15 C9         0.2712   16.8344   -0.7819 C.ar      1 RES1    0.0000
     16 H7        -0.3187   16.7492   -1.4966 H         1 RES1    0.0000
     17 C10        1.1491   17.8990   -0.7432 C.ar      1 RES1    0.0000
     18 H8         1.1610   18.5336   -1.4230 H         1 RES1    0.0000
     19 C11        2.0076   17.9947    0.3313 C.ar      1 RES1    0.0000
     20 C12        2.0218   17.0749    1.3564 C.ar      1 RES1    0.0000
     21 H9         2.6099   17.1726    2.0700 H         1 RES1    0.0000
     22 H10        1.3024   13.3823    4.0715 H         1 RES1    0.0000
     23 N1        -2.5714   11.3681    1.0914 N.2       1 RES1    0.0000
     24 N2         0.6450   13.1759    3.4873 N.am      1 RES1    0.0000
     25 N3         0.4208   14.0168    2.4274 N.2       1 RES1    0.0000
     26 N4         2.9542   19.1140    0.3958 N.pl3     1 RES1    0.0000
     27 O1        -2.7430   10.3230    2.0335 O.3       1 RES1    0.0000
     28 O2         0.2567   11.3812    4.7185 O.2       1 RES1    0.0000
     29 O3         3.6061   19.2662    1.4124 O.2       1 RES1    0.0000
     30 O4         3.0505   19.8473   -0.5655 O.2       1 RES1    0.0000
@<TRIPOS>BOND
     1    1    2 1
     2    3    1 1
     3    4    1 1
     4    5    1 1
     5    6    7 1
     6    8    5 2
     7    9    8 1
     8   10   11 1
     9   12   10 1
    10   13   12 ar
    11   14   13 1
    12   15   13 ar
    13   16   15 1
    14   17   15 ar
    15   18   17 1
    16   19   17 ar
    17   20   12 ar
    18   21   20 1
    19   22   24 1
    20   23    6 2
    21   24    9 1
    22   25   10 2
    23   26   19 1
    24   27    5 1
    25   28    9 2
    26   29   26 2
    27   30   26 2
    28    6    8 1
    29   19   20 ar
    30   23   27 1
    31   24   25 1
@<TRIPOS>SUBSTRUCTURE
     1 RES1 1

@<TRIPOS>CRYSIN
   4.8668   25.2020   10.2570  90.0000 100.7210  90.0000  14 1

