# MOL2 file generated by ConQuest
# Please check atom types

@<TRIPOS>MOLECULE
HUFFEU
    27    28     1
SMALL
NO_CHARGES
****
Generated from CSD

@<TRIPOS>ATOM
      1 N1         8.5862    2.0941   10.9244 N.am      1 RES1    0.0000
      2 O1         9.3717    0.0656   11.3686 O.2       1 RES1    0.0000
      3 O2         9.3369    4.0692   13.4719 O.2       1 RES1    0.0000
      4 O3         7.5137    5.2176   13.6887 O.2       1 RES1    0.0000
      5 O4         5.3689    3.8323   12.0864 O.2       1 RES1    0.0000
      6 O5         6.3976    5.3080   10.8838 O.2       1 RES1    0.0000
      7 C1        11.6307    0.5168    9.7021 C.ar      1 RES1    0.0000
      8 H1        11.7688   -0.0486   10.4268 H         1 RES1    0.0000
      9 C2        12.5858    0.6128    8.7237 C.ar      1 RES1    0.0000
     10 H2        13.3691    0.1172    8.7937 H         1 RES1    0.0000
     11 C3        12.3958    1.4314    7.6458 C.ar      1 RES1    0.0000
     12 H3        13.0483    1.4950    6.9863 H         1 RES1    0.0000
     13 C4        11.2340    2.1596    7.5409 C.ar      1 RES1    0.0000
     14 H4        11.0973    2.7126    6.8053 H         1 RES1    0.0000
     15 C5        10.2720    2.0704    8.5253 C.ar      1 RES1    0.0000
     16 H5         9.4886    2.5655    8.4492 H         1 RES1    0.0000
     17 C6        10.4617    1.2544    9.6197 C.ar      1 RES1    0.0000
     18 C7         9.4529    1.0867   10.6975 C.2       1 RES1    0.0000
     19 C8         8.6488    3.5549   10.7398 C.3       1 RES1    0.0000
     20 H6         8.2829    3.8622    9.8959 H         1 RES1    0.0000
     21 H7         9.5256    3.9364   10.9036 H         1 RES1    0.0000
     22 C9         7.6855    3.6808   11.9174 C.3       1 RES1    0.0000
     23 C10        7.6817    2.1565   12.0714 C.3       1 RES1    0.0000
     24 H8         8.0747    1.8429   12.9014 H         1 RES1    0.0000
     25 H9         6.8165    1.7463   11.9154 H         1 RES1    0.0000
     26 N2         8.2185    4.3996   13.1355 N.pl3     1 RES1    0.0000
     27 N3         6.3659    4.3236   11.6062 N.pl3     1 RES1    0.0000
@<TRIPOS>BOND
     1    1   18 1
     2    2   18 2
     3    3   26 2
     4    4   26 2
     5    5   27 2
     6    6   27 2
     7    7    8 1
     8    9    7 ar
     9   10    9 1
    10   11    9 ar
    11   12   11 1
    12   13   11 ar
    13   14   13 1
    14   15   13 ar
    15   16   15 1
    16   17    7 ar
    17   18   17 1
    18   19    1 1
    19   20   19 1
    20   21   19 1
    21   22   19 1
    22   23    1 1
    23   24   23 1
    24   25   23 1
    25   26   22 1
    26   27   22 1
    27   15   17 ar
    28   22   23 1
@<TRIPOS>SUBSTRUCTURE
     1 RES1 1

@<TRIPOS>CRYSIN
  13.1760    6.2344   13.5220  90.0000  92.6120  90.0000  14 1

