# MOL2 file generated by ConQuest
# Please check atom types

@<TRIPOS>MOLECULE
HUFMEB
    30    32     1
SMALL
NO_CHARGES
****
Generated from CSD

@<TRIPOS>ATOM
      1 O1         7.4645    6.2131    1.4298 O.3       1 RES1    0.0000
      2 N1         6.1786    6.6517    1.1642 N.pl3     1 RES1    0.0000
      3 N2         3.0223    8.4090   -1.8336 N.1       1 RES1    0.0000
      4 C1         5.1191    6.4541    2.0233 C.ar      1 RES1    0.0000
      5 C2         5.1026    5.8465    3.2904 C.ar      1 RES1    0.0000
      6 H1         5.8831    5.5344    3.6884 H         1 RES1    0.0000
      7 C3         3.8941    5.7345    3.9111 C.ar      1 RES1    0.0000
      8 H2         3.8541    5.3463    4.7559 H         1 RES1    0.0000
      9 C4         2.6835    6.1959    3.3032 C.ar      1 RES1    0.0000
     10 C5         1.4333    6.0171    3.9444 C.ar      1 RES1    0.0000
     11 H3         1.4011    5.5979    4.7747 H         1 RES1    0.0000
     12 C6         0.2732    6.4487    3.3665 C.ar      1 RES1    0.0000
     13 H4        -0.5376    6.3281    3.8061 H         1 RES1    0.0000
     14 C7         0.3028    7.0768    2.1039 C.ar      1 RES1    0.0000
     15 H5        -0.4884    7.3778    1.7189 H         1 RES1    0.0000
     16 C8         1.4888    7.2460    1.4423 C.ar      1 RES1    0.0000
     17 H6         1.4935    7.6507    0.6054 H         1 RES1    0.0000
     18 C9         2.7085    6.8144    2.0149 C.ar      1 RES1    0.0000
     19 C10        3.9810    6.9305    1.3705 C.ar      1 RES1    0.0000
     20 C11        4.4217    7.4034    0.0829 C.2       1 RES1    0.0000
     21 C12        5.7904    7.2142   -0.0068 C.2       1 RES1    0.0000
     22 C13        6.7446    7.5456   -1.0970 C.3       1 RES1    0.0000
     23 H7         7.1695    8.3846   -0.9055 H         1 RES1    0.0000
     24 H8         6.2698    7.6101   -1.9286 H         1 RES1    0.0000
     25 H9         7.4093    6.8563   -1.1613 H         1 RES1    0.0000
     26 C14        8.2188    7.2516    2.0913 C.3       1 RES1    0.0000
     27 H10        8.3458    7.9878    1.4887 H         1 RES1    0.0000
     28 H11        9.0732    6.9057    2.3583 H         1 RES1    0.0000
     29 H12        7.7385    7.5526    2.8665 H         1 RES1    0.0000
     30 C15        3.6434    7.9607   -0.9720 C.1       1 RES1    0.0000
@<TRIPOS>BOND
     1    1    2 1
     2    2    4 1
     3    3   30 3
     4    4    5 ar
     5    5    6 1
     6    7    5 ar
     7    8    7 1
     8    9    7 ar
     9   10    9 ar
    10   11   10 1
    11   12   10 ar
    12   13   12 1
    13   14   12 ar
    14   15   14 1
    15   16   14 ar
    16   17   16 1
    17   18    9 ar
    18   19    4 ar
    19   20   19 1
    20   21    2 1
    21   22   21 1
    22   23   22 1
    23   24   22 1
    24   25   22 1
    25   26    1 1
    26   27   26 1
    27   28   26 1
    28   29   26 1
    29   30   20 1
    30   16   18 ar
    31   18   19 ar
    32   20   21 2
@<TRIPOS>SUBSTRUCTURE
     1 RES1 1

@<TRIPOS>CRYSIN
  18.6630    7.3763   18.5890  90.0000 113.4600  90.0000  15 1

