# MOL2 file generated by ConQuest
# Please check atom types

@<TRIPOS>MOLECULE
HUFTOR
    43    43     1
SMALL
NO_CHARGES
****
Generated from CSD

@<TRIPOS>ATOM
      1 C1        -1.5512    2.7990   10.8567 C.3       1 RES1    0.0000
      2 C2        -0.6746    3.7660   10.1043 C.3       1 RES1    0.0000
      3 H1        -0.1875    3.2950    9.4238 H         1 RES1    0.0000
      4 H2        -0.0571    4.1789   10.7133 H         1 RES1    0.0000
      5 H3        -1.2211    4.4418    9.6956 H         1 RES1    0.0000
      6 C3        -2.4605    2.0436    9.9154 C.3       1 RES1    0.0000
      7 H4        -1.9333    1.6017    9.2457 H         1 RES1    0.0000
      8 H5        -3.0651    2.6577    9.4931 H         1 RES1    0.0000
      9 H6        -2.9622    1.3910   10.4097 H         1 RES1    0.0000
     10 C4        -2.3153    3.5125   11.9409 C.3       1 RES1    0.0000
     11 H7        -1.7019    3.9904   12.5032 H         1 RES1    0.0000
     12 H8        -2.7986    2.8710   12.4676 H         1 RES1    0.0000
     13 H9        -2.9330    4.1309   11.5436 H         1 RES1    0.0000
     14 O1        -0.5565    1.8800   11.4534 O.3       1 RES1    0.0000
     15 C5        -0.9346    0.8925   12.2862 C.2       1 RES1    0.0000
     16 O2        -2.0778    0.5567   12.4946 O.2       1 RES1    0.0000
     17 N1         0.1396    0.3323   12.8492 N.am      1 RES1    0.0000
     18 H10        1.0150    0.6938   12.5013 H         1 RES1    0.0000
     19 C6         0.0361   -0.7923   13.7612 C.3       1 RES1    0.0000
     20 H11       -0.8713   -0.8102   14.1301 H         1 RES1    0.0000
     21 C7         0.2993   -2.1121   13.0638 C.3       1 RES1    0.0000
     22 H12       -0.3432   -2.2363   12.3626 H         1 RES1    0.0000
     23 H13        0.2244   -2.8290   13.6971 H         1 RES1    0.0000
     24 H14        1.1842   -2.1061   12.6906 H         1 RES1    0.0000
     25 C8         1.0193   -0.6030   14.9064 C.3       1 RES1    0.0000
     26 H15        0.9162   -1.3293   15.5414 H         1 RES1    0.0000
     27 H16        1.9249   -0.6347   14.5593 H         1 RES1    0.0000
     28 N2         0.8115    0.6638   15.5892 N.am      1 RES1    0.0000
     29 H17       -0.1311    1.0364   15.6763 H         1 RES1    0.0000
     30 C9         1.8156    1.3978   16.0332 C.2       1 RES1    0.0000
     31 O3         2.9898    1.1845   16.0077 O.2       1 RES1    0.0000
     32 O4         1.2824    2.5592   16.6386 O.3       1 RES1    0.0000
     33 N3         2.2839    3.4046   17.0682 N.am      1 RES1    0.0000
     34 C10        2.8034    4.4007   16.2544 C.2       1 RES1    0.0000
     35 O5         2.3975    4.6371   15.1483 O.2       1 RES1    0.0000
     36 C11        3.8862    5.0439   17.0414 C.3       1 RES1    0.0000
     37 H18        3.6977    5.9869   17.1701 H         1 RES1    0.0000
     38 H19        4.7367    4.9583   16.5835 H         1 RES1    0.0000
     39 C12        3.9260    4.3245   18.3711 C.3       1 RES1    0.0000
     40 H20        4.7985    3.9253   18.5158 H         1 RES1    0.0000
     41 H21        3.7433    4.9411   19.0969 H         1 RES1    0.0000
     42 C13        2.8693    3.2658   18.3031 C.2       1 RES1    0.0000
     43 O6         2.5509    2.4273   19.1163 O.2       1 RES1    0.0000
@<TRIPOS>BOND
     1    1    2 1
     2    2    3 1
     3    4    2 1
     4    5    2 1
     5    6    1 1
     6    7    6 1
     7    8    6 1
     8    9    6 1
     9   10    1 1
    10   11   10 1
    11   12   10 1
    12   13   10 1
    13   14    1 1
    14   15   14 1
    15   16   15 2
    16   17   15 1
    17   18   17 1
    18   19   17 1
    19   20   19 1
    20   21   19 1
    21   22   21 1
    22   23   21 1
    23   24   21 1
    24   25   19 1
    25   26   25 1
    26   27   25 1
    27   28   25 1
    28   29   28 1
    29   30   28 1
    30   31   30 2
    31   32   30 1
    32   33   32 1
    33   34   33 1
    34   35   34 2
    35   36   34 1
    36   37   36 1
    37   38   36 1
    38   39   36 1
    39   40   39 1
    40   41   39 1
    41   42   33 1
    42   43   42 2
    43   39   42 1
@<TRIPOS>SUBSTRUCTURE
     1 RES1 1

@<TRIPOS>CRYSIN
   5.1260    8.5650   18.7540  90.0000  91.9960  90.0000   4 1

