# MOL2 file generated by ConQuest
# Please check atom types

@<TRIPOS>MOLECULE
HUFYAJ
    36    37     1
SMALL
NO_CHARGES
****
Generated from CSD

@<TRIPOS>ATOM
      1 O1        -6.6691    1.3661   10.6672 O.2       1 RES1    0.0000
      2 O2        -5.4360    2.8833   11.5997 O.2       1 RES1    0.0000
      3 O3         0.7811   -0.0048    5.5538 O.2       1 RES1    0.0000
      4 O4         3.4878    3.7804    4.7307 O.2       1 RES1    0.0000
      5 N1        -5.6464    2.0489   10.7235 N.pl3     1 RES1    0.0000
      6 N2         1.6835    2.0655    5.6308 N.am      1 RES1    0.0000
      7 H1         1.6260    2.9373    5.7263 H         1 RES1    0.0000
      8 N3         2.7338    1.6573    4.8144 N.am      1 RES1    0.0000
      9 H2         2.8657    0.7894    4.8026 H         1 RES1    0.0000
     10 C1        -2.5656    1.3395    7.9124 C.ar      1 RES1    0.0000
     11 C2        -3.6126    0.4262    8.0642 C.ar      1 RES1    0.0000
     12 H3        -3.6193   -0.3703    7.5473 H         1 RES1    0.0000
     13 C3        -4.6422    0.6702    8.9624 C.ar      1 RES1    0.0000
     14 H4        -5.3515    0.0466    9.0681 H         1 RES1    0.0000
     15 C4        -4.6152    1.8361    9.6986 C.ar      1 RES1    0.0000
     16 C5        -3.6242    2.7912    9.5385 C.ar      1 RES1    0.0000
     17 H5        -3.6483    3.6043   10.0297 H         1 RES1    0.0000
     18 C6        -2.5984    2.5335    8.6464 C.ar      1 RES1    0.0000
     19 H6        -1.9069    3.1745    8.5299 H         1 RES1    0.0000
     20 C7        -1.4483    0.9813    7.0245 C.2       1 RES1    0.0000
     21 H7        -1.5000    0.1373    6.5910 H         1 RES1    0.0000
     22 C8        -0.3678    1.7244    6.7671 C.2       1 RES1    0.0000
     23 H8        -0.2975    2.6026    7.1239 H         1 RES1    0.0000
     24 C9         0.7160    1.1756    5.9252 C.2       1 RES1    0.0000
     25 C10        3.6086    2.5969    4.4008 C.2       1 RES1    0.0000
     26 C11        4.6824    2.1278    3.4796 C.ar      1 RES1    0.0000
     27 C12        5.8938    2.8267    3.4515 C.ar      1 RES1    0.0000
     28 H9         6.0454    3.5441    4.0549 H         1 RES1    0.0000
     29 C13        6.8783    2.4648    2.5328 C.ar      1 RES1    0.0000
     30 H10        7.7083    2.9261    2.5203 H         1 RES1    0.0000
     31 C14        6.6458    1.4311    1.6368 C.ar      1 RES1    0.0000
     32 H11        7.3098    1.2037    0.9963 H         1 RES1    0.0000
     33 C15        5.4506    0.7280    1.6694 C.ar      1 RES1    0.0000
     34 H12        5.3015    0.0123    1.0637 H         1 RES1    0.0000
     35 C16        4.4714    1.0762    2.5934 C.ar      1 RES1    0.0000
     36 H13        3.6540    0.5933    2.6193 H         1 RES1    0.0000
@<TRIPOS>BOND
     1    1    5 2
     2    2    5 2
     3    3   24 2
     4    4   25 2
     5    5   15 1
     6    6    7 1
     7    8    6 1
     8    9    8 1
     9   10   11 ar
    10   11   12 1
    11   13   11 ar
    12   14   13 1
    13   15   13 ar
    14   16   15 ar
    15   17   16 1
    16   18   10 ar
    17   19   18 1
    18   20   10 1
    19   21   20 1
    20   22   20 2
    21   23   22 1
    22   24    6 1
    23   25    8 1
    24   26   25 1
    25   27   26 ar
    26   28   27 1
    27   29   27 ar
    28   30   29 1
    29   31   29 ar
    30   32   31 1
    31   33   31 ar
    32   34   33 1
    33   35   26 ar
    34   36   35 1
    35   16   18 ar
    36   22   24 1
    37   33   35 ar
@<TRIPOS>SUBSTRUCTURE
     1 RES1 1

@<TRIPOS>CRYSIN
   6.8263    9.6483   10.8571  95.5350 102.7010  91.7280   2 1

