# MOL2 file generated by ConQuest
# Please check atom types

@<TRIPOS>MOLECULE
HUFYEM
    28    31     1
SMALL
NO_CHARGES
****
Generated from CSD

@<TRIPOS>ATOM
      1 O1         3.6760    3.0026    4.2518 O.3       1 RES1    0.0000
      2 C1         3.7068    2.9928    5.7055 C.3       1 RES1    0.0000
      3 H1         3.4794    3.8883    6.0592 H         1 RES1    0.0000
      4 H2         4.6105    2.7477    6.0279 H         1 RES1    0.0000
      5 C2         2.6747    1.9568    6.1762 C.3       1 RES1    0.0000
      6 C3         3.1881    0.8448    7.1350 C.3       1 RES1    0.0000
      7 H3         4.1423    0.9846    7.4017 H         1 RES1    0.0000
      8 O2         2.9971   -0.3842    6.4267 O.3       1 RES1    0.0000
      9 N1         3.2165   -0.0121    5.0188 N.3       1 RES1    0.0000
     10 C4         2.3532    1.1861    4.9074 C.3       1 RES1    0.0000
     11 H4         1.3819    0.9665    4.8122 H         1 RES1    0.0000
     12 C5         2.8914    2.0156    3.7721 C.2       1 RES1    0.0000
     13 O3         2.7152    1.8600    2.5938 O.2       1 RES1    0.0000
     14 C6         2.7251   -1.1329    4.2326 C.3       1 RES1    0.0000
     15 H5         3.3277   -1.8982    4.3433 H         1 RES1    0.0000
     16 H6         2.6897   -0.8774    3.2871 H         1 RES1    0.0000
     17 H7         1.8268   -1.3773    4.5391 H         1 RES1    0.0000
     18 C7         1.4725    2.5504    6.9670 C.3       1 RES1    0.0000
     19 H8         0.8250    3.1001    6.4392 H         1 RES1    0.0000
     20 C8         2.0945    3.2268    8.1770 C.2       1 RES1    0.0000
     21 H9         2.1492    4.1627    8.3295 H         1 RES1    0.0000
     22 C9         2.5467    2.2744    8.9805 C.2       1 RES1    0.0000
     23 H10        2.9906    2.4051    9.8102 H         1 RES1    0.0000
     24 C10        2.2276    0.9354    8.3365 C.3       1 RES1    0.0000
     25 H11        2.2061    0.1434    8.9465 H         1 RES1    0.0000
     26 C11        0.9074    1.2840    7.6231 C.3       1 RES1    0.0000
     27 H12        0.6319    0.5988    6.9640 H         1 RES1    0.0000
     28 H13        0.1672    1.4734    8.2522 H         1 RES1    0.0000
@<TRIPOS>BOND
     1    1    2 1
     2    2    3 1
     3    4    2 1
     4    5    2 1
     5    6    5 1
     6    7    6 1
     7    8    6 1
     8    9    8 1
     9   10    5 1
    10   11   10 1
    11   12    1 1
    12   13   12 2
    13   14    9 1
    14   15   14 1
    15   16   14 1
    16   17   14 1
    17   18    5 1
    18   19   18 1
    19   20   18 1
    20   21   20 1
    21   22   20 2
    22   23   22 1
    23   24    6 1
    24   25   24 1
    25   26   18 1
    26   27   26 1
    27   28   26 1
    28    9   10 1
    29   10   12 1
    30   22   24 1
    31   24   26 1
@<TRIPOS>SUBSTRUCTURE
     1 RES1 1

@<TRIPOS>CRYSIN
   8.6209   13.9266   16.4518  90.0000  90.0000  90.0000  61 1

