# MOL2 file generated by ConQuest
# Please check atom types

@<TRIPOS>MOLECULE
HUGPUV
    56    57     1
SMALL
NO_CHARGES
****
Generated from CSD

@<TRIPOS>ATOM
      1 N1         5.9295    2.0033   11.7844 N.2       1 RES1    0.0000
      2 O1         6.9829    1.1011   11.9753 O.3       1 RES1    0.0000
      3 O2         3.8931    3.1918   10.6106 O.3       1 RES1    0.0000
      4 H1         4.4976    2.6423   10.6770 H         1 RES1    0.0000
      5 C1         7.1604    0.3286   10.7872 C.3       1 RES1    0.0000
      6 H2         7.3214    0.9145   10.0301 H         1 RES1    0.0000
      7 H3         6.3629   -0.1924   10.6063 H         1 RES1    0.0000
      8 C2         8.3332   -0.5806   10.9907 C.3       1 RES1    0.0000
      9 H4         8.1397   -1.1901   11.7197 H         1 RES1    0.0000
     10 H5         9.1058   -0.0509   11.2420 H         1 RES1    0.0000
     11 C3         8.6627   -1.3772    9.7568 C.3       1 RES1    0.0000
     12 H6         8.8445   -0.7634    9.0282 H         1 RES1    0.0000
     13 H7         7.8876   -1.9052    9.5096 H         1 RES1    0.0000
     14 C4         9.8455   -2.3003    9.9202 C.3       1 RES1    0.0000
     15 H8         9.6496   -2.9366   10.6249 H         1 RES1    0.0000
     16 H9        10.6119   -1.7771   10.2011 H         1 RES1    0.0000
     17 C5         5.7413    2.7458   12.7906 C.2       1 RES1    0.0000
     18 H10        6.2799    2.6369   13.5414 H         1 RES1    0.0000
     19 C6         4.7144    3.7562   12.8042 C.ar      1 RES1    0.0000
     20 C7         3.8466    3.9498   11.7355 C.ar      1 RES1    0.0000
     21 C8         2.8888    4.9393   11.8002 C.ar      1 RES1    0.0000
     22 H11        2.2999    5.0557   11.0896 H         1 RES1    0.0000
     23 C9         2.7929    5.7483   12.8917 C.ar      1 RES1    0.0000
     24 H12        2.1484    6.4178   12.9150 H         1 RES1    0.0000
     25 C10        3.6411    5.5826   13.9564 C.ar      1 RES1    0.0000
     26 H13        3.5747    6.1316   14.7050 H         1 RES1    0.0000
     27 C11        4.5875    4.5952   13.8996 C.ar      1 RES1    0.0000
     28 H14        5.1646    4.4842   14.6195 H         1 RES1    0.0000
     29 N1B       14.1265   -7.3640    6.8036 N.2       1 RES1    0.0000
     30 O1B       13.0732   -6.4618    6.6127 O.3       1 RES1    0.0000
     31 O2B       16.1629   -8.5525    7.9774 O.3       1 RES1    0.0000
     32 H1B       15.5585   -8.0030    7.9111 H         1 RES1    0.0000
     33 C1B       12.8956   -5.6893    7.8008 C.3       1 RES1    0.0000
     34 H2B       12.7346   -6.2752    8.5579 H         1 RES1    0.0000
     35 H3B       13.6932   -5.1683    7.9817 H         1 RES1    0.0000
     36 C2B       11.7229   -4.7801    7.5973 C.3       1 RES1    0.0000
     37 H4B       11.9164   -4.1706    6.8683 H         1 RES1    0.0000
     38 H5B       10.9502   -5.3098    7.3460 H         1 RES1    0.0000
     39 C3B       11.3934   -3.9835    8.8312 C.3       1 RES1    0.0000
     40 H6B       11.2115   -4.5973    9.5598 H         1 RES1    0.0000
     41 H7B       12.1684   -3.4555    9.0784 H         1 RES1    0.0000
     42 C4B       10.2105   -3.0604    8.6678 C.3       1 RES1    0.0000
     43 H8B       10.4065   -2.4241    7.9631 H         1 RES1    0.0000
     44 H9B        9.4441   -3.5836    8.3869 H         1 RES1    0.0000
     45 C5B       14.3148   -8.1065    5.7974 C.2       1 RES1    0.0000
     46 H10B      13.7762   -7.9976    5.0466 H         1 RES1    0.0000
     47 C6B       15.3417   -9.1169    5.7838 C.ar      1 RES1    0.0000
     48 C7B       16.2094   -9.3105    6.8525 C.ar      1 RES1    0.0000
     49 C8B       17.1673  -10.3000    6.7878 C.ar      1 RES1    0.0000
     50 H11B      17.7561  -10.4164    7.4984 H         1 RES1    0.0000
     51 C9B       17.2632  -11.1090    5.6963 C.ar      1 RES1    0.0000
     52 H12B      17.9077  -11.7785    5.6731 H         1 RES1    0.0000
     53 C10B      16.4150  -10.9433    4.6316 C.ar      1 RES1    0.0000
     54 H13B      16.4814  -11.4923    3.8830 H         1 RES1    0.0000
     55 C11B      15.4685   -9.9559    4.6885 C.ar      1 RES1    0.0000
     56 H14B      14.8915   -9.8449    3.9685 H         1 RES1    0.0000
@<TRIPOS>BOND
     1    1    2 1
     2    2    5 1
     3    3    4 1
     4    5    6 1
     5    7    5 1
     6    8    5 1
     7    9    8 1
     8   10    8 1
     9   11    8 1
    10   12   11 1
    11   13   11 1
    12   14   11 1
    13   15   14 1
    14   16   14 1
    15   17    1 2
    16   18   17 1
    17   19   17 1
    18   20    3 1
    19   21   20 ar
    20   22   21 1
    21   23   21 ar
    22   24   23 1
    23   25   23 ar
    24   26   25 1
    25   27   19 ar
    26   28   27 1
    27   29   30 1
    28   30   33 1
    29   31   32 1
    30   33   34 1
    31   35   33 1
    32   36   33 1
    33   37   36 1
    34   38   36 1
    35   39   36 1
    36   40   39 1
    37   41   39 1
    38   42   14 1
    39   43   42 1
    40   44   42 1
    41   45   29 2
    42   46   45 1
    43   47   45 1
    44   48   31 1
    45   49   48 ar
    46   50   49 1
    47   51   49 ar
    48   52   51 1
    49   53   51 ar
    50   54   53 1
    51   55   47 ar
    52   56   55 1
    53   19   20 ar
    54   25   27 ar
    55   39   42 1
    56   47   48 ar
    57   53   55 ar
@<TRIPOS>SUBSTRUCTURE
     1 RES1 1

@<TRIPOS>CRYSIN
  10.5003    5.3607   18.6120  90.0000  92.9090  90.0000 231 1

