# MOL2 file generated by ConQuest
# Please check atom types

@<TRIPOS>MOLECULE
HUHTAF
    28    30     1
SMALL
NO_CHARGES
****
Generated from CSD

@<TRIPOS>ATOM
      1 C1         1.2556   -0.2696    1.6661 C.ar      1 RES1    0.0000
      2 H1         0.9985   -0.1953    0.7750 H         1 RES1    0.0000
      3 C2         1.9969   -1.3419    2.0820 C.ar      1 RES1    0.0000
      4 H2         2.2406   -2.0016    1.4735 H         1 RES1    0.0000
      5 C3         2.3851   -1.4462    3.4086 C.ar      1 RES1    0.0000
      6 H3         2.8958   -2.1747    3.6799 H         1 RES1    0.0000
      7 C4         2.0301   -0.4951    4.3253 C.ar      1 RES1    0.0000
      8 H4         2.2945   -0.5814    5.2133 H         1 RES1    0.0000
      9 C5         1.2708    0.6032    3.9245 C.ar      1 RES1    0.0000
     10 C6         0.8870    0.7134    2.5865 C.ar      1 RES1    0.0000
     11 C7         0.0818    1.8514    2.1773 C.2       1 RES1    0.0000
     12 C8         0.2427    2.5595    4.4630 C.2       1 RES1    0.0000
     13 C9        -0.1901    3.6338    5.3937 C.ar      1 RES1    0.0000
     14 C10       -0.8903    3.2727    6.5320 C.ar      1 RES1    0.0000
     15 H5        -1.0422    2.3722    6.7109 H         1 RES1    0.0000
     16 C11       -1.3672    4.2320    7.4089 C.ar      1 RES1    0.0000
     17 H6        -1.8379    3.9700    8.1679 H         1 RES1    0.0000
     18 C12       -1.1515    5.5659    7.1673 C.ar      1 RES1    0.0000
     19 H7        -1.4820    6.2046    7.7574 H         1 RES1    0.0000
     20 C13       -0.4487    5.9587    6.0568 C.ar      1 RES1    0.0000
     21 H8        -0.2942    6.8615    5.8914 H         1 RES1    0.0000
     22 C14        0.0257    4.9956    5.1879 C.ar      1 RES1    0.0000
     23 N1         0.9254    1.5756    4.8711 N.2       1 RES1    0.0000
     24 N2         0.8537    5.4601    4.0666 N.pl3     1 RES1    0.0000
     25 O1        -0.3338    2.1015    1.0879 O.2       1 RES1    0.0000
     26 O2        -0.2509    2.7344    3.2010 O.3       1 RES1    0.0000
     27 O3         1.6021    4.6679    3.5347 O.2       1 RES1    0.0000
     28 O4         0.7675    6.6298    3.7440 O.2       1 RES1    0.0000
@<TRIPOS>BOND
     1    1    2 1
     2    3    1 ar
     3    4    3 1
     4    5    3 ar
     5    6    5 1
     6    7    5 ar
     7    8    7 1
     8    9    7 ar
     9   10    1 ar
    10   11   10 1
    11   12   13 1
    12   13   14 ar
    13   14   15 1
    14   16   14 ar
    15   17   16 1
    16   18   16 ar
    17   19   18 1
    18   20   18 ar
    19   21   20 1
    20   22   13 ar
    21   23    9 1
    22   24   22 1
    23   25   11 2
    24   26   11 1
    25   27   24 2
    26   28   24 2
    27    9   10 ar
    28   12   26 1
    29   12   23 2
    30   20   22 ar
@<TRIPOS>SUBSTRUCTURE
     1 RES1 1

@<TRIPOS>CRYSIN
   4.1824   22.1910   12.7670  90.0000  93.2600  90.0000  14 1

