# MOL2 file generated by ConQuest
# Please check atom types

@<TRIPOS>MOLECULE
HUJXIV
    26    27     1
SMALL
NO_CHARGES
****
Generated from CSD

@<TRIPOS>ATOM
      1 O1        -0.0389    8.2986   -3.1446 O.2       1 RES1    0.0000
      2 O2         0.3864    9.4773   -1.3602 O.2       1 RES1    0.0000
      3 O3         0.6266    5.4601    1.7010 O.3       1 RES1    0.0000
      4 O4        -0.5937    4.6654    4.8182 O.3       1 RES1    0.0000
      5 H1        -0.8754    3.9069    5.0425 H         1 RES1    0.0000
      6 N1         0.1610    8.4005   -1.9287 N.pl3     1 RES1    0.0000
      7 N2         0.4898    7.1948    0.1691 N.2       1 RES1    0.0000
      8 N3        -0.1209    5.1642   -0.5336 N.pl3     1 RES1    0.0000
      9 C1         0.1255    7.2053   -1.1601 C.2       1 RES1    0.0000
     10 C2         0.3299    5.9398    0.4952 C.2       1 RES1    0.0000
     11 C3         0.1786    4.0775    1.9810 C.3       1 RES1    0.0000
     12 H2        -0.8001    4.0832    2.1834 H         1 RES1    0.0000
     13 C4         0.4303    3.2182    0.7634 C.3       1 RES1    0.0000
     14 H3         0.1742    2.2830    0.9623 H         1 RES1    0.0000
     15 H4         1.3957    3.2311    0.5455 H         1 RES1    0.0000
     16 C5        -0.3646    3.7158   -0.4310 C.3       1 RES1    0.0000
     17 H5        -0.0679    3.2579   -1.2572 H         1 RES1    0.0000
     18 H6        -1.3293    3.5376   -0.3004 H         1 RES1    0.0000
     19 C6        -0.2628    5.9874   -1.6149 C.2       1 RES1    0.0000
     20 H7        -0.5639    5.7588   -2.4866 H         1 RES1    0.0000
     21 C7         0.9411    3.6325    3.2116 C.3       1 RES1    0.0000
     22 H8         1.9043    3.5764    2.9892 H         1 RES1    0.0000
     23 H9         0.6377    2.7252    3.4669 H         1 RES1    0.0000
     24 C8         0.7632    4.5638    4.4013 C.3       1 RES1    0.0000
     25 H10        1.3101    4.2319    5.1574 H         1 RES1    0.0000
     26 H11        1.0961    5.4643    4.1592 H         1 RES1    0.0000
@<TRIPOS>BOND
     1    1    6 2
     2    2    6 2
     3    3   10 1
     4    4    5 1
     5    6    9 1
     6    7    9 1
     7    8   10 1
     8    9   19 2
     9   10    7 2
    10   11    3 1
    11   12   11 1
    12   13   11 1
    13   14   13 1
    14   15   13 1
    15   16    8 1
    16   17   16 1
    17   18   16 1
    18   19    8 1
    19   20   19 1
    20   21   11 1
    21   22   21 1
    22   23   21 1
    23   24    4 1
    24   25   24 1
    25   26   24 1
    26   13   16 1
    27   21   24 1
@<TRIPOS>SUBSTRUCTURE
     1 RES1 1

@<TRIPOS>CRYSIN
   7.3810    9.2318   13.8454  90.0000  90.0000  90.0000  19 1

