# MOL2 file generated by ConQuest
# Please check atom types

@<TRIPOS>MOLECULE
HUJXOB
    26    27     1
SMALL
NO_CHARGES
****
Generated from CSD

@<TRIPOS>ATOM
      1 O1         7.4216    3.6862   -3.1424 O.2       1 RES1    0.0000
      2 O2         6.9961    4.8643   -1.3591 O.2       1 RES1    0.0000
      3 O3         6.7570    0.8442    1.7023 O.3       1 RES1    0.0000
      4 O4         7.9744    0.0505    4.8127 O.3       1 RES1    0.0000
      5 H1         8.2571   -0.7085    5.0343 H         1 RES1    0.0000
      6 N1         7.2227    3.7870   -1.9253 N.pl3     1 RES1    0.0000
      7 N2         6.8918    2.5823    0.1686 N.2       1 RES1    0.0000
      8 N3         7.5077    0.5505   -0.5343 N.pl3     1 RES1    0.0000
      9 C1         7.2603    2.5912   -1.1597 C.2       1 RES1    0.0000
     10 C2         7.0528    1.3264    0.4969 C.2       1 RES1    0.0000
     11 C3         7.2057   -0.5359    1.9786 C.3       1 RES1    0.0000
     12 H2         8.1847   -0.5304    2.1829 H         1 RES1    0.0000
     13 C4         6.9531   -1.3948    0.7580 C.3       1 RES1    0.0000
     14 H3         5.9881   -1.3782    0.5371 H         1 RES1    0.0000
     15 H4         7.2064   -2.3312    0.9551 H         1 RES1    0.0000
     16 C5         7.7520   -0.8945   -0.4302 C.3       1 RES1    0.0000
     17 H5         8.7171   -1.0710   -0.2948 H         1 RES1    0.0000
     18 H6         7.4611   -1.3533   -1.2582 H         1 RES1    0.0000
     19 C6         7.6487    1.3760   -1.6136 C.2       1 RES1    0.0000
     20 H7         7.9514    1.1494   -2.4846 H         1 RES1    0.0000
     21 C7         6.4400   -0.9811    3.2076 C.3       1 RES1    0.0000
     22 H8         6.7412   -1.8893    3.4619 H         1 RES1    0.0000
     23 H9         5.4772   -1.0350    2.9829 H         1 RES1    0.0000
     24 C8         6.6172   -0.0511    4.3991 C.3       1 RES1    0.0000
     25 H10        6.2827    0.8496    4.1595 H         1 RES1    0.0000
     26 H11        6.0723   -0.3856    5.1547 H         1 RES1    0.0000
@<TRIPOS>BOND
     1    1    6 2
     2    2    6 2
     3    3   10 1
     4    4    5 1
     5    6    9 1
     6    7    9 1
     7    8   10 1
     8    9   19 2
     9   10    7 2
    10   11    3 1
    11   12   11 1
    12   13   11 1
    13   14   13 1
    14   15   13 1
    15   16    8 1
    16   17   16 1
    17   18   16 1
    18   19    8 1
    19   20   19 1
    20   21   11 1
    21   22   21 1
    22   23   21 1
    23   24    4 1
    24   25   24 1
    25   26   24 1
    26   13   16 1
    27   21   24 1
@<TRIPOS>SUBSTRUCTURE
     1 RES1 1

@<TRIPOS>CRYSIN
   7.3836    9.2250   13.8419  90.0000  90.0000  90.0000  19 1

