# MOL2 file generated by ConQuest
# Please check atom types

@<TRIPOS>MOLECULE
HUKVAL01
    23    22     1
SMALL
NO_CHARGES
****
Generated from CSD

@<TRIPOS>ATOM
      1 N1         6.0323   10.4028    3.8068 N.pl3     1 RES1    0.0000
      2 O1         5.7668    6.2711    5.8609 O.2       1 RES1    0.0000
      3 H1         5.8753   10.4028    2.8946 H         1 RES1    0.0000
      4 H2         5.1004    7.4872    4.1016 H         1 RES1    0.0000
      5 H3         3.4699    9.1406    5.3417 H         1 RES1    0.0000
      6 H4         3.7259    9.1711    3.8104 H         1 RES1    0.0000
      7 H5         5.5249   10.4028    5.6374 H         1 RES1    0.0000
      8 O2         8.0933   10.4028    3.1201 O.2       1 RES1    0.0000
      9 O3         4.8834    7.9407    6.9259 O.2       1 RES1    0.0000
     10 C1         4.1316    9.1511    4.6665 C.3       1 RES1    0.0000
     11 N2         5.1877    7.3510    5.8917 N.pl3     1 RES1    0.0000
     12 N3         4.8747    7.9182    4.7300 N.pl3     1 RES1    0.0000
     13 C2         4.9920   10.4028    4.8110 C.3       1 RES1    0.0000
     14 O4         7.6951   10.4028    5.2428 O.2       1 RES1    0.0000
     15 N4         7.3333   10.4028    4.0936 N.pl3     1 RES1    0.0000
     16 O1G        5.7668   14.5345    5.8609 O.2       1 RES1    0.0000
     17 H2G        5.1004   13.3184    4.1016 H         1 RES1    0.0000
     18 H3G        3.4699   11.6650    5.3417 H         1 RES1    0.0000
     19 H4G        3.7259   11.6345    3.8104 H         1 RES1    0.0000
     20 O3G        4.8834   12.8649    6.9259 O.2       1 RES1    0.0000
     21 C1G        4.1316   11.6545    4.6665 C.3       1 RES1    0.0000
     22 N2G        5.1877   13.4546    5.8917 N.pl3     1 RES1    0.0000
     23 N3G        4.8747   12.8874    4.7300 N.3       1 RES1    0.0000
@<TRIPOS>BOND
     1    1    3 1
     2    2   11 2
     3    4   12 1
     4    5   10 1
     5    6   10 1
     6    7   13 1
     7    8   15 2
     8    9   11 2
     9   10   12 1
    10   11   12 1
    11   13    1 1
    12   14   15 2
    13   15    1 1
    14   16   22 2
    15   17   23 1
    16   18   21 1
    17   19   21 1
    18   20   22 2
    19   21   13 1
    20   22   23 1
    21   23   21 1
    22   10   13 1
@<TRIPOS>SUBSTRUCTURE
     1 RES1 1

@<TRIPOS>CRYSIN
   6.7377   13.8704    8.9341  90.0000  90.0000  90.0000  62 1

