# MOL2 file generated by ConQuest
# Please check atom types

@<TRIPOS>MOLECULE
HUKVAL
    23    22     1
SMALL
NO_CHARGES
****
Generated from CSD

@<TRIPOS>ATOM
      1 C1         5.0425    3.4815    0.3516 C.3       1 RES1    0.0000
      2 H1         5.4616    3.4815    1.2375 H         1 RES1    0.0000
      3 C2         4.1691    4.7314    0.2063 C.3       1 RES1    0.0000
      4 H2         3.7052    4.6916   -0.6448 H         1 RES1    0.0000
      5 H3         3.4991    4.7278    0.9074 H         1 RES1    0.0000
      6 N1         4.9109    5.9711    0.2752 N.pl3     1 RES1    0.0000
      7 H4         5.1571    6.3543   -0.4542 H         1 RES1    0.0000
      8 N2         5.2208    6.5319    1.4363 N.pl3     1 RES1    0.0000
      9 O1         5.7986    7.6152    1.4082 O.2       1 RES1    0.0000
     10 O2         4.9259    5.9424    2.4663 O.2       1 RES1    0.0000
     11 N3         6.0746    3.4815   -0.6647 N.pl3     1 RES1    0.0000
     12 H5         5.8332    3.4815   -1.4902 H         1 RES1    0.0000
     13 N4         7.3732    3.4815   -0.3895 N.pl3     1 RES1    0.0000
     14 O3         7.7360    3.4815    0.7559 O.2       1 RES1    0.0000
     15 O4         8.1266    3.4815   -1.3646 O.2       1 RES1    0.0000
     16 C2F        4.1691    2.2315    0.2063 C.3       1 RES1    0.0000
     17 H2F        3.7052    2.2713   -0.6448 H         1 RES1    0.0000
     18 H3F        3.4991    2.2351    0.9074 H         1 RES1    0.0000
     19 N1F        4.9109    0.9918    0.2752 N.pl3     1 RES1    0.0000
     20 H4F        5.1571    0.6086   -0.4542 H         1 RES1    0.0000
     21 N2F        5.2208    0.4310    1.4363 N.pl3     1 RES1    0.0000
     22 O1F        5.7986   -0.6523    1.4082 O.2       1 RES1    0.0000
     23 O2F        4.9259    1.0205    2.4663 O.2       1 RES1    0.0000
@<TRIPOS>BOND
     1    1    2 1
     2    3    1 1
     3    4    3 1
     4    5    3 1
     5    6    3 1
     6    7    6 1
     7    8    6 1
     8    9    8 2
     9   10    8 2
    10   11    1 1
    11   12   11 1
    12   13   11 1
    13   14   13 2
    14   15   13 2
    15   16    1 1
    16   17   16 1
    17   18   16 1
    18   19   16 1
    19   20   19 1
    20   21   19 1
    21   22   21 2
    22   23   21 2
@<TRIPOS>SUBSTRUCTURE
     1 RES1 1

@<TRIPOS>CRYSIN
   6.7812   13.9258    8.9932  90.0000  90.0000  90.0000  62 1

