# MOL2 file generated by ConQuest
# Please check atom types

@<TRIPOS>MOLECULE
HULDOI
    48    50     1
SMALL
NO_CHARGES
****
Generated from CSD

@<TRIPOS>ATOM
      1 O1         5.9380    5.3274   10.6886 O.3       1 RES1    0.0000
      2 O2         5.7582    4.3790    8.6880 O.2       1 RES1    0.0000
      3 O3         2.1840    6.6012    8.7583 O.2       1 RES1    0.0000
      4 O4         4.1533    4.6418    4.6873 O.2       1 RES1    0.0000
      5 O5         2.3028    5.4438    4.0353 O.2       1 RES1    0.0000
      6 N1         4.0020    5.5981    9.6404 N.am      1 RES1    0.0000
      7 N2         3.1341    5.2518    4.8916 N.pl3     1 RES1    0.0000
      8 C1         5.2864    5.0353    9.5642 C.2       1 RES1    0.0000
      9 C2         3.7499    6.0484   11.0176 C.3       1 RES1    0.0000
     10 C3         5.2140    6.3425   11.4411 C.3       1 RES1    0.0000
     11 C4         2.9722    5.0190   11.8336 C.3       1 RES1    0.0000
     12 C5         3.5335    3.6124   11.7894 C.3       1 RES1    0.0000
     13 C6         1.5089    4.9822   11.4378 C.3       1 RES1    0.0000
     14 C7         3.1634    5.9136    8.5806 C.2       1 RES1    0.0000
     15 C8         3.5335    5.3962    7.2412 C.2       1 RES1    0.0000
     16 C9         2.8185    5.7189    6.2251 C.2       1 RES1    0.0000
     17 C10        5.6939    7.7123   10.9648 C.ar      1 RES1    0.0000
     18 C11        6.9580    7.8526   10.4377 C.ar      1 RES1    0.0000
     19 C12        7.4062    9.0917    9.9995 C.ar      1 RES1    0.0000
     20 C13        6.6033   10.1796   10.1019 C.ar      1 RES1    0.0000
     21 C14        5.3539   10.0734   10.6497 C.ar      1 RES1    0.0000
     22 C15        4.8943    8.8357   11.0826 C.ar      1 RES1    0.0000
     23 C16        5.5296    6.1260   12.9166 C.ar      1 RES1    0.0000
     24 C17        6.4342    5.1606   13.3143 C.ar      1 RES1    0.0000
     25 C18        6.7066    4.9754   14.6590 C.ar      1 RES1    0.0000
     26 C19        6.1031    5.7189   15.6114 C.ar      1 RES1    0.0000
     27 C20        5.1978    6.6979   15.2245 C.ar      1 RES1    0.0000
     28 C21        4.9269    6.8967   13.8869 C.ar      1 RES1    0.0000
     29 H1         3.2211    6.8218   10.9236 H         1 RES1    0.0000
     30 H2         3.0341    5.3785   12.7931 H         1 RES1    0.0000
     31 H3         3.0666    3.0365   12.2807 H         1 RES1    0.0000
     32 H4         4.5389    3.6083   12.1570 H         1 RES1    0.0000
     33 H5         3.5140    3.2271   10.8494 H         1 RES1    0.0000
     34 H6         1.0086    4.3709   12.1923 H         1 RES1    0.0000
     35 H7         1.2201    4.6568   10.3369 H         1 RES1    0.0000
     36 H8         1.0981    5.8006   11.4855 H         1 RES1    0.0000
     37 H9         4.3193    4.8202    7.1210 H         1 RES1    0.0000
     38 H10        1.8221    5.9368    6.2375 H         1 RES1    0.0000
     39 H11        7.3777    7.1350   10.3016 H         1 RES1    0.0000
     40 H12        8.4921    9.1366    9.5771 H         1 RES1    0.0000
     41 H13        6.7839   11.0021    9.8775 H         1 RES1    0.0000
     42 H14        4.4738   10.8795   10.7787 H         1 RES1    0.0000
     43 H15        3.9614    8.6873   11.5385 H         1 RES1    0.0000
     44 H16        6.8571    4.6840   12.6871 H         1 RES1    0.0000
     45 H17        7.2882    4.4117   14.9488 H         1 RES1    0.0000
     46 H18        6.3853    5.5283   16.5921 H         1 RES1    0.0000
     47 H19        4.8805    7.2575   15.8677 H         1 RES1    0.0000
     48 H20        4.2542    7.4482   13.6236 H         1 RES1    0.0000
@<TRIPOS>BOND
     1    1    8 1
     2    2    8 2
     3    3   14 2
     4    4    7 2
     5    5    7 2
     6    6    8 1
     7    7   16 1
     8    9    6 1
     9   10    1 1
    10   11    9 1
    11   12   11 1
    12   13   11 1
    13   14    6 1
    14   15   14 1
    15   16   15 2
    16   17   10 1
    17   18   17 ar
    18   19   18 ar
    19   20   19 ar
    20   21   20 ar
    21   22   17 ar
    22   23   10 1
    23   24   23 ar
    24   25   24 ar
    25   26   25 ar
    26   27   26 ar
    27   28   23 ar
    28   29    9 1
    29   30   11 1
    30   31   12 1
    31   32   12 1
    32   33   12 1
    33   34   13 1
    34   35   13 1
    35   36   13 1
    36   37   15 1
    37   38   16 1
    38   39   18 1
    39   40   19 1
    40   41   20 1
    41   42   21 1
    42   43   22 1
    43   44   24 1
    44   45   25 1
    45   46   26 1
    46   47   27 1
    47   48   28 1
    48    9   10 1
    49   21   22 ar
    50   27   28 ar
@<TRIPOS>SUBSTRUCTURE
     1 RES1 1

@<TRIPOS>CRYSIN
   8.1342   13.6164   17.6700  90.0000  90.0000  90.0000  19 1

