# MOL2 file generated by ConQuest
# Please check atom types

@<TRIPOS>MOLECULE
HULFUQ
    61    63     1
SMALL
NO_CHARGES
****
Generated from CSD

@<TRIPOS>ATOM
      1 O1        -0.0780   -2.2102  -12.0064 O.3       1 RES1    0.0000
      2 O2        -1.9003   -1.1181  -11.2622 O.2       1 RES1    0.0000
      3 O3        -3.0935   -3.2305  -13.3380 O.2       1 RES1    0.0000
      4 O4        -4.5475   -2.4103  -14.6979 O.2       1 RES1    0.0000
      5 N1        -3.5545   -2.3157  -14.0020 N.pl3     1 RES1    0.0000
      6 C1         0.3120   -2.5768  -10.6453 C.3       1 RES1    0.0000
      7 C2         1.0039   -3.9363  -10.6647 C.3       1 RES1    0.0000
      8 C3         1.4662   -4.2211   -9.2233 C.3       1 RES1    0.0000
      9 C4         2.3466   -3.1229   -8.6540 C.3       1 RES1    0.0000
     10 C5         1.6753   -1.7555   -8.6890 C.3       1 RES1    0.0000
     11 C6         1.2046   -1.4700  -10.1101 C.3       1 RES1    0.0000
     12 C7        -1.1759   -1.4816  -12.1577 C.2       1 RES1    0.0000
     13 C8        -1.3882   -1.1236  -13.6208 C.3       1 RES1    0.0000
     14 C9        -0.6631    0.1760  -13.9436 C.ar      1 RES1    0.0000
     15 C10       -0.6663    1.2542  -13.0648 C.ar      1 RES1    0.0000
     16 C11        0.0090    2.4256  -13.3869 C.ar      1 RES1    0.0000
     17 C12        0.6938    2.5278  -14.5771 C.ar      1 RES1    0.0000
     18 C13        0.7002    1.4644  -15.4569 C.ar      1 RES1    0.0000
     19 C14        0.0237    0.2906  -15.1431 C.ar      1 RES1    0.0000
     20 C15       -2.8620   -0.9831  -13.9590 C.3       1 RES1    0.0000
     21 C16        0.1477   -5.1155  -11.2552 C.3       1 RES1    0.0000
     22 C17        0.8568   -6.4565  -10.9508 C.ar      1 RES1    0.0000
     23 C18        0.3478   -7.3964  -10.0757 C.ar      1 RES1    0.0000
     24 C19        1.0077   -8.6062   -9.8464 C.ar      1 RES1    0.0000
     25 C20        2.1702   -8.8921  -10.4839 C.ar      1 RES1    0.0000
     26 C21        2.7060   -7.9728  -11.3563 C.ar      1 RES1    0.0000
     27 C22        2.0538   -6.7606  -11.5871 C.ar      1 RES1    0.0000
     28 C23       -1.2705   -5.0905  -10.6831 C.3       1 RES1    0.0000
     29 C24        0.0230   -5.0168  -12.8001 C.3       1 RES1    0.0000
     30 C25        2.5954   -0.6660   -8.1628 C.3       1 RES1    0.0000
     31 H1        -0.4636   -2.6266  -10.0825 H         1 RES1    0.0000
     32 H2         1.7724   -3.8714  -11.2383 H         1 RES1    0.0000
     33 H3         1.9713   -5.0371   -9.2033 H         1 RES1    0.0000
     34 H4         0.6970   -4.3060   -8.6562 H         1 RES1    0.0000
     35 H5         3.1638   -3.0694   -9.1541 H         1 RES1    0.0000
     36 H6         2.5461   -3.3239   -7.7371 H         1 RES1    0.0000
     37 H7         0.9182   -1.7794   -8.0998 H         1 RES1    0.0000
     38 H8         0.7232   -0.6392  -10.1070 H         1 RES1    0.0000
     39 H9         1.9783   -1.3900  -10.6727 H         1 RES1    0.0000
     40 H10       -1.0256   -1.8328  -14.1585 H         1 RES1    0.0000
     41 H11       -1.1362    1.1959  -12.2311 H         1 RES1    0.0000
     42 H12        0.0058    3.1612  -12.7691 H         1 RES1    0.0000
     43 H13        1.1548    3.3425  -14.7886 H         1 RES1    0.0000
     44 H14        1.1682    1.5318  -16.2918 H         1 RES1    0.0000
     45 H15        0.0428   -0.4486  -15.7538 H         1 RES1    0.0000
     46 H16       -3.2712   -0.4335  -13.2855 H         1 RES1    0.0000
     47 H17       -2.9374   -0.5532  -14.8132 H         1 RES1    0.0000
     48 H18       -0.4744   -7.2209   -9.6121 H         1 RES1    0.0000
     49 H19        0.6426   -9.2489   -9.2341 H         1 RES1    0.0000
     50 H20        2.6107   -9.7301  -10.3222 H         1 RES1    0.0000
     51 H21        3.5327   -8.1646  -11.8039 H         1 RES1    0.0000
     52 H22        2.4406   -6.1284  -12.1973 H         1 RES1    0.0000
     53 H23       -1.7776   -5.8181  -11.0507 H         1 RES1    0.0000
     54 H24       -1.2334   -5.1777   -9.7290 H         1 RES1    0.0000
     55 H25       -1.6919   -4.2595  -10.9124 H         1 RES1    0.0000
     56 H26       -0.5090   -5.7483  -13.1226 H         1 RES1    0.0000
     57 H27       -0.3945   -4.1863  -13.0426 H         1 RES1    0.0000
     58 H28        0.8984   -5.0603  -13.1933 H         1 RES1    0.0000
     59 H29        2.1414    0.1790   -8.2074 H         1 RES1    0.0000
     60 H30        2.8287   -0.8566   -7.2514 H         1 RES1    0.0000
     61 H31        3.3927   -0.6288   -8.6961 H         1 RES1    0.0000
@<TRIPOS>BOND
     1    1    6 1
     2    2   12 2
     3    3    5 2
     4    4    5 2
     5    5   20 1
     6    6    7 1
     7    7    8 1
     8    8    9 1
     9    9   10 1
    10   10   11 1
    11   11    6 1
    12   12    1 1
    13   13   12 1
    14   14   13 1
    15   15   14 ar
    16   16   15 ar
    17   17   16 ar
    18   18   17 ar
    19   19   14 ar
    20   20   13 1
    21   21    7 1
    22   22   21 1
    23   23   22 ar
    24   24   23 ar
    25   25   24 ar
    26   26   25 ar
    27   27   22 ar
    28   28   21 1
    29   29   21 1
    30   30   10 1
    31   31    6 1
    32   32    7 1
    33   33    8 1
    34   34    8 1
    35   35    9 1
    36   36    9 1
    37   37   10 1
    38   38   11 1
    39   39   11 1
    40   40   13 1
    41   41   15 1
    42   42   16 1
    43   43   17 1
    44   44   18 1
    45   45   19 1
    46   46   20 1
    47   47   20 1
    48   48   23 1
    49   49   24 1
    50   50   25 1
    51   51   26 1
    52   52   27 1
    53   53   28 1
    54   54   28 1
    55   55   28 1
    56   56   29 1
    57   57   29 1
    58   58   29 1
    59   59   30 1
    60   60   30 1
    61   61   30 1
    62   18   19 ar
    63   26   27 ar
@<TRIPOS>SUBSTRUCTURE
     1 RES1 1

@<TRIPOS>CRYSIN
   6.3941   11.6222   30.7392  90.0000  90.0000  90.0000  19 1

