# MOL2 file generated by ConQuest
# Please check atom types

@<TRIPOS>MOLECULE
HULFOK
    60    63     1
SMALL
NO_CHARGES
****
Generated from CSD

@<TRIPOS>ATOM
      1 O1         0.7903    6.1721    4.0465 O.3       1 RES1    0.0000
      2 O2         2.1094    5.0354    5.4509 O.2       1 RES1    0.0000
      3 O3         1.8369    2.2281    2.3234 O.2       1 RES1    0.0000
      4 O4         4.5941    3.3811    2.0578 O.2       1 RES1    0.0000
      5 O5         5.6829    1.5899    1.9419 O.2       1 RES1    0.0000
      6 N1         1.2861    4.0700    3.4850 N.am      1 RES1    0.0000
      7 N2         4.8740    2.2797    2.4724 N.pl3     1 RES1    0.0000
      8 C1         1.4794    5.0861    4.4331 C.2       1 RES1    0.0000
      9 C2         0.1963    4.4480    2.5673 C.3       1 RES1    0.0000
     10 C3         0.3243    5.9908    2.6514 C.3       1 RES1    0.0000
     11 C4         1.4420    6.5673    1.7664 C.ar      1 RES1    0.0000
     12 C5         1.5803    7.9388    1.6596 C.ar      1 RES1    0.0000
     13 C6         2.6417    8.5008    0.9563 C.ar      1 RES1    0.0000
     14 C7         3.5776    7.6886    0.3552 C.ar      1 RES1    0.0000
     15 C8         3.4448    6.3171    0.4481 C.ar      1 RES1    0.0000
     16 C9         2.3936    5.7542    1.1480 C.ar      1 RES1    0.0000
     17 C10       -0.9777    6.7468    2.4839 C.ar      1 RES1    0.0000
     18 C11       -1.5672    6.7676    1.2221 C.ar      1 RES1    0.0000
     19 C12       -2.7890    7.3858    1.0304 C.ar      1 RES1    0.0000
     20 C13       -3.4334    7.9941    2.0842 C.ar      1 RES1    0.0000
     21 C14       -2.8510    7.9968    3.3322 C.ar      1 RES1    0.0000
     22 C15       -1.6214    7.3704    3.5392 C.ar      1 RES1    0.0000
     23 C16       -1.1467    3.8135    2.9782 C.3       1 RES1    0.0000
     24 C17       -1.2532    2.3767    2.4983 C.3       1 RES1    0.0000
     25 C18       -1.4230    3.8851    4.4766 C.3       1 RES1    0.0000
     26 C19        2.0673    2.9424    3.2835 C.2       1 RES1    0.0000
     27 C20        3.1687    2.6170    4.2824 C.3       1 RES1    0.0000
     28 C21        2.5673    1.8872    5.4858 C.ar      1 RES1    0.0000
     29 C22        1.7785    0.7669    5.2929 C.ar      1 RES1    0.0000
     30 C23        1.2341    0.0734    6.3656 C.ar      1 RES1    0.0000
     31 C24        1.4620    0.4904    7.6183 C.ar      1 RES1    0.0000
     32 C25        2.2637    1.6026    7.8571 C.ar      1 RES1    0.0000
     33 C26        2.8430    2.3142    6.7714 C.ar      1 RES1    0.0000
     34 C27        4.1964    1.6887    3.6427 C.3       1 RES1    0.0000
     35 H1         0.3350    4.1616    1.6620 H         1 RES1    0.0000
     36 H2         0.9278    8.5198    2.0584 H         1 RES1    0.0000
     37 H3         2.7279    9.4562    0.9104 H         1 RES1    0.0000
     38 H4         4.3045    8.0784   -0.1353 H         1 RES1    0.0000
     39 H5         4.0888    5.7388    0.0329 H         1 RES1    0.0000
     40 H6         2.3257    4.7979    1.2009 H         1 RES1    0.0000
     41 H7        -1.1300    6.3371    0.4834 H         1 RES1    0.0000
     42 H8        -3.1835    7.4049    0.1553 H         1 RES1    0.0000
     43 H9        -4.2882    8.4056    1.9419 H         1 RES1    0.0000
     44 H10       -3.2961    8.4246    4.0673 H         1 RES1    0.0000
     45 H11       -1.2069    7.3804    4.4049 H         1 RES1    0.0000
     46 H12       -1.8248    4.3419    2.5524 H         1 RES1    0.0000
     47 H13       -2.1016    2.0151    2.7664 H         1 RES1    0.0000
     48 H14       -1.1812    2.3477    1.5408 H         1 RES1    0.0000
     49 H15       -0.5467    1.8573    2.8876 H         1 RES1    0.0000
     50 H16       -2.2720    3.4808    4.6742 H         1 RES1    0.0000
     51 H17       -0.7291    3.4164    4.9459 H         1 RES1    0.0000
     52 H18       -1.4329    4.8033    4.7542 H         1 RES1    0.0000
     53 H19        3.5842    3.4273    4.5872 H         1 RES1    0.0000
     54 H20        1.6021    0.4668    4.3978 H         1 RES1    0.0000
     55 H21        0.6935   -0.7070    6.2233 H         1 RES1    0.0000
     56 H22        1.0766    0.0299    8.3663 H         1 RES1    0.0000
     57 H23        2.4163    1.8927    8.7592 H         1 RES1    0.0000
     58 H24        3.4194    3.0711    6.8973 H         1 RES1    0.0000
     59 H25        4.8465    1.4667    4.3131 H         1 RES1    0.0000
     60 H26        3.7281    0.8938    3.3757 H         1 RES1    0.0000
@<TRIPOS>BOND
     1    1    8 1
     2    2    8 2
     3    3   26 2
     4    4    7 2
     5    5    7 2
     6    6    8 1
     7    7   34 1
     8    9    6 1
     9   10    1 1
    10   11   10 1
    11   12   11 ar
    12   13   12 ar
    13   14   13 ar
    14   15   14 ar
    15   16   11 ar
    16   17   10 1
    17   18   17 ar
    18   19   18 ar
    19   20   19 ar
    20   21   20 ar
    21   22   17 ar
    22   23    9 1
    23   24   23 1
    24   25   23 1
    25   26    6 1
    26   27   26 1
    27   28   27 1
    28   29   28 ar
    29   30   29 ar
    30   31   30 ar
    31   32   31 ar
    32   33   28 ar
    33   34   27 1
    34   35    9 1
    35   36   12 1
    36   37   13 1
    37   38   14 1
    38   39   15 1
    39   40   16 1
    40   41   18 1
    41   42   19 1
    42   43   20 1
    43   44   21 1
    44   45   22 1
    45   46   23 1
    46   47   24 1
    47   48   24 1
    48   49   24 1
    49   50   25 1
    50   51   25 1
    51   52   25 1
    52   53   27 1
    53   54   29 1
    54   55   30 1
    55   56   31 1
    56   57   32 1
    57   58   33 1
    58   59   34 1
    59   60   34 1
    60    9   10 1
    61   15   16 ar
    62   21   22 ar
    63   32   33 ar
@<TRIPOS>SUBSTRUCTURE
     1 RES1 1

@<TRIPOS>CRYSIN
  11.3865    9.0646   12.3294  90.0000 107.4490  90.0000   4 1

