# MOL2 file generated by ConQuest
# Please check atom types

@<TRIPOS>MOLECULE
HUMHEC
    34    35     1
SMALL
NO_CHARGES
****
Generated from CSD

@<TRIPOS>ATOM
      1 O1         4.9660    4.9292    1.7757 O.2       1 RES1    0.0000
      2 O2         5.5027    2.9561    2.4202 O.2       1 RES1    0.0000
      3 O3         4.2737    6.0112   -2.7553 O.2       1 RES1    0.0000
      4 O4         3.6673    4.4704   -4.1237 O.2       1 RES1    0.0000
      5 N1         5.1337    3.7431    1.5438 N.pl3     1 RES1    0.0000
      6 N2         4.1001    4.8344   -3.0406 N.pl3     1 RES1    0.0000
      7 N3         5.3109    0.9382    0.7816 N.pl3     1 RES1    0.0000
      8 H1         5.4546    1.1658    1.5980 H         1 RES1    0.0000
      9 N4         5.3990   -0.3765    0.4161 N.2       1 RES1    0.0000
     10 C1         4.9998    1.8822   -0.1329 C.ar      1 RES1    0.0000
     11 C2         4.9093    3.2501    0.1991 C.ar      1 RES1    0.0000
     12 C3         4.6143    4.2113   -0.7600 C.ar      1 RES1    0.0000
     13 H2         4.5687    5.1102   -0.5282 H         1 RES1    0.0000
     14 C4         4.3923    3.8142   -2.0465 C.ar      1 RES1    0.0000
     15 C5         4.4492    2.4762   -2.4088 C.ar      1 RES1    0.0000
     16 H3         4.2900    2.2282   -3.2901 H         1 RES1    0.0000
     17 C6         4.7361    1.5280   -1.4772 C.ar      1 RES1    0.0000
     18 H4         4.7591    0.6326   -1.7275 H         1 RES1    0.0000
     19 C7         5.7359   -1.2101    1.3364 C.2       1 RES1    0.0000
     20 C8         6.0294   -0.8037    2.7495 C.3       1 RES1    0.0000
     21 H5         6.3869   -1.5544    3.2298 H         1 RES1    0.0000
     22 H6         5.2203   -0.5093    3.1724 H         1 RES1    0.0000
     23 H7         6.6706   -0.0889    2.7501 H         1 RES1    0.0000
     24 C9         5.7952   -2.6282    0.9161 C.ar      1 RES1    0.0000
     25 C10        6.0240   -3.6606    1.8219 C.ar      1 RES1    0.0000
     26 H8         6.1741   -3.4630    2.7178 H         1 RES1    0.0000
     27 C11        6.0287   -4.9829    1.4008 C.ar      1 RES1    0.0000
     28 H9         6.1787   -5.6646    2.0159 H         1 RES1    0.0000
     29 C12        5.8158   -5.2880    0.0942 C.ar      1 RES1    0.0000
     30 H10        5.8135   -6.1766   -0.1810 H         1 RES1    0.0000
     31 C13        5.6047   -4.2839   -0.8225 C.ar      1 RES1    0.0000
     32 H11        5.4714   -4.4935   -1.7186 H         1 RES1    0.0000
     33 C14        5.5906   -2.9693   -0.4147 C.ar      1 RES1    0.0000
     34 H12        5.4421   -2.2985   -1.0403 H         1 RES1    0.0000
@<TRIPOS>BOND
     1    1    5 2
     2    2    5 2
     3    3    6 2
     4    4    6 2
     5    5   11 1
     6    6   14 1
     7    7    8 1
     8    9    7 1
     9   10    7 1
    10   11   10 ar
    11   12   11 ar
    12   13   12 1
    13   14   12 ar
    14   15   14 ar
    15   16   15 1
    16   17   10 ar
    17   18   17 1
    18   19    9 2
    19   20   19 1
    20   21   20 1
    21   22   20 1
    22   23   20 1
    23   24   19 1
    24   25   24 ar
    25   26   25 1
    26   27   25 ar
    27   28   27 1
    28   29   27 ar
    29   30   29 1
    30   31   29 ar
    31   32   31 1
    32   33   24 ar
    33   34   33 1
    34   15   17 ar
    35   31   33 ar
@<TRIPOS>SUBSTRUCTURE
     1 RES1 1

@<TRIPOS>CRYSIN
   7.0169   13.2630   14.8568  90.0000  97.9380  90.0000  14 1

