# MOL2 file generated by ConQuest
# Please check atom types

@<TRIPOS>MOLECULE
HUMJUU
    34    33     1
SMALL
NO_CHARGES
****
Generated from CSD

@<TRIPOS>ATOM
      1 O1         5.3604    7.4692   15.3649 O.3       1 RES1    0.0000
      2 H1         5.4902    6.7023   15.7582 H         1 RES1    0.0000
      3 N1         1.8239   10.4077   15.3438 N.3       1 RES1    0.0000
      4 N2         3.9795    7.6736   15.4837 N.2       1 RES1    0.0000
      5 C1         2.1085    9.0216   14.9824 C.3       1 RES1    0.0000
      6 H2         1.7133    8.8242   14.0964 H         1 RES1    0.0000
      7 H3         1.6927    8.4156   15.6466 H         1 RES1    0.0000
      8 C2         3.5996    8.7722   14.9361 C.2       1 RES1    0.0000
      9 C3         4.4945    9.7530   14.2549 C.3       1 RES1    0.0000
     10 H4         4.6370   10.5255   14.8398 H         1 RES1    0.0000
     11 H5         4.0790   10.0483   13.4183 H         1 RES1    0.0000
     12 H6         5.3563    9.3272   14.0586 H         1 RES1    0.0000
     13 C1G        2.1853   10.6924   16.7299 C.3       1 RES1    0.0000
     14 H2G        3.0713   10.2972   16.9274 H         1 RES1    0.0000
     15 H3G        1.5211   10.2766   17.3359 H         1 RES1    0.0000
     16 C2G        2.2316   12.1834   16.9794 C.2       1 RES1    0.0000
     17 N2G        1.6840   12.5633   18.0779 N.2       1 RES1    0.0000
     18 O1G        1.8028   13.9443   18.2824 O.3       1 RES1    0.0000
     19 H1G        1.4095   14.0741   19.0493 H         1 RES1    0.0000
     20 C3G        2.9128   13.0784   15.9986 C.3       1 RES1    0.0000
     21 H4G        2.3279   13.2208   15.2260 H         1 RES1    0.0000
     22 H5G        3.7494   12.6629   15.7033 H         1 RES1    0.0000
     23 H6G        3.1091   13.9402   16.4243 H         1 RES1    0.0000
     24 C1J        0.4378   10.7691   15.0592 C.3       1 RES1    0.0000
     25 H2J        0.2403   11.6552   15.4544 H         1 RES1    0.0000
     26 H3J       -0.1682   10.1049   15.4750 H         1 RES1    0.0000
     27 C2J        0.1883   10.8155   13.5681 C.2       1 RES1    0.0000
     28 N2J       -0.9102   10.2678   13.1882 N.2       1 RES1    0.0000
     29 O1J       -1.1147   10.3866   11.8073 O.3       1 RES1    0.0000
     30 H1J       -1.8816    9.9933   11.6775 H         1 RES1    0.0000
     31 C3J        1.1691   11.4967   12.6732 C.3       1 RES1    0.0000
     32 H4J        1.9417   10.9118   12.5307 H         1 RES1    0.0000
     33 H5J        1.4644   12.3333   13.0887 H         1 RES1    0.0000
     34 H6J        0.7434   11.6929   11.8114 H         1 RES1    0.0000
@<TRIPOS>BOND
     1    1    2 1
     2    3    5 1
     3    4    1 1
     4    5    6 1
     5    7    5 1
     6    8    4 2
     7    9    8 1
     8   10    9 1
     9   11    9 1
    10   12    9 1
    11   13    3 1
    12   14   13 1
    13   15   13 1
    14   16   13 1
    15   17   16 2
    16   18   17 1
    17   19   18 1
    18   20   16 1
    19   21   20 1
    20   22   20 1
    21   23   20 1
    22   24    3 1
    23   25   24 1
    24   26   24 1
    25   27   24 1
    26   28   27 2
    27   29   28 1
    28   30   29 1
    29   31   27 1
    30   32   31 1
    31   33   31 1
    32   34   31 1
    33    5    8 1
@<TRIPOS>SUBSTRUCTURE
     1 RES1 1

@<TRIPOS>CRYSIN
  17.1677   17.1677   17.1677  90.0000  90.0000  90.0000 220 1

