# MOL2 file generated by ConQuest
# Please check atom types

@<TRIPOS>MOLECULE
HUMMAE
    44    42     2
SMALL
NO_CHARGES
****
Generated from CSD

@<TRIPOS>ATOM
      1 C1        -2.0789   10.7694   11.7867 C.ar      1 RES1    0.0000
      2 C2        -2.5059   11.9164   12.4211 C.ar      1 RES1    0.0000
      3 C3        -1.9301   12.2070   13.6704 C.ar      1 RES1    0.0000
      4 C4        -0.9690   11.3985   14.2189 C.ar      1 RES1    0.0000
      5 H1        -0.5772   11.6400   15.0271 H         1 RES1    0.0000
      6 C5        -0.5699   10.2247   13.5884 C.ar      1 RES1    0.0000
      7 C6        -1.1553    9.9167   12.3668 C.ar      1 RES1    0.0000
      8 C7         0.0050    7.8987   12.2595 C.2       1 RES1    0.0000
      9 H2         0.1756    7.1108   11.7951 H         1 RES1    0.0000
     10 C8         0.6381    8.0649   13.4351 C.2       1 RES1    0.0000
     11 C9         0.4317    9.3193   14.1700 C.2       1 RES1    0.0000
     12 C10        1.4916    6.9739   13.9586 C.ar      1 RES1    0.0000
     13 C11        2.2473    6.1871   13.1081 C.ar      1 RES1    0.0000
     14 H3         2.2842    6.3872   12.2011 H         1 RES1    0.0000
     15 C12        2.9427    5.1114   13.6046 C.ar      1 RES1    0.0000
     16 C13        2.9540    4.7625   14.9431 C.ar      1 RES1    0.0000
     17 C14        2.1898    5.5774   15.7707 C.ar      1 RES1    0.0000
     18 C15        1.4765    6.6528   15.3061 C.ar      1 RES1    0.0000
     19 H4         0.9803    7.1689   15.8985 H         1 RES1    0.0000
     20 C16        3.1465    2.5312   15.6337 C.3       1 RES1    0.0000
     21 H5         2.3809    2.6599   16.1986 H         1 RES1    0.0000
     22 H6         3.7811    1.9653   16.0798 H         1 RES1    0.0000
     23 H7         2.8720    2.1194   14.8120 H         1 RES1    0.0000
     24 N1        -2.6066   10.4606   10.4480 N.pl3     1 RES1    0.0000
     25 N2        -2.3444   13.3889   14.4102 N.pl3     1 RES1    0.0000
     26 N3         3.7150    4.2625   12.6801 N.pl3     1 RES1    0.0000
     27 N4         2.1411    5.2974   17.2256 N.pl3     1 RES1    0.0000
     28 O1        -3.4994    9.7010   10.3524 O.2       1 RES1    0.0000
     29 O2        -2.1014   10.9700    9.5256 O.2       1 RES1    0.0000
     30 O3        -3.4367   12.6454   11.7988 O.3       1 RES1    0.0000
     31 H8        -3.6387   13.2881   12.2669 H         1 RES1    0.0000
     32 O4        -3.3515   13.9948   14.0061 O.2       1 RES1    0.0000
     33 O5        -1.7340   13.7073   15.4063 O.2       1 RES1    0.0000
     34 O6         1.0630    9.6117   15.1778 O.2       1 RES1    0.0000
     35 O7        -0.8625    8.7789   11.6882 O.3       1 RES1    0.0000
     36 O8         3.7225    3.7381   15.3665 O.3       1 RES1    0.0000
     37 O9         3.3025    5.1947   17.7504 O.2       1 RES1    0.0000
     38 O10        1.0077    5.2594   17.7119 O.2       1 RES1    0.0000
     39 O11        3.1024    3.6045   11.9090 O.2       1 RES1    0.0000
     40 O12        4.7686    4.6073   12.2556 O.2       1 RES1    0.0000
     41 O13        2.0763    4.2544   17.6878 Du        2 SUP2    0.0000
     42 O14        2.1248    6.1862   17.9959 Du        2 SUP2    0.0000
     43 O15        3.3031    3.1534   12.4193 Du        2 SUP2    0.0000
     44 O16        4.8590    4.3728   12.7387 Du        2 SUP2    0.0000
@<TRIPOS>BOND
     1    1    2 ar
     2    2    3 ar
     3    3    4 ar
     4    4    5 1
     5    6    4 ar
     6    7    1 ar
     7    8    9 1
     8   10    8 2
     9   11    6 1
    10   12   10 1
    11   13   12 ar
    12   14   13 1
    13   15   13 ar
    14   16   15 ar
    15   17   16 ar
    16   18   12 ar
    17   19   18 1
    18   20   21 1
    19   22   20 1
    20   23   20 1
    21   24    1 1
    22   25    3 1
    23   26   15 1
    24   27   17 1
    25   28   24 2
    26   29   24 2
    27   30    2 1
    28   31   30 1
    29   32   25 2
    30   33   25 2
    31   34   11 2
    32   35    7 1
    33   36   16 1
    34   37   27 2
    35   38   27 2
    36   39   26 2
    37   40   26 2
    38    6    7 ar
    39    8   35 1
    40   10   11 1
    41   17   18 ar
    42   20   36 1
@<TRIPOS>SUBSTRUCTURE
     1 RES1 1
     2 SUP2 41

@<TRIPOS>CRYSIN
   4.9136   22.3330   16.1240  90.0000  95.5760  90.0000  14 1

