# MOL2 file generated by ConQuest
# Please check atom types

@<TRIPOS>MOLECULE
HUMXIX
    42    44     1
SMALL
NO_CHARGES
****
Generated from CSD

@<TRIPOS>ATOM
      1 C1         8.0432    6.0800    5.4765 C.ar      1 RES1    0.0000
      2 C2         9.0401    5.4369    4.7272 C.ar      1 RES1    0.0000
      3 C3         9.6519    4.2827    5.1410 C.ar      1 RES1    0.0000
      4 C4         9.3070    3.7026    6.3780 C.ar      1 RES1    0.0000
      5 C5         8.3132    4.3470    7.1384 C.ar      1 RES1    0.0000
      6 C6         7.7052    5.4924    6.7059 C.ar      1 RES1    0.0000
      7 C7        10.8084    1.7988    6.0001 C.3       1 RES1    0.0000
      8 C8         9.4584    1.9299    8.0533 C.3       1 RES1    0.0000
      9 C9         7.4536    7.2800    4.9760 C.2       1 RES1    0.0000
     10 C10        6.4767    8.0536    5.5137 C.2       1 RES1    0.0000
     11 C11        5.9911    9.2863    4.9021 C.2       1 RES1    0.0000
     12 C12        5.0326    8.8779    6.8500 C.2       1 RES1    0.0000
     13 C13        4.1723    9.1584    7.9942 C.ar      1 RES1    0.0000
     14 C14        4.1938    8.2601    9.0612 C.ar      1 RES1    0.0000
     15 C15        3.3977    8.5074   10.1478 C.ar      1 RES1    0.0000
     16 C16        2.5804    9.6135   10.2381 C.ar      1 RES1    0.0000
     17 C17        2.5759   10.4729    9.1707 C.ar      1 RES1    0.0000
     18 C18        3.3605   10.2788    8.0507 C.ar      1 RES1    0.0000
     19 N1         5.8155    7.8707    6.7343 N.2       1 RES1    0.0000
     20 N2         9.9304    2.5809    6.8399 N.pl3     1 RES1    0.0000
     21 N3         3.4087    7.5552   11.2724 N.pl3     1 RES1    0.0000
     22 N4         1.6867   11.6344    9.2210 N.pl3     1 RES1    0.0000
     23 O1         5.0349    9.7828    5.8164 O.3       1 RES1    0.0000
     24 O2         6.2295    9.8640    3.8871 O.2       1 RES1    0.0000
     25 O3         4.1103    6.5725   11.1745 O.2       1 RES1    0.0000
     26 O4         2.6880    7.7840   12.2220 O.2       1 RES1    0.0000
     27 O5         1.1434   11.9003   10.2719 O.2       1 RES1    0.0000
     28 O6         1.5204   12.2681    8.2040 O.2       1 RES1    0.0000
     29 H1         9.3685    5.8573    3.9249 H         1 RES1    0.0000
     30 H2        10.3545    3.8760    4.6029 H         1 RES1    0.0000
     31 H3         8.0580    3.9896    7.9570 H         1 RES1    0.0000
     32 H4         7.0162    5.9033    7.2722 H         1 RES1    0.0000
     33 H5        11.4427    2.3651    5.4789 H         1 RES1    0.0000
     34 H6        11.2766    1.1623    6.5323 H         1 RES1    0.0000
     35 H7        10.3077    1.3515    5.3359 H         1 RES1    0.0000
     36 H8        10.1028    1.2434    8.2513 H         1 RES1    0.0000
     37 H9         9.4387    2.5543    8.7890 H         1 RES1    0.0000
     38 H10        8.5073    1.6218    7.9584 H         1 RES1    0.0000
     39 H11        7.8032    7.6061    4.1422 H         1 RES1    0.0000
     40 H12        4.7634    7.5304    9.0352 H         1 RES1    0.0000
     41 H13        2.0316    9.7577   11.0114 H         1 RES1    0.0000
     42 H14        3.2951   10.9105    7.3519 H         1 RES1    0.0000
@<TRIPOS>BOND
     1    1    2 ar
     2    2    3 ar
     3    3    4 ar
     4    4    5 ar
     5    5    6 ar
     6    6    1 ar
     7    7   20 1
     8    8   20 1
     9    9    1 1
    10   10    9 2
    11   11   10 1
    12   12   13 1
    13   13   14 ar
    14   14   15 ar
    15   15   16 ar
    16   16   17 ar
    17   17   18 ar
    18   18   13 ar
    19   19   10 1
    20   20    4 1
    21   21   15 1
    22   22   17 1
    23   23   11 1
    24   24   11 2
    25   25   21 2
    26   26   21 2
    27   27   22 2
    28   28   22 2
    29   29    2 1
    30   30    3 1
    31   31    5 1
    32   32    6 1
    33   33    7 1
    34   34    7 1
    35   35    7 1
    36   36    8 1
    37   37    8 1
    38   38    8 1
    39   39    9 1
    40   40   14 1
    41   41   16 1
    42   42   18 1
    43   12   19 2
    44   12   23 1
@<TRIPOS>SUBSTRUCTURE
     1 RES1 1

@<TRIPOS>CRYSIN
   9.3628   13.5148   13.7701  90.0000  92.9210  90.0000  14 1

