# MOL2 file generated by ConQuest
# Please check atom types

@<TRIPOS>MOLECULE
HUQNAK
    48    51     1
SMALL
NO_CHARGES
****
Generated from CSD

@<TRIPOS>ATOM
      1 C1        12.1261    3.1819    4.3365 C.ar      1 RES1    0.0000
      2 C2        11.1689    2.4950    5.1126 C.ar      1 RES1    0.0000
      3 C3         9.7632    2.7582    5.0228 C.ar      1 RES1    0.0000
      4 H1         9.4426    3.4453    4.3621 H         1 RES1    0.0000
      5 C4         8.8665    2.0963    5.8074 C.ar      1 RES1    0.0000
      6 H2         7.8703    2.2636    5.7172 H         1 RES1    0.0000
      7 C5         9.3067    1.1239    6.7443 C.ar      1 RES1    0.0000
      8 H3         8.6585    0.6549    7.3254 H         1 RES1    0.0000
      9 C6        10.6263    0.8291    6.8447 C.ar      1 RES1    0.0000
     10 H4        10.9790    0.1495    7.4824 H         1 RES1    0.0000
     11 C7        11.6001    1.4801    6.0339 C.ar      1 RES1    0.0000
     12 C8        12.9571    1.1868    6.1485 C.ar      1 RES1    0.0000
     13 H5        13.2482    0.4983    6.7990 H         1 RES1    0.0000
     14 C9        13.9118    1.8677    5.4011 C.ar      1 RES1    0.0000
     15 C10       15.3102    1.6359    5.5843 C.ar      1 RES1    0.0000
     16 H6        15.5867    0.9681    6.2610 H         1 RES1    0.0000
     17 C11       16.2410    2.3430    4.8867 C.ar      1 RES1    0.0000
     18 H7        17.2030    2.1853    5.0455 H         1 RES1    0.0000
     19 C12       15.8280    3.3087    3.9288 C.ar      1 RES1    0.0000
     20 H8        16.5043    3.8012    3.3762 H         1 RES1    0.0000
     21 C13       14.5071    3.5631    3.7255 C.ar      1 RES1    0.0000
     22 H9        14.2393    4.2354    3.0767 H         1 RES1    0.0000
     23 C14       13.4957    2.8754    4.4627 C.ar      1 RES1    0.0000
     24 C15       11.6510    4.2612    3.4175 C.ar      1 RES1    0.0000
     25 C16       11.5801    4.0290    2.0478 C.ar      1 RES1    0.0000
     26 H10       11.9514    3.1676    1.6867 H         1 RES1    0.0000
     27 C17       11.0120    4.9862    1.1949 C.ar      1 RES1    0.0000
     28 C18       10.5395    6.1906    1.7358 C.ar      1 RES1    0.0000
     29 H11       10.1341    6.8336    1.1719 H         1 RES1    0.0000
     30 C19       10.6611    6.4327    3.0866 C.ar      1 RES1    0.0000
     31 H12       10.3581    7.2820    3.4751 H         1 RES1    0.0000
     32 C20       11.2124    5.4788    3.9346 C.ar      1 RES1    0.0000
     33 H13       11.2727    5.6590    4.9117 H         1 RES1    0.0000
     34 N1        10.9041    4.8096   -0.2027 N.3       1 RES1    0.0000
     35 O1        10.6431    5.8521   -0.8942 O.2       1 RES1    0.0000
     36 C21       11.1294    3.5393   -0.9754 C.3       1 RES1    0.0000
     37 C22       12.6249    3.3570   -1.1496 C.3       1 RES1    0.0000
     38 H14       13.0990    3.1961   -0.2937 H         1 RES1    0.0000
     39 H15       12.7837    2.5270   -1.7128 H         1 RES1    0.0000
     40 H16       12.9955    4.1357   -1.6838 H         1 RES1    0.0000
     41 C23       10.4795    2.3289   -0.3010 C.3       1 RES1    0.0000
     42 H17       10.9650    1.9931    0.5147 H         1 RES1    0.0000
     43 H18       10.4396    1.5945   -0.9335 H         1 RES1    0.0000
     44 H19        9.5746    2.5484    0.0407 H         1 RES1    0.0000
     45 C24       10.4495    3.7279   -2.3253 C.3       1 RES1    0.0000
     46 H20       10.8297    4.4347   -2.8528 H         1 RES1    0.0000
     47 H21        9.4323    3.9222   -2.2276 H         1 RES1    0.0000
     48 H22       10.6152    2.8687   -2.8586 H         1 RES1    0.0000
@<TRIPOS>BOND
     1    1    2 ar
     2    2    3 ar
     3    3    4 1
     4    5    3 ar
     5    6    5 1
     6    7    5 ar
     7    8    7 1
     8    9    7 ar
     9   10    9 1
    10   11    2 ar
    11   12   11 ar
    12   13   12 1
    13   14   12 ar
    14   15   14 ar
    15   16   15 1
    16   17   15 ar
    17   18   17 1
    18   19   17 ar
    19   20   19 1
    20   21   19 ar
    21   22   21 1
    22   23    1 ar
    23   24    1 1
    24   25   24 ar
    25   26   25 1
    26   27   25 ar
    27   28   27 ar
    28   29   28 1
    29   30   28 ar
    30   31   30 1
    31   32   24 ar
    32   33   32 1
    33   34   27 1
    34   35   34 1
    35   36   34 1
    36   37   36 1
    37   38   37 1
    38   39   37 1
    39   40   37 1
    40   41   36 1
    41   42   41 1
    42   43   41 1
    43   44   41 1
    44   45   36 1
    45   46   45 1
    46   47   45 1
    47   48   45 1
    48    9   11 ar
    49   14   23 ar
    50   21   23 ar
    51   30   32 ar
@<TRIPOS>SUBSTRUCTURE
     1 RES1 1

@<TRIPOS>CRYSIN
  17.6732    7.1183   29.6076  90.0000 100.8280  90.0000  15 1

