# MOL2 file generated by ConQuest
# Please check atom types

@<TRIPOS>MOLECULE
HURBUR
    31    30     2
SMALL
NO_CHARGES
****
Generated from CSD

@<TRIPOS>ATOM
      1 O1         4.3540    2.4628    2.5208 O.2       1 RES1    0.0000
      2 O2        -2.7977    8.7590   -0.1462 O.2       1 RES1    0.0000
      3 O3        -2.3355    9.0485   -2.2311 O.2       1 RES1    0.0000
      4 N1         2.1710    4.9204   -0.7177 N.2       1 RES1    0.0000
      5 H1         2.3609    4.6408   -1.4932 Du        2 SUP2    0.0000
      6 N2         2.4938    4.5941    0.4865 N.2       1 RES1    0.0000
      7 N3         4.0506    3.3407   -1.5693 N.3       1 RES1    0.0000
      8 H2         3.4036    3.9555   -1.7880 H         1 RES1    0.0000
      9 N4        -2.1365    8.5149   -1.1468 N.pl3     1 RES1    0.0000
     10 C1         3.4952    3.6971    0.7028 C.2       1 RES1    0.0000
     11 C2         4.2692    3.0530   -0.3120 C.2       1 RES1    0.0000
     12 C3         3.6867    3.4145    2.1284 C.2       1 RES1    0.0000
     13 C4         5.3559    2.0703   -0.0362 C.3       1 RES1    0.0000
     14 C5         3.0360    4.3224    3.1329 C.3       1 RES1    0.0000
     15 C6         1.0734    5.8135   -0.7634 C.ar      1 RES1    0.0000
     16 C7         0.2838    6.1317    0.3434 C.ar      1 RES1    0.0000
     17 C8        -0.7745    7.0042    0.2131 C.ar      1 RES1    0.0000
     18 C9        -1.0405    7.5605   -1.0261 C.ar      1 RES1    0.0000
     19 C10       -0.2840    7.2482   -2.1431 C.ar      1 RES1    0.0000
     20 C11        0.7715    6.3706   -2.0046 C.ar      1 RES1    0.0000
     21 H3         4.5090    2.8972   -2.2081 H         1 RES1    0.0000
     22 H4         5.9583    2.4028    0.6112 H         1 RES1    0.0000
     23 H5         5.0109    1.2751    0.3657 H         1 RES1    0.0000
     24 H6         5.8228    1.8736   -0.8908 H         1 RES1    0.0000
     25 H7         3.1588    5.2306    2.9610 H         1 RES1    0.0000
     26 H8         3.2450    4.0856    3.9860 H         1 RES1    0.0000
     27 H9         2.1261    4.1984    3.0749 H         1 RES1    0.0000
     28 H10        0.4942    5.7250    1.1920 H         1 RES1    0.0000
     29 H11       -1.3181    7.2430    0.9642 H         1 RES1    0.0000
     30 H12        1.3135    6.1241   -2.7927 H         1 RES1    0.0000
     31 H13       -0.4941    7.6507   -2.9686 H         1 RES1    0.0000
@<TRIPOS>BOND
     1    1   12 2
     2    2    9 2
     3    3    9 2
     4    4    6 2
     5    6   10 1
     6    7    8 1
     7    9   18 1
     8   10   11 2
     9   11    7 1
    10   12   10 1
    11   13   11 1
    12   14   12 1
    13   15    4 1
    14   16   15 ar
    15   17   16 ar
    16   18   17 ar
    17   19   18 ar
    18   20   15 ar
    19   21    7 1
    20   22   13 1
    21   23   13 1
    22   24   13 1
    23   25   14 1
    24   26   14 1
    25   27   14 1
    26   28   16 1
    27   29   17 1
    28   30   20 1
    29   31   19 1
    30   19   20 ar
@<TRIPOS>SUBSTRUCTURE
     1 RES1 1
     2 SUP2 5

@<TRIPOS>CRYSIN
  10.7326    8.6743   12.7371  90.0000  96.5510  90.0000  14 1

