# MOL2 file generated by ConQuest
# Please check atom types

@<TRIPOS>MOLECULE
HURBON
    48    51     1
SMALL
NO_CHARGES
****
Generated from CSD

@<TRIPOS>ATOM
      1 C1         4.4591    3.8654   -0.7209 C.ar      1 RES1    0.0000
      2 C2         5.8021    4.1065   -0.3620 C.ar      1 RES1    0.0000
      3 C3         6.4174    3.4932    0.7781 C.ar      1 RES1    0.0000
      4 H1         5.8744    2.8747    1.3287 H         1 RES1    0.0000
      5 C4         7.7230    3.7212    1.0895 C.ar      1 RES1    0.0000
      6 H2         8.1379    3.2734    1.8575 H         1 RES1    0.0000
      7 C5         8.5142    4.5922    0.2961 C.ar      1 RES1    0.0000
      8 H3         9.4500    4.7528    0.5217 H         1 RES1    0.0000
      9 C6         7.9797    5.1840   -0.7985 C.ar      1 RES1    0.0000
     10 H4         8.5113    5.7652   -1.3674 H         1 RES1    0.0000
     11 C7         6.6229    4.9566   -1.1813 C.ar      1 RES1    0.0000
     12 C8         6.0865    5.5163   -2.3375 C.ar      1 RES1    0.0000
     13 H5         6.6541    6.0669   -2.8992 H         1 RES1    0.0000
     14 C9         4.7704    5.2718   -2.7185 C.ar      1 RES1    0.0000
     15 C10        4.2189    5.8591   -3.8984 C.ar      1 RES1    0.0000
     16 H6         4.8367    6.4078   -4.4658 H         1 RES1    0.0000
     17 C11        2.9286    5.6524   -4.2466 C.ar      1 RES1    0.0000
     18 H7         2.5603    6.0642   -5.0586 H         1 RES1    0.0000
     19 C12        2.0860    4.8488   -3.4306 C.ar      1 RES1    0.0000
     20 H8         1.1227    4.7265   -3.6754 H         1 RES1    0.0000
     21 C13        2.5700    4.2586   -2.3025 C.ar      1 RES1    0.0000
     22 H9         1.9778    3.7062   -1.7531 H         1 RES1    0.0000
     23 C14        3.9312    4.4359   -1.9009 C.ar      1 RES1    0.0000
     24 C15        3.6026    3.0211    0.1608 C.ar      1 RES1    0.0000
     25 C16        3.2454    3.4722    1.4359 C.ar      1 RES1    0.0000
     26 H10        3.5506    4.3410    1.7310 H         1 RES1    0.0000
     27 C17        2.4924    2.6893    2.2949 C.ar      1 RES1    0.0000
     28 H11        2.2424    3.0242    3.1869 H         1 RES1    0.0000
     29 C18        2.0862    1.4109    1.9019 C.ar      1 RES1    0.0000
     30 C19        2.3982    0.9631    0.6119 C.ar      1 RES1    0.0000
     31 H12        2.1044    0.0630    0.3075 H         1 RES1    0.0000
     32 C20        3.1444    1.7673   -0.2408 C.ar      1 RES1    0.0000
     33 H13        3.3379    1.4426   -1.1524 H         1 RES1    0.0000
     34 N1         1.3420    0.6418    2.8376 N.3       1 RES1    0.0000
     35 O1         0.7360    1.2868    3.7668 O.2       1 RES1    0.0000
     36 C21        1.2995   -0.8637    2.8787 C.3       1 RES1    0.0000
     37 C22        0.2379   -1.3681    1.9040 C.3       1 RES1    0.0000
     38 H14        0.4558   -1.0780    0.9643 H         1 RES1    0.0000
     39 H15        0.2152   -2.3580    1.9365 H         1 RES1    0.0000
     40 H16       -0.6490   -1.0361    2.2052 H         1 RES1    0.0000
     41 C23        2.6848   -1.4376    2.5769 C.3       1 RES1    0.0000
     42 H17        2.9721   -1.3167    1.6203 H         1 RES1    0.0000
     43 H18        2.6686   -2.4052    2.7822 H         1 RES1    0.0000
     44 H19        3.3606   -1.0046    3.1616 H         1 RES1    0.0000
     45 C24        0.9053   -1.2732    4.2997 C.3       1 RES1    0.0000
     46 H20        0.0014   -0.9548    4.5290 H         1 RES1    0.0000
     47 H21        0.8812   -2.3108    4.2682 H         1 RES1    0.0000
     48 H22        1.5663   -0.9075    4.9717 H         1 RES1    0.0000
@<TRIPOS>BOND
     1    1    2 ar
     2    2    3 ar
     3    3    4 1
     4    5    3 ar
     5    6    5 1
     6    7    5 ar
     7    8    7 1
     8    9    7 ar
     9   10    9 1
    10   11    2 ar
    11   12   11 ar
    12   13   12 1
    13   14   12 ar
    14   15   14 ar
    15   16   15 1
    16   17   15 ar
    17   18   17 1
    18   19   17 ar
    19   20   19 1
    20   21   19 ar
    21   22   21 1
    22   23    1 ar
    23   24    1 1
    24   25   24 ar
    25   26   25 1
    26   27   25 ar
    27   28   27 1
    28   29   27 ar
    29   30   29 ar
    30   31   30 1
    31   32   24 ar
    32   33   32 1
    33   34   29 1
    34   35   34 1
    35   36   34 1
    36   37   36 1
    37   38   37 1
    38   39   37 1
    39   40   37 1
    40   41   36 1
    41   42   41 1
    42   43   41 1
    43   44   41 1
    44   45   36 1
    45   46   45 1
    46   47   45 1
    47   48   45 1
    48    9   11 ar
    49   14   23 ar
    50   21   23 ar
    51   30   32 ar
@<TRIPOS>SUBSTRUCTURE
     1 RES1 1

@<TRIPOS>CRYSIN
   8.7919   26.2294    8.1257  90.0000 103.4130  90.0000  14 1

