# MOL2 file generated by ConQuest
# Please check atom types

@<TRIPOS>MOLECULE
HURJOV
    57    51     2
SMALL
NO_CHARGES
****
Generated from CSD

@<TRIPOS>ATOM
      1 O1        -5.0056    4.2651    3.5478 O.2       1 RES1    0.0000
      2 O2         0.4676    8.2261    5.5590 O.3       1 RES1    0.0000
      3 O3         2.6439    7.7947    4.2701 O.3       1 RES1    0.0000
      4 O4        -3.6697    8.6956    2.2607 O.2       1 RES1    0.0000
      5 O5        -2.3486    9.0122    0.6523 O.2       1 RES1    0.0000
      6 N1        -2.8224    8.3101    1.5044 N.pl3     1 RES1    0.0000
      7 C1        -0.9622    7.0157    2.3705 C.ar      1 RES1    0.0000
      8 C2        -3.3497    6.0122    2.2695 C.3       1 RES1    0.0000
      9 H1        -4.1756    6.1891    1.7736 H         1 RES1    0.0000
     10 H2        -3.4763    6.3217    3.2430 H         1 RES1    0.0000
     11 C3        -0.9127    7.5029    3.6814 C.ar      1 RES1    0.0000
     12 H3        -1.7050    7.6568    4.1496 H         1 RES1    0.0000
     13 C4        -2.2767    6.8840    1.6388 C.3       1 RES1    0.0000
     14 H4        -2.0725    6.6488    0.6967 H         1 RES1    0.0000
     15 C5        -2.8826    2.4977    0.6087 C.3       1 RES1    0.0000
     16 O6        -3.0230    2.1131   -0.7332 O.3       1 RES1    0.0000
     17 C6        -1.7254    1.5773   -1.1652 C.3       1 RES1    0.0000
     18 H5        -1.2129    2.2493   -1.6398 H         1 RES1    0.0000
     19 H6        -1.8423    0.8037   -1.7371 H         1 RES1    0.0000
     20 C7        -1.0362    1.1901    0.1521 C.3       1 RES1    0.0000
     21 H7        -1.1511    0.2449    0.3377 H         1 RES1    0.0000
     22 H8        -0.0878    1.3899    0.1186 H         1 RES1    0.0000
     23 O7        -1.6988    1.9982    1.1652 O.3       1 RES1    0.0000
     24 C8         0.2981    7.7469    4.2993 C.ar      1 RES1    0.0000
     25 C9         1.4992    7.4896    3.5965 C.ar      1 RES1    0.0000
     26 C10        1.4400    6.9645    2.3267 C.ar      1 RES1    0.0000
     27 H9         2.2614    6.7638    1.8192 H         1 RES1    0.0000
     28 C11        0.2129    6.7363    1.7119 C.ar      1 RES1    0.0000
     29 H10        0.1838    6.3836    0.7332 H         1 RES1    0.0000
     30 C12       -2.9724    4.0096    0.7289 C.3       1 RES1    0.0000
     31 H11       -2.1899    4.4119    0.2829 H         1 RES1    0.0000
     32 H12       -3.7928    4.2705    0.2677 H         1 RES1    0.0000
     33 C13       -3.0429    4.5171    2.1718 C.3       1 RES1    0.0000
     34 H13       -2.2052    4.2970    2.6315 H         1 RES1    0.0000
     35 C14       -4.1200    3.7373    2.9254 C.2       1 RES1    0.0000
     36 C15       -4.0286    2.2387    2.8098 C.3       1 RES1    0.0000
     37 H14       -4.6810    1.9009    3.3251 H         1 RES1    0.0000
     38 H15       -3.0985    2.0424    3.1822 H         1 RES1    0.0000
     39 C16       -4.0107    1.8134    1.3489 C.3       1 RES1    0.0000
     40 H16       -3.8994    0.8514    1.2929 H         1 RES1    0.0000
     41 H17       -4.8571    2.0433    0.9340 H         1 RES1    0.0000
     42 C17       -0.6947    8.5418    6.3050 C.3       1 RES1    0.0000
     43 H18       -0.4410    8.8680    7.1705 H         1 RES1    0.0000
     44 H19       -1.1981    9.2173    5.8441 H         1 RES1    0.0000
     45 H20       -1.2348    7.7549    6.4069 H         1 RES1    0.0000
     46 C18        3.8617    7.5869    3.5713 C.3       1 RES1    0.0000
     47 H21        4.5993    7.8318    4.1344 H         1 RES1    0.0000
     48 H22        3.9377    6.6612    3.3282 H         1 RES1    0.0000
     49 H23        3.8724    8.1271    2.7775 H         1 RES1    0.0000
     50 O8        -2.7463    2.1750   -0.8123 Du        2 SUP2    0.0000
     51 C19       -1.8979    1.0946   -0.8609 Du        2 SUP2    0.0000
     52 H24       -1.6360    0.8479   -1.7614 Du        2 SUP2    0.0000
     53 H25       -2.2282    0.3227   -0.3742 Du        2 SUP2    0.0000
     54 C20       -0.8305    1.8700   -0.1095 Du        2 SUP2    0.0000
     55 H26       -0.0505    1.3236    0.0700 Du        2 SUP2    0.0000
     56 H27       -0.5625    2.6684   -0.5902 Du        2 SUP2    0.0000
     57 O9        -1.4803    2.1573    0.9705 Du        2 SUP2    0.0000
@<TRIPOS>BOND
     1    1   35 2
     2    2   24 1
     3    3   25 1
     4    4    6 2
     5    5    6 2
     6    6   13 1
     7    7   11 ar
     8    8    9 1
     9   10    8 1
    10   11   12 1
    11   13    7 1
    12   14   13 1
    13   15   16 1
    14   16   17 1
    15   17   18 1
    16   19   17 1
    17   20   17 1
    18   21   20 1
    19   22   20 1
    20   23   15 1
    21   24   11 ar
    22   25   24 ar
    23   26   25 ar
    24   27   26 1
    25   28    7 ar
    26   29   28 1
    27   30   15 1
    28   31   30 1
    29   32   30 1
    30   33    8 1
    31   34   33 1
    32   35   33 1
    33   36   35 1
    34   37   36 1
    35   38   36 1
    36   39   15 1
    37   40   39 1
    38   41   39 1
    39   42    2 1
    40   43   42 1
    41   44   42 1
    42   45   42 1
    43   46    3 1
    44   47   46 1
    45   48   46 1
    46   49   46 1
    47    8   13 1
    48   20   23 1
    49   26   28 ar
    50   30   33 1
    51   36   39 1
@<TRIPOS>SUBSTRUCTURE
     1 RES1 1
     2 SUP2 50

@<TRIPOS>CRYSIN
  10.2093   10.2093   30.4222  90.0000  90.0000 120.0000 170 1

