# MOL2 file generated by ConQuest
# Please check atom types

@<TRIPOS>MOLECULE
HUSZEC
    37    38     2
SMALL
NO_CHARGES
****
Generated from CSD

@<TRIPOS>ATOM
      1 C1        11.6393    1.7526    8.9302 C.ar      1 RES1    0.0000
      2 C2        11.3890    1.7526    7.5585 C.ar      1 RES1    0.0000
      3 H1        12.1076    1.7526    6.9671 H         1 RES1    0.0000
      4 C3        10.1089    1.7526    7.0567 C.ar      1 RES1    0.0000
      5 H2         9.9571    1.7526    6.1387 H         1 RES1    0.0000
      6 C4         9.0579    1.7526    7.9438 C.ar      1 RES1    0.0000
      7 C5         9.2596    1.7526    9.3010 C.ar      1 RES1    0.0000
      8 H3         8.5340    1.7526    9.8838 H         1 RES1    0.0000
      9 C6        10.5390    1.7526    9.7875 C.ar      1 RES1    0.0000
     10 H4        10.6777    1.7526   10.7074 H         1 RES1    0.0000
     11 C7        13.0132    1.7526    9.3916 C.2       1 RES1    0.0000
     12 H5        13.6527    1.7526    8.7154 H         1 RES1    0.0000
     13 C8        13.5088    1.7526   10.6332 C.2       1 RES1    0.0000
     14 C9        14.8939    1.7526   11.0561 C.2       1 RES1    0.0000
     15 H6        15.6292    1.7526   10.4868 H         1 RES1    0.0000
     16 C10       14.9508    1.7526   12.3805 C.2       1 RES1    0.0000
     17 C11       13.5691    1.7526   12.8698 C.2       1 RES1    0.0000
     18 C12       16.1234    1.7526   13.3129 C.3       1 RES1    0.0000
     19 H7        16.0764    0.9688   13.8822 H         1 RES1    0.0000
     20 C13       17.4354    1.7526   12.5828 C.ar      1 RES1    0.0000
     21 C14       18.0460    0.5699   12.2177 C.ar      1 RES1    0.0000
     22 H8        17.6486   -0.2405   12.4451 H         1 RES1    0.0000
     23 C15       19.2317    0.5735   11.5242 C.ar      1 RES1    0.0000
     24 H9        19.6229   -0.2327   11.2757 H         1 RES1    0.0000
     25 C16       19.8406    1.7526   11.1948 C.ar      1 RES1    0.0000
     26 N1         7.6820    1.7526    7.4420 N.pl3     1 RES1    0.0000
     27 O1        13.1266    1.7526   13.9823 O.2       1 RES1    0.0000
     28 O2        12.7286    1.7526   11.7662 O.3       1 RES1    0.0000
     29 O3         7.4974    1.7526    6.2425 O.2       1 RES1    0.0000
     30 O4         6.7678    1.7526    8.2390 O.2       1 RES1    0.0000
     31 H10       20.7704    1.7526   10.7594 H         1 RES1    0.0000
     32 H11       16.0764    0.9688   13.8822 Du        2 SUP2    0.0000
     33 H7G       16.0764    2.5364   13.8822 H         1 RES1    0.0000
     34 C14G      18.0460    2.9353   12.2177 C.ar      1 RES1    0.0000
     35 H8G       17.6486    3.7457   12.4451 H         1 RES1    0.0000
     36 C15G      19.2317    2.9317   11.5242 C.ar      1 RES1    0.0000
     37 H9G       19.6229    3.7379   11.2757 H         1 RES1    0.0000
@<TRIPOS>BOND
     1    1    2 ar
     2    2    3 1
     3    4    2 ar
     4    5    4 1
     5    6    4 ar
     6    7    6 ar
     7    8    7 1
     8    9    1 ar
     9   10    9 1
    10   11    1 1
    11   12   11 1
    12   13   11 2
    13   14   13 1
    14   15   14 1
    15   16   14 2
    16   17   16 1
    17   18   16 1
    18   19   18 1
    19   20   18 1
    20   21   20 ar
    21   22   21 1
    22   23   21 ar
    23   24   23 1
    24   25   23 ar
    25   26    6 1
    26   27   17 2
    27   28   13 1
    28   29   26 2
    29   30   26 2
    30   31   25 1
    31   33   18 1
    32   34   20 ar
    33   35   34 1
    34   36   25 ar
    35   37   36 1
    36    7    9 ar
    37   17   28 1
    38   34   36 ar
@<TRIPOS>SUBSTRUCTURE
     1 RES1 1
     2 SUP2 32

@<TRIPOS>CRYSIN
  22.5888    7.0104    9.6324  90.0000  90.0000  90.0000  62 1

