# MOL2 file generated by ConQuest
# Please check atom types

@<TRIPOS>MOLECULE
HUTHUB
    35    36     1
SMALL
NO_CHARGES
****
Generated from CSD

@<TRIPOS>ATOM
      1 C1        12.4564    4.0226   18.4716 C.ar      1 RES1    0.0000
      2 C2         9.1342    1.0289   20.1061 C.ar      1 RES1    0.0000
      3 N1        11.7301    3.4709   19.4676 N.pl3     1 RES1    0.0000
      4 H1        11.8698    3.7111   20.2822 H         1 RES1    0.0000
      5 C3        13.4862    4.9756   18.6854 C.ar      1 RES1    0.0000
      6 C4        12.2257    3.6401   17.1366 C.ar      1 RES1    0.0000
      7 H2        11.5349    3.0476   16.9453 H         1 RES1    0.0000
      8 C5         7.6420   -0.3887   18.8686 C.ar      1 RES1    0.0000
      9 H3         7.3277   -0.7187   18.0583 H         1 RES1    0.0000
     10 C6        14.0095    5.0200   16.3853 C.ar      1 RES1    0.0000
     11 C7         8.6503    0.5553   18.8802 C.ar      1 RES1    0.0000
     12 C8        14.2470    5.4649   17.6469 C.ar      1 RES1    0.0000
     13 H4        14.9149    6.0920   17.8064 H         1 RES1    0.0000
     14 C9        12.9873    4.1146   16.1254 C.ar      1 RES1    0.0000
     15 H5        12.8275    3.8350   15.2538 H         1 RES1    0.0000
     16 C10        8.5683    0.5270   21.2767 C.ar      1 RES1    0.0000
     17 H6         8.8906    0.8363   22.0920 H         1 RES1    0.0000
     18 C11        7.1038   -0.8421   20.0430 C.ar      1 RES1    0.0000
     19 H7         6.4124   -1.4634   20.0105 H         1 RES1    0.0000
     20 N2        13.7794    5.5058   19.9886 N.pl3     1 RES1    0.0000
     21 C12        7.5557   -0.4031   21.2855 C.ar      1 RES1    0.0000
     22 N3        10.7651    2.5228   19.1878 N.2       1 RES1    0.0000
     23 C13       10.1841    2.0236   20.2193 C.2       1 RES1    0.0000
     24 H8        10.4439    2.3096   21.0644 H         1 RES1    0.0000
     25 N4        14.8247    5.5291   15.2926 N.pl3     1 RES1    0.0000
     26 O1        15.6341    6.4045   15.5310 O.2       1 RES1    0.0000
     27 O2        14.6623    5.0501   14.1916 O.2       1 RES1    0.0000
     28 O3         9.1324    0.9759   17.6898 O.3       1 RES1    0.0000
     29 H9         9.6781    1.5761   17.8130 H         1 RES1    0.0000
     30 C14        6.9708   -0.9171   22.5609 C.3       1 RES1    0.0000
     31 H10        7.1393   -1.8593   22.6332 H         1 RES1    0.0000
     32 H11        6.0232   -0.7613   22.5631 H         1 RES1    0.0000
     33 H12        7.3714   -0.4615   23.3036 H         1 RES1    0.0000
     34 O4        13.1580    5.0730   20.9678 O.2       1 RES1    0.0000
     35 O5        14.6175    6.3843   20.1032 O.2       1 RES1    0.0000
@<TRIPOS>BOND
     1    1    3 1
     2    2   11 ar
     3    3    4 1
     4    5    1 ar
     5    6    1 ar
     6    7    6 1
     7    8    9 1
     8   10   12 ar
     9   11    8 ar
    10   12    5 ar
    11   13   12 1
    12   14    6 ar
    13   15   14 1
    14   16    2 ar
    15   17   16 1
    16   18    8 ar
    17   19   18 1
    18   20    5 1
    19   21   16 ar
    20   22    3 1
    21   23    2 1
    22   24   23 1
    23   25   10 1
    24   26   25 2
    25   27   25 2
    26   28   11 1
    27   29   28 1
    28   30   21 1
    29   31   30 1
    30   32   30 1
    31   33   30 1
    32   34   20 2
    33   35   20 2
    34   10   14 ar
    35   18   21 ar
    36   22   23 2
@<TRIPOS>SUBSTRUCTURE
     1 RES1 1

@<TRIPOS>CRYSIN
  14.0160    4.4890   21.9700  90.0000  94.2300  90.0000 231 1

