# MOL2 file generated by ConQuest
# Please check atom types

@<TRIPOS>MOLECULE
HUTPET
    54    55     1
SMALL
NO_CHARGES
****
Generated from CSD

@<TRIPOS>ATOM
      1 O1        -1.2680   -0.0696    0.7100 O.2       1 RES1    0.0000
      2 O2        -0.1872    0.5506    2.4819 O.2       1 RES1    0.0000
      3 O3        -0.9288    4.3643    1.0575 O.3       1 RES1    0.0000
      4 O4         2.6634    4.6533    4.6178 O.2       1 RES1    0.0000
      5 O5         3.5358    5.4865    2.6907 O.3       1 RES1    0.0000
      6 O6        -1.7308    5.8388    4.2046 O.2       1 RES1    0.0000
      7 O7         0.1412    7.0897    3.7840 O.3       1 RES1    0.0000
      8 N1        -1.3914    3.9214   -0.2357 N.2       1 RES1    0.0000
      9 N2        -0.8380    0.8047    1.4811 N.pl3     1 RES1    0.0000
     10 N3         0.1801    4.8695    3.4290 N.am      1 RES1    0.0000
     11 N4        -0.8099    2.8245    5.5470 N.3       1 RES1    0.0000
     12 N5         1.3908    5.1079    2.7683 N.am      1 RES1    0.0000
     13 H1         1.4029    5.2914    1.9077 H         1 RES1    0.0000
     14 C1        -1.7453    1.9101    7.4129 C.3       1 RES1    0.0000
     15 H2        -1.3138    1.0906    7.7664 H         1 RES1    0.0000
     16 H3        -2.7083    1.8225    7.6023 H         1 RES1    0.0000
     17 C2         0.3103    3.5638    7.5397 C.3       1 RES1    0.0000
     18 H4         0.6849    4.3643    7.9856 H         1 RES1    0.0000
     19 H5         0.9800    2.8350    7.5546 H         1 RES1    0.0000
     20 C3        -0.7765    3.2854    1.8987 C.2       1 RES1    0.0000
     21 C4        -0.4450    3.5965    3.2441 C.2       1 RES1    0.0000
     22 C5        -0.8730    2.7580    4.2240 C.2       1 RES1    0.0000
     23 H6        -1.3003    1.9744    3.8988 H         1 RES1    0.0000
     24 C6        -1.6427    1.8584    6.3405 C.3       1 RES1    0.0000
     25 H7        -2.5595    1.9058    5.9706 H         1 RES1    0.0000
     26 H8        -1.3002    0.9524    6.1317 H         1 RES1    0.0000
     27 C7         2.5590    5.0531    3.4753 C.2       1 RES1    0.0000
     28 C8        -1.0796    2.1579    1.1276 C.2       1 RES1    0.0000
     29 C9        -1.4954    2.6251   -0.1551 C.2       1 RES1    0.0000
     30 C10       -2.0022    1.8563   -1.3364 C.3       1 RES1    0.0000
     31 H9        -2.2101    2.4764   -2.0658 H         1 RES1    0.0000
     32 H10       -2.8110    1.3648   -1.0843 H         1 RES1    0.0000
     33 H11       -1.3135    1.2235   -1.6332 H         1 RES1    0.0000
     34 C11       -1.2321    3.0755    8.2974 C.3       1 RES1    0.0000
     35 H12       -1.0812    2.7485    9.2191 H         1 RES1    0.0000
     36 H13       -1.8700    3.8317    8.3287 H         1 RES1    0.0000
     37 C12        4.8836    5.4074    3.2500 C.3       1 RES1    0.0000
     38 H14        5.1654    4.4624    3.3425 H         1 RES1    0.0000
     39 H15        4.9147    5.8357    4.1420 H         1 RES1    0.0000
     40 C13        5.7761    6.1246    2.2984 C.3       1 RES1    0.0000
     41 H16        5.6175    5.7924    1.3901 H         1 RES1    0.0000
     42 H17        6.7107    5.9675    2.5460 H         1 RES1    0.0000
     43 H18        5.5851    7.0855    2.3327 H         1 RES1    0.0000
     44 C14       -0.5781    5.9601    3.8258 C.2       1 RES1    0.0000
     45 C15       -0.5316    8.2773    4.2926 C.3       1 RES1    0.0000
     46 H19       -1.4930    8.2319    4.0659 H         1 RES1    0.0000
     47 H20       -0.1514    9.0810    3.8571 H         1 RES1    0.0000
     48 C16       -0.3759    8.3954    5.7722 C.3       1 RES1    0.0000
     49 H21       -0.7528    7.6012    6.2047 H         1 RES1    0.0000
     50 H22       -0.8470    9.1949    6.0869 H         1 RES1    0.0000
     51 H23        0.5759    8.4692    5.9959 H         1 RES1    0.0000
     52 C17       -0.0828    3.8286    6.3494 C.3       1 RES1    0.0000
     53 H24        0.7176    4.0912    5.8304 H         1 RES1    0.0000
     54 H25       -0.6619    4.6291    6.4061 H         1 RES1    0.0000
@<TRIPOS>BOND
     1    1    9 2
     2    2    9 2
     3    3    8 1
     4    4   27 2
     5    5   27 1
     6    6   44 2
     7    7   44 1
     8    8   29 2
     9    9   28 1
    10   10   12 1
    11   11   22 1
    12   12   13 1
    13   14   15 1
    14   16   14 1
    15   17   18 1
    16   19   17 1
    17   20    3 1
    18   21   10 1
    19   22   21 2
    20   23   22 1
    21   24   11 1
    22   25   24 1
    23   26   24 1
    24   27   12 1
    25   28   20 2
    26   29   28 1
    27   30   29 1
    28   31   30 1
    29   32   30 1
    30   33   30 1
    31   34   14 1
    32   35   34 1
    33   36   34 1
    34   37    5 1
    35   38   37 1
    36   39   37 1
    37   40   37 1
    38   41   40 1
    39   42   40 1
    40   43   40 1
    41   44   10 1
    42   45    7 1
    43   46   45 1
    44   47   45 1
    45   48   45 1
    46   49   48 1
    47   50   48 1
    48   51   48 1
    49   52   11 1
    50   53   52 1
    51   54   52 1
    52   14   24 1
    53   17   34 1
    54   17   52 1
    55   20   21 1
@<TRIPOS>SUBSTRUCTURE
     1 RES1 1

@<TRIPOS>CRYSIN
  12.8250   10.5470   17.9510  90.0000 123.8100  90.0000  14 1

