# MOL2 file generated by ConQuest
# Please check atom types

@<TRIPOS>MOLECULE
HUVDIM
    52    52     1
SMALL
NO_CHARGES
****
Generated from CSD

@<TRIPOS>ATOM
      1 O1         3.6951    3.0843    1.5972 O.3       1 RES1    0.0000
      2 O2         4.3893   -0.2322    2.3331 O.3       1 RES1    0.0000
      3 O3         4.1408    1.5890    3.6770 O.2       1 RES1    0.0000
      4 O4         5.8742    1.0463   -1.5396 O.3       1 RES1    0.0000
      5 O5         1.0813    6.5036    3.9381 O.3       1 RES1    0.0000
      6 O6         0.2213    6.3065    1.8348 O.2       1 RES1    0.0000
      7 N1         3.7193    1.6721    1.4465 N.am      1 RES1    0.0000
      8 N2         2.3323    5.6213    2.3417 N.am      1 RES1    0.0000
      9 C1         4.1106    1.0484    2.5959 C.2       1 RES1    0.0000
     10 C2         4.8937   -1.1186    3.4126 C.3       1 RES1    0.0000
     11 C3         3.7953   -1.3429    4.4291 C.3       1 RES1    0.0000
     12 C4         5.2140   -2.3932    2.6579 C.3       1 RES1    0.0000
     13 C5         6.1499   -0.5194    4.0162 C.3       1 RES1    0.0000
     14 C6         4.0772    1.2634    0.0814 C.3       1 RES1    0.0000
     15 C7         5.5790    1.3981   -0.1929 C.3       1 RES1    0.0000
     16 C8         3.2127    2.0573   -0.8561 C.2       1 RES1    0.0000
     17 C9         2.4650    3.0707   -0.4614 C.2       1 RES1    0.0000
     18 C10        2.4984    3.5751    0.9498 C.3       1 RES1    0.0000
     19 C11        2.5911    5.0822    1.0191 C.3       1 RES1    0.0000
     20 C12        1.1245    6.1509    2.6367 C.2       1 RES1    0.0000
     21 C13       -0.1246    7.1611    4.4875 C.3       1 RES1    0.0000
     22 C14       -0.3096    8.5222    3.8356 C.3       1 RES1    0.0000
     23 C15        0.2294    7.3177    5.9617 C.3       1 RES1    0.0000
     24 C16       -1.3413    6.2622    4.3271 C.3       1 RES1    0.0000
     25 H1         3.0078   -1.7165    3.9815 H         1 RES1    0.0000
     26 H2         3.5592   -0.4889    4.8485 H         1 RES1    0.0000
     27 H3         4.1081   -1.9685    5.1158 H         1 RES1    0.0000
     28 H4         5.8998   -2.2097    1.9825 H         1 RES1    0.0000
     29 H5         4.4038   -2.7253    2.2178 H         1 RES1    0.0000
     30 H6         5.5460   -3.0691    3.2848 H         1 RES1    0.0000
     31 H7         5.9165    0.2850    4.5244 H         1 RES1    0.0000
     32 H8         6.7755   -0.2840    3.3001 H         1 RES1    0.0000
     33 H9         6.5692   -1.1732    4.6143 H         1 RES1    0.0000
     34 H10        5.8295    1.8585   -2.0097 H         1 RES1    0.0000
     35 H11        5.8644    2.3314   -0.0248 H         1 RES1    0.0000
     36 H12        6.0827    0.8070    0.4211 H         1 RES1    0.0000
     37 H13       -0.5545    8.4034    2.8944 H         1 RES1    0.0000
     38 H14        0.5279    9.0289    3.8939 H         1 RES1    0.0000
     39 H15       -1.0215    9.0118    4.2985 H         1 RES1    0.0000
     40 H16        1.0782    7.8002    6.0444 H         1 RES1    0.0000
     41 H17        0.3151    6.4328    6.3732 H         1 RES1    0.0000
     42 H18       -0.4788    7.8205    6.4158 H         1 RES1    0.0000
     43 H19       -1.6194    6.2534    3.3877 H         1 RES1    0.0000
     44 H20       -2.0739    6.6025    4.8816 H         1 RES1    0.0000
     45 H21       -1.1140    5.3514    4.6084 H         1 RES1    0.0000
     46 H22        2.9134    5.4389    3.0719 H         1 RES1    0.0000
     47 H23        3.4969    5.3599    0.7322 H         1 RES1    0.0000
     48 H24        1.9404    5.4720    0.3821 H         1 RES1    0.0000
     49 H25        1.6888    3.2591    1.4443 H         1 RES1    0.0000
     50 H26        1.8903    3.4918   -1.0894 H         1 RES1    0.0000
     51 H27        3.2043    1.8190   -1.7755 H         1 RES1    0.0000
     52 H28        3.8339    0.2989   -0.0225 H         1 RES1    0.0000
@<TRIPOS>BOND
     1    1    7 1
     2    2    9 1
     3    3    9 2
     4    4   15 1
     5    5   20 1
     6    6   20 2
     7    7    9 1
     8    8   19 1
     9   10    2 1
    10   11   10 1
    11   12   10 1
    12   13   10 1
    13   14    7 1
    14   15   14 1
    15   16   14 1
    16   17   16 2
    17   18    1 1
    18   19   18 1
    19   20    8 1
    20   21    5 1
    21   22   21 1
    22   23   21 1
    23   24   21 1
    24   25   11 1
    25   26   11 1
    26   27   11 1
    27   28   12 1
    28   29   12 1
    29   30   12 1
    30   31   13 1
    31   32   13 1
    32   33   13 1
    33   34    4 1
    34   35   15 1
    35   36   15 1
    36   37   22 1
    37   38   22 1
    38   39   22 1
    39   40   23 1
    40   41   23 1
    41   42   23 1
    42   43   24 1
    43   44   24 1
    44   45   24 1
    45   46    8 1
    46   47   19 1
    47   48   19 1
    48   49   18 1
    49   50   17 1
    50   51   16 1
    51   52   14 1
    52   17   18 1
@<TRIPOS>SUBSTRUCTURE
     1 RES1 1

@<TRIPOS>CRYSIN
  14.5190   10.6750   12.3440  90.0000 106.6170  90.0000  14 1

