# MOL2 file generated by ConQuest
# Please check atom types

@<TRIPOS>MOLECULE
HUYSIF
    39    39     2
SMALL
NO_CHARGES
****
Generated from CSD

@<TRIPOS>ATOM
      1 C1        -0.0756   -1.5042    5.8469 C.ar      1 RES1    0.0000
      2 C2        -1.1087   -0.6017    5.7933 C.ar      1 RES1    0.0000
      3 H1        -1.9872   -0.8660    5.9458 H         1 RES1    0.0000
      4 C3        -0.7972    0.7042    5.5072 C.ar      1 RES1    0.0000
      5 H2        -1.4729    1.3405    5.4702 H         1 RES1    0.0000
      6 C4         0.5091    1.0808    5.2732 C.ar      1 RES1    0.0000
      7 H3         0.7017    1.9661    5.0649 H         1 RES1    0.0000
      8 C5         1.5399    0.1564    5.3449 C.ar      1 RES1    0.0000
      9 C6         1.2381   -1.1547    5.6514 C.ar      1 RES1    0.0000
     10 H4         1.9127   -1.7905    5.7239 H         1 RES1    0.0000
     11 C7         3.2022    1.1139    4.0897 C.2       1 RES1    0.0000
     12 H5         2.5038    1.2681    3.4948 H         1 RES1    0.0000
     13 C8         4.5164    1.6094    3.6798 C.ar      1 RES1    0.0000
     14 C9         4.5935    2.1436    2.3988 C.ar      1 RES1    0.0000
     15 C10        5.8008    2.6822    1.9022 C.ar      1 RES1    0.0000
     16 H6         5.8372    3.0386    1.0439 H         1 RES1    0.0000
     17 C11        6.8997    2.6751    2.6811 C.ar      1 RES1    0.0000
     18 H7         7.6885    3.0355    2.3452 H         1 RES1    0.0000
     19 C12        6.8994    2.1426    3.9840 C.ar      1 RES1    0.0000
     20 C13        8.0592    2.1526    4.7781 C.ar      1 RES1    0.0000
     21 H8         8.8458    2.5054    4.4308 H         1 RES1    0.0000
     22 C14        8.0559    1.6595    6.0296 C.ar      1 RES1    0.0000
     23 H9         8.8346    1.6672    6.5383 H         1 RES1    0.0000
     24 C15        6.8703    1.1341    6.5640 C.ar      1 RES1    0.0000
     25 H10        6.8658    0.8028    7.4328 H         1 RES1    0.0000
     26 C16        5.7221    1.1023    5.8242 C.ar      1 RES1    0.0000
     27 H11        4.9473    0.7458    6.1979 H         1 RES1    0.0000
     28 C17        5.6900    1.5999    4.5056 C.ar      1 RES1    0.0000
     29 C18        3.4490    2.7350    0.3782 C.3       1 RES1    0.0000
     30 H12        2.5798    2.6364   -0.0174 H         1 RES1    0.0000
     31 H13        3.6560    3.6688    0.4680 H         1 RES1    0.0000
     32 H14        4.1064    2.3144   -0.1827 H         1 RES1    0.0000
     33 N1        -0.3828   -2.9111    6.1299 N.pl3     1 RES1    0.0000
     34 N2         2.9013    0.5039    5.1517 N.2       1 RES1    0.0000
     35 O1         3.4586    2.1258    1.6516 O.3       1 RES1    0.0000
     36 O2         0.5234   -3.7196    5.8726 O.2       1 RES1    0.0000
     37 O3        -1.4829   -3.2435    6.5594 O.2       1 RES1    0.0000
     38 O4         0.4857   -3.6302    6.6123 Du        2 SUP2    0.0000
     39 O5        -1.5375   -3.2466    5.8273 Du        2 SUP2    0.0000
@<TRIPOS>BOND
     1    1    2 ar
     2    2    3 1
     3    4    2 ar
     4    5    4 1
     5    6    4 ar
     6    7    6 1
     7    8    6 ar
     8    9    1 ar
     9   10    9 1
    10   11   12 1
    11   13   11 1
    12   14   13 ar
    13   15   14 ar
    14   16   15 1
    15   17   15 ar
    16   18   17 1
    17   19   17 ar
    18   20   19 ar
    19   21   20 1
    20   22   20 ar
    21   23   22 1
    22   24   22 ar
    23   25   24 1
    24   26   24 ar
    25   27   26 1
    26   28   13 ar
    27   29   30 1
    28   31   29 1
    29   32   29 1
    30   33    1 1
    31   34    8 1
    32   35   14 1
    33   36   33 2
    34   37   33 2
    35    8    9 ar
    36   11   34 2
    37   19   28 ar
    38   26   28 ar
    39   29   35 1
@<TRIPOS>SUBSTRUCTURE
     1 RES1 1
     2 SUP2 38

@<TRIPOS>CRYSIN
  12.8481   15.4085    7.6232  90.0000  98.0400  90.0000  14 1

