# MOL2 file generated by ConQuest
# Please check atom types

@<TRIPOS>MOLECULE
HUZJAN
    23    25     1
SMALL
NO_CHARGES
****
Generated from CSD

@<TRIPOS>ATOM
      1 O1         1.3306    2.2089   -1.2435 O.3       1 RES1    0.0000
      2 O2         2.5863    2.1917   -2.9975 O.2       1 RES1    0.0000
      3 O3         3.3671    1.3097   -1.1764 O.2       1 RES1    0.0000
      4 N1         2.5327    1.8662   -1.8532 N.pl3     1 RES1    0.0000
      5 C1         1.1966    1.7673    0.1322 C.3       1 RES1    0.0000
      6 C2         0.7499    0.3553    0.2893 C.3       1 RES1    0.0000
      7 C3         0.0000    0.3082    1.5919 C.3       1 RES1    0.0000
      8 C4         0.0000    1.7460    2.1365 C.3       1 RES1    0.0000
      9 C5         0.0000    2.4620    0.7729 C.3       1 RES1    0.0000
     10 H1         1.9972    1.9364    0.6318 H         1 RES1    0.0000
     11 H2         1.2712   -0.3813   -0.0351 H         1 RES1    0.0000
     12 H3         0.0000   -0.4612    2.1639 H         1 RES1    0.0000
     13 H4         0.7853    1.9416    2.6504 H         1 RES1    0.0000
     14 H5         0.0000    3.4206    0.7749 H         1 RES1    0.0000
     15 C2B       -0.7499    0.3553    0.2893 C.3       1 RES1    0.0000
     16 C1B       -1.1966    1.7673    0.1322 C.3       1 RES1    0.0000
     17 O1B       -1.3306    2.2089   -1.2435 O.3       1 RES1    0.0000
     18 N1B       -2.5327    1.8662   -1.8532 N.pl3     1 RES1    0.0000
     19 O2B       -2.5863    2.1917   -2.9975 O.2       1 RES1    0.0000
     20 O3B       -3.3671    1.3097   -1.1764 O.2       1 RES1    0.0000
     21 H2B       -1.2712   -0.3813   -0.0351 H         1 RES1    0.0000
     22 H4B       -0.7853    1.9416    2.6504 H         1 RES1    0.0000
     23 H1B       -1.9972    1.9364    0.6318 H         1 RES1    0.0000
@<TRIPOS>BOND
     1    1    4 1
     2    2    4 2
     3    3    4 2
     4    5    1 1
     5    6    5 1
     6    7    6 1
     7    8    7 1
     8    9    5 1
     9   10    5 1
    10   11    6 1
    11   12    7 1
    12   13    8 1
    13   14    9 1
    14   15    6 1
    15   16    9 1
    16   17   16 1
    17   18   17 1
    18   19   18 2
    19   20   18 2
    20   21   15 1
    21   22    8 1
    22   23   16 1
    23    7   15 1
    24    8    9 1
    25   15   16 1
@<TRIPOS>SUBSTRUCTURE
     1 RES1 1

@<TRIPOS>CRYSIN
  13.4146    6.6414   10.0118  90.0000  90.0000  90.0000  36 1

