# MOL2 file generated by ConQuest
# Please check atom types

@<TRIPOS>MOLECULE
HYCTDD
    54    56     1
SMALL
NO_CHARGES
****
Generated from CSD

@<TRIPOS>ATOM
      1 C1         2.3603   -1.2499    5.6241 C.3       1 RES1    0.0000
      2 H1         1.6565   -2.0305    5.8706 H         1 RES1    0.0000
      3 H2         2.8573   -1.4917    4.6965 H         1 RES1    0.0000
      4 C2         3.3814   -1.1039    6.7351 C.3       1 RES1    0.0000
      5 H3         3.9102   -2.0376    6.8565 H         1 RES1    0.0000
      6 H4         2.8735   -0.8551    7.6544 H         1 RES1    0.0000
      7 N1         1.6568    0.0383    5.4955 N.3       1 RES1    0.0000
      8 C3         0.4102    0.0554    4.8929 C.ar      1 RES1    0.0000
      9 C4        -0.0694   -1.0294    4.1499 C.ar      1 RES1    0.0000
     10 H5         0.5385   -1.9157    4.0487 H         1 RES1    0.0000
     11 C5        -1.3028   -0.9830    3.5485 C.ar      1 RES1    0.0000
     12 H6        -1.6588   -1.8220    2.9686 H         1 RES1    0.0000
     13 C6        -2.0727    0.1289    3.6891 C.ar      1 RES1    0.0000
     14 C7        -1.6688    1.1976    4.4631 C.ar      1 RES1    0.0000
     15 H7        -2.3178    2.0527    4.5857 H         1 RES1    0.0000
     16 C8        -0.4379    1.1704    5.0823 C.ar      1 RES1    0.0000
     17 C9        -0.0958    2.1927    6.0849 C.2       1 RES1    0.0000
     18 H8         0.5713    1.8250    6.8506 H         1 RES1    0.0000
     19 N2        -0.6545    3.3207    6.0718 N.2       1 RES1    0.0000
     20 C10       -0.3372    4.2383    7.1721 C.3       1 RES1    0.0000
     21 H9        -1.2485    4.5163    7.6806 H         1 RES1    0.0000
     22 H10        0.3285    3.7478    7.8663 H         1 RES1    0.0000
     23 C11        0.3444    5.5033    6.6220 C.3       1 RES1    0.0000
     24 N3         1.5854    5.3180    6.3171 N.3       1 RES1    0.0000
     25 N4        -3.4128    0.1773    3.0937 N.pl3     1 RES1    0.0000
     26 O1        -3.8695   -0.8652    2.6304 O.2       1 RES1    0.0000
     27 O2        -4.0035    1.2540    3.0687 O.2       1 RES1    0.0000
     28 N1B        4.3489   -0.0383    6.4124 N.3       1 RES1    0.0000
     29 C2B        2.6242    1.1039    5.1728 C.3       1 RES1    0.0000
     30 C1B        3.6453    1.2499    6.2838 C.3       1 RES1    0.0000
     31 C3B        5.5954   -0.0554    7.0149 C.ar      1 RES1    0.0000
     32 H3B        2.0955    2.0376    5.0513 H         1 RES1    0.0000
     33 H4B        3.1321    0.8551    4.2535 H         1 RES1    0.0000
     34 H1B        4.3492    2.0305    6.0373 H         1 RES1    0.0000
     35 H2B        3.1484    1.4917    7.2114 H         1 RES1    0.0000
     36 C4B        6.0750    1.0294    7.7580 C.ar      1 RES1    0.0000
     37 C8B        6.4436   -1.1704    6.8256 C.ar      1 RES1    0.0000
     38 H5B        5.4672    1.9157    7.8592 H         1 RES1    0.0000
     39 C5B        7.3085    0.9830    8.3593 C.ar      1 RES1    0.0000
     40 C7B        7.6745   -1.1976    7.4448 C.ar      1 RES1    0.0000
     41 C9B        6.1014   -2.1927    5.8229 C.2       1 RES1    0.0000
     42 H6B        7.6644    1.8220    8.9392 H         1 RES1    0.0000
     43 C6B        8.0783   -0.1289    8.2188 C.ar      1 RES1    0.0000
     44 H7B        8.3235   -2.0527    7.3221 H         1 RES1    0.0000
     45 H8B        5.4344   -1.8250    5.0573 H         1 RES1    0.0000
     46 N2B        6.6602   -3.3207    5.8360 N.2       1 RES1    0.0000
     47 N4B        9.4184   -0.1773    8.8142 N.pl3     1 RES1    0.0000
     48 C10B       6.3428   -4.2383    4.7358 C.3       1 RES1    0.0000
     49 O1B        9.8752    0.8652    9.2774 O.2       1 RES1    0.0000
     50 O2B       10.0091   -1.2540    8.8392 O.2       1 RES1    0.0000
     51 H9B        7.2541   -4.5163    4.2273 H         1 RES1    0.0000
     52 H10B       5.6772   -3.7478    4.0415 H         1 RES1    0.0000
     53 C11B       5.6613   -5.5033    5.2859 C.3       1 RES1    0.0000
     54 N3B        4.4203   -5.3180    5.5907 N.3       1 RES1    0.0000
@<TRIPOS>BOND
     1    1    2 1
     2    3    1 1
     3    4    1 1
     4    5    4 1
     5    6    4 1
     6    7    1 1
     7    8    7 1
     8    9    8 ar
     9   10    9 1
    10   11    9 ar
    11   12   11 1
    12   13   11 ar
    13   14   13 ar
    14   15   14 1
    15   16    8 ar
    16   17   16 1
    17   18   17 1
    18   19   17 2
    19   20   19 1
    20   21   20 1
    21   22   20 1
    22   23   20 1
    23   24   23 1
    24   25   13 1
    25   26   25 2
    26   27   25 2
    27   28    4 1
    28   29    7 1
    29   30   28 1
    30   31   28 1
    31   32   29 1
    32   33   29 1
    33   34   30 1
    34   35   30 1
    35   36   31 ar
    36   37   31 ar
    37   38   36 1
    38   39   36 ar
    39   40   37 ar
    40   41   37 1
    41   42   39 1
    42   43   39 ar
    43   44   40 1
    44   45   41 1
    45   46   41 2
    46   47   43 1
    47   48   46 1
    48   49   47 2
    49   50   47 2
    50   51   48 1
    51   52   48 1
    52   53   48 1
    53   54   53 1
    54   14   16 ar
    55   29   30 1
    56   40   43 ar
@<TRIPOS>SUBSTRUCTURE
     1 RES1 1

@<TRIPOS>CRYSIN
   9.6190   10.0720   12.4440  90.0000 106.8800  90.0000  14 1

