# MOL2 file generated by ConQuest
# Please check atom types

@<TRIPOS>MOLECULE
IBAMIK
    36    38     1
SMALL
NO_CHARGES
****
Generated from CSD

@<TRIPOS>ATOM
      1 N1         5.5252    4.2140    7.3156 N.3       1 RES1    0.0000
      2 N2         2.8495    6.3406   11.6873 N.pl3     1 RES1    0.0000
      3 O1         2.5474    7.5318   11.7038 O.2       1 RES1    0.0000
      4 O2         2.5622    5.5667   12.5925 O.2       1 RES1    0.0000
      5 C1         5.5369    2.8625    7.6500 C.ar      1 RES1    0.0000
      6 C2         3.8306    4.4724   10.4546 C.ar      1 RES1    0.0000
      7 H1         3.5679    3.8948   11.1344 H         1 RES1    0.0000
      8 C3         4.4938    4.0003    9.3312 C.ar      1 RES1    0.0000
      9 C4         4.8884    4.9069    8.3153 C.ar      1 RES1    0.0000
     10 C5         3.5731    5.8257   10.5308 C.ar      1 RES1    0.0000
     11 C6         4.9109    2.6897    8.8971 C.ar      1 RES1    0.0000
     12 C7         3.9595    6.7213    9.5394 C.ar      1 RES1    0.0000
     13 H2         3.7698    7.6269    9.6346 H         1 RES1    0.0000
     14 C8         6.0597    1.7881    6.9333 C.ar      1 RES1    0.0000
     15 H3         6.4740    1.9093    6.1095 H         1 RES1    0.0000
     16 C9         6.0677    4.7618    6.0756 C.3       1 RES1    0.0000
     17 H4         6.9206    4.3392    5.8898 H         1 RES1    0.0000
     18 H5         6.2263    5.7117    6.1921 H         1 RES1    0.0000
     19 C10        4.6207    6.2752    8.4208 C.ar      1 RES1    0.0000
     20 H6         4.8828    6.8667    7.7527 H         1 RES1    0.0000
     21 C11        4.8090    1.4123    9.4425 C.ar      1 RES1    0.0000
     22 H7         4.3989    1.2798   10.2668 H         1 RES1    0.0000
     23 C12        5.9363    0.5393    7.4982 C.ar      1 RES1    0.0000
     24 H8         6.2700   -0.1976    7.0405 H         1 RES1    0.0000
     25 C13        5.1369    4.5537    4.8782 C.3       1 RES1    0.0000
     26 H9         5.5864    4.8656    4.0774 H         1 RES1    0.0000
     27 H10        4.9740    3.6036    4.7721 H         1 RES1    0.0000
     28 C14        3.8158    5.2588    4.9936 C.3       1 RES1    0.0000
     29 H11        3.9664    6.2166    5.0222 H         1 RES1    0.0000
     30 H12        3.3865    4.9995    5.8238 H         1 RES1    0.0000
     31 C15        5.3284    0.3460    8.7340 C.ar      1 RES1    0.0000
     32 H13        5.2705   -0.5121    9.0883 H         1 RES1    0.0000
     33 C16        2.8964    4.9318    3.8316 C.3       1 RES1    0.0000
     34 H14        3.2662    5.2882    3.0205 H         1 RES1    0.0000
     35 H15        2.0331    5.3213    3.9879 H         1 RES1    0.0000
     36 H16        2.8077    3.9799    3.7526 H         1 RES1    0.0000
@<TRIPOS>BOND
     1    1    5 1
     2    2    3 2
     3    4    2 2
     4    5   11 ar
     5    6    7 1
     6    8    6 ar
     7    9    1 1
     8   10    2 1
     9   11    8 1
    10   12   10 ar
    11   13   12 1
    12   14    5 ar
    13   15   14 1
    14   16    1 1
    15   17   16 1
    16   18   16 1
    17   19    9 ar
    18   20   19 1
    19   21   11 ar
    20   22   21 1
    21   23   14 ar
    22   24   23 1
    23   25   16 1
    24   26   25 1
    25   27   25 1
    26   28   25 1
    27   29   28 1
    28   30   28 1
    29   31   21 ar
    30   32   31 1
    31   33   28 1
    32   34   33 1
    33   35   33 1
    34   36   33 1
    35    6   10 ar
    36    8    9 ar
    37   12   19 ar
    38   23   31 ar
@<TRIPOS>SUBSTRUCTURE
     1 RES1 1

@<TRIPOS>CRYSIN
   8.1948    9.5630    9.7528  68.1060  73.1410  85.3790   2 1

