# MOL2 file generated by ConQuest
# Please check atom types

@<TRIPOS>MOLECULE
IBAQAD
    56    57     1
SMALL
NO_CHARGES
****
Generated from CSD

@<TRIPOS>ATOM
      1 O1         5.3570    1.4644    7.3988 O.3       1 RES1    0.0000
      2 N1         6.0287    0.5461    8.1448 N.2       1 RES1    0.0000
      3 C1         5.4302    2.7598    8.0850 C.3       1 RES1    0.0000
      4 C2         4.7659    3.7792    7.2193 C.ar      1 RES1    0.0000
      5 C3         5.3962    4.2606    6.0830 C.ar      1 RES1    0.0000
      6 C4         4.8022    5.2264    5.2945 C.ar      1 RES1    0.0000
      7 C5         3.5566    5.7634    5.6108 C.ar      1 RES1    0.0000
      8 C6         2.9326    5.2669    6.7519 C.ar      1 RES1    0.0000
      9 C7         3.5162    4.2889    7.5388 C.ar      1 RES1    0.0000
     10 C8         2.8847    6.8566    4.7783 C.3       1 RES1    0.0000
     11 C9         3.7045    7.2328    3.5522 C.3       1 RES1    0.0000
     12 C10        2.7159    8.1106    5.6455 C.3       1 RES1    0.0000
     13 C11        1.5034    6.3722    4.3156 C.3       1 RES1    0.0000
     14 H1         4.9783    2.5556    9.0340 H         1 RES1    0.0000
     15 H2         6.4197    2.9277    8.2345 H         1 RES1    0.0000
     16 H3         6.2875    3.9006    5.8375 H         1 RES1    0.0000
     17 H4         5.2734    5.5298    4.4761 H         1 RES1    0.0000
     18 H5         2.0717    5.6117    7.0289 H         1 RES1    0.0000
     19 H6         3.0342    3.9572    8.3085 H         1 RES1    0.0000
     20 H7         4.6159    7.6212    3.8056 H         1 RES1    0.0000
     21 H8         3.8623    6.4764    2.9274 H         1 RES1    0.0000
     22 H9         3.2716    7.9448    3.0313 H         1 RES1    0.0000
     23 H10        2.2409    8.8094    5.0915 H         1 RES1    0.0000
     24 H11        2.1189    7.9205    6.4135 H         1 RES1    0.0000
     25 H12        3.6982    8.4990    5.9665 H         1 RES1    0.0000
     26 H13        1.6149    5.5672    3.7694 H         1 RES1    0.0000
     27 H14        1.0655    7.0892    3.7726 H         1 RES1    0.0000
     28 H15        0.8847    6.1315    5.1119 H         1 RES1    0.0000
     29 N1D        5.9065   -0.5461    7.5939 N.2       1 RES1    0.0000
     30 O1D        6.5781   -1.4644    8.3399 O.3       1 RES1    0.0000
     31 C1D        6.5049   -2.7598    7.6537 C.3       1 RES1    0.0000
     32 C2D        7.1692   -3.7792    8.5194 C.ar      1 RES1    0.0000
     33 C3D        6.5390   -4.2606    9.6557 C.ar      1 RES1    0.0000
     34 C4D        7.1330   -5.2264   10.4442 C.ar      1 RES1    0.0000
     35 C5D        8.3785   -5.7634   10.1279 C.ar      1 RES1    0.0000
     36 C6D        9.0026   -5.2669    8.9868 C.ar      1 RES1    0.0000
     37 C7D        8.4189   -4.2889    8.1999 C.ar      1 RES1    0.0000
     38 H6D        8.9010   -3.9572    7.4302 H         1 RES1    0.0000
     39 H5D        9.8634   -5.6117    8.7098 H         1 RES1    0.0000
     40 C8D        9.0504   -6.8566   10.9604 C.3       1 RES1    0.0000
     41 C9D        8.2306   -7.2328   12.1865 C.3       1 RES1    0.0000
     42 H7D        7.3193   -7.6212   11.9331 H         1 RES1    0.0000
     43 H8D        8.0729   -6.4764   12.8113 H         1 RES1    0.0000
     44 H9D        8.6636   -7.9448   12.7074 H         1 RES1    0.0000
     45 C10D       9.2192   -8.1106   10.0932 C.3       1 RES1    0.0000
     46 H10D       9.6942   -8.8094   10.6472 H         1 RES1    0.0000
     47 H11D       9.8162   -7.9205    9.3252 H         1 RES1    0.0000
     48 H12D       8.2369   -8.4990    9.7722 H         1 RES1    0.0000
     49 C11D      10.4317   -6.3722   11.4232 C.3       1 RES1    0.0000
     50 H13D      10.3202   -5.5672   11.9693 H         1 RES1    0.0000
     51 H14D      10.8696   -7.0892   11.9661 H         1 RES1    0.0000
     52 H15D      11.0504   -6.1315   10.6268 H         1 RES1    0.0000
     53 H4D        6.6618   -5.5298   11.2626 H         1 RES1    0.0000
     54 H3D        5.6477   -3.9006    9.9012 H         1 RES1    0.0000
     55 H1D        6.9569   -2.5556    6.7047 H         1 RES1    0.0000
     56 H2D        5.5155   -2.9277    7.5042 H         1 RES1    0.0000
@<TRIPOS>BOND
     1    1    2 1
     2    2   29 2
     3    3    1 1
     4    4    3 1
     5    5    4 ar
     6    6    5 ar
     7    7    6 ar
     8    8    7 ar
     9    9    4 ar
    10   10    7 1
    11   11   10 1
    12   12   10 1
    13   13   10 1
    14   14    3 1
    15   15    3 1
    16   16    5 1
    17   17    6 1
    18   18    8 1
    19   19    9 1
    20   20   11 1
    21   21   11 1
    22   22   11 1
    23   23   12 1
    24   24   12 1
    25   25   12 1
    26   26   13 1
    27   27   13 1
    28   28   13 1
    29   29   30 1
    30   30   31 1
    31   31   32 1
    32   32   33 ar
    33   33   34 ar
    34   34   35 ar
    35   35   36 ar
    36   36   37 ar
    37   37   32 ar
    38   38   37 1
    39   39   36 1
    40   40   35 1
    41   41   40 1
    42   42   41 1
    43   43   41 1
    44   44   41 1
    45   45   40 1
    46   46   45 1
    47   47   45 1
    48   48   45 1
    49   49   40 1
    50   50   49 1
    51   51   49 1
    52   52   49 1
    53   53   34 1
    54   54   33 1
    55   55   31 1
    56   56   31 1
    57    8    9 ar
@<TRIPOS>SUBSTRUCTURE
     1 RES1 1

@<TRIPOS>CRYSIN
  13.0760   10.1130   15.7800  90.0000  94.1460  90.0000  15 1

