# MOL2 file generated by ConQuest
# Please check atom types

@<TRIPOS>MOLECULE
IBEKEG
    37    38     1
SMALL
USER_CHARGES
****
Generated from CSD

@<TRIPOS>ATOM
      1 O1         8.3783    3.1388   -3.8396 O.2       1 RES1    0.0000
      2 N1         8.4710    2.4743   -2.7597 N.pl3     1 RES1    1.0000
      3 C1         7.7381    1.1811   -2.5456 C.3       1 RES1    0.0000
      4 C2         6.2912    1.5643   -2.2623 C.3       1 RES1    0.0000
      5 H1         5.9580    2.0822   -3.0309 H         1 RES1    0.0000
      6 H2         6.1878    2.1356   -1.4411 H         1 RES1    0.0000
      7 H3         5.7690    0.7581   -2.1479 H         1 RES1    0.0000
      8 C3         7.8317    0.3054   -3.7706 C.3       1 RES1    0.0000
      9 H4         7.3982    0.7581   -4.5063 H         1 RES1    0.0000
     10 H5         7.3651   -0.5339   -3.5913 H         1 RES1    0.0000
     11 H6         8.7612    0.1602   -4.0476 H         1 RES1    0.0000
     12 C4         8.4821    0.6600   -1.2898 C.3       1 RES1    0.0000
     13 C5         7.6317   -0.1111   -0.3054 C.3       1 RES1    0.0000
     14 H7         6.9131    0.4592    0.0229 H         1 RES1    0.0000
     15 H8         8.1513   -0.4378    0.3774 H         1 RES1    0.0000
     16 H9         7.2538   -0.8756   -0.7663 H         1 RES1    0.0000
     17 C6         9.7631   -0.0897   -1.6184 C.3       1 RES1    0.0000
     18 H10       10.2338   -0.2883   -0.7777 H         1 RES1    0.0000
     19 H11       10.3074    0.4378   -2.3103 H         1 RES1    0.0000
     20 H12        9.5356   -0.9397   -1.9901 H         1 RES1    0.0000
     21 N2         8.9169    1.9669   -0.6916 N.pl3     1 RES1    0.0000
     22 O2         9.2762    2.0699    0.5490 O.2       1 RES1   -1.0000
     23 C7         9.0095    2.9265   -1.5982 C.2       1 RES1    0.0000
     24 C8         9.5790    4.2636   -1.4185 C.ar      1 RES1    0.0000
     25 C9         9.2659    5.0268   -0.2858 C.ar      1 RES1    0.0000
     26 O3         8.5203    4.5407    0.7167 O.3       1 RES1    0.0000
     27 H13        8.7251    3.6198    0.7777 H         1 RES1    0.0000
     28 C10        9.7694    6.3284   -0.2425 C.ar      1 RES1    0.0000
     29 N3         9.4213    7.2271    0.8461 N.pl3     1 RES1    0.0000
     30 O4         8.3131    7.1375    1.3336 O.2       1 RES1    0.0000
     31 O5        10.2329    8.0883    1.1609 O.2       1 RES1    0.0000
     32 C11       10.6147    6.8164   -1.2200 C.ar      1 RES1    0.0000
     33 H14       10.9839    7.7309   -1.1003 H         1 RES1    0.0000
     34 C12       10.9407    6.0360   -2.2960 C.ar      1 RES1    0.0000
     35 H15       11.5083    6.3641   -2.9931 H         1 RES1    0.0000
     36 C13       10.4125    4.7707   -2.4040 C.ar      1 RES1    0.0000
     37 H16       10.6077    4.2477   -3.1578 H         1 RES1    0.0000
@<TRIPOS>BOND
     1    1    2 1
     2    2    3 1
     3    3    4 1
     4    4    5 1
     5    6    4 1
     6    7    4 1
     7    8    3 1
     8    9    8 1
     9   10    8 1
    10   11    8 1
    11   12    3 1
    12   13   12 1
    13   14   13 1
    14   15   13 1
    15   16   13 1
    16   17   12 1
    17   18   17 1
    18   19   17 1
    19   20   17 1
    20   21   12 1
    21   22   21 1
    22   23    2 2
    23   24   23 1
    24   25   24 ar
    25   26   25 1
    26   27   26 1
    27   28   25 ar
    28   29   28 1
    29   30   29 2
    30   31   29 2
    31   32   28 ar
    32   33   32 1
    33   34   32 ar
    34   35   34 1
    35   36   24 ar
    36   37   36 1
    37   21   23 1
    38   34   36 ar
@<TRIPOS>SUBSTRUCTURE
     1 RES1 1

@<TRIPOS>CRYSIN
  11.3120   10.6780   12.4580  90.0000 113.3550  90.0000  14 1

