# MOL2 file generated by ConQuest
# Please check atom types

@<TRIPOS>MOLECULE
IBEROX
    42    44     1
SMALL
NO_CHARGES
****
Generated from CSD

@<TRIPOS>ATOM
      1 N1         2.6131    6.5510    1.7183 N.3       1 RES1    0.0000
      2 C1         2.5601    7.9543    2.2471 C.3       1 RES1    0.0000
      3 N2         3.8664    8.6229    2.2451 N.2       1 RES1    0.0000
      4 C2         4.8901    7.8814    2.2199 C.2       1 RES1    0.0000
      5 C3         6.3339    8.3528    2.2222 C.3       1 RES1    0.0000
      6 O1         7.0423    7.0605    2.2584 O.3       1 RES1    0.0000
      7 N3         6.1260    5.9824    2.2427 N.2       1 RES1    0.0000
      8 C4         4.9293    6.4447    2.2174 C.2       1 RES1    0.0000
      9 C5         3.6810    5.6281    2.2397 C.3       1 RES1    0.0000
     10 C6         3.8468    4.4406    1.2874 C.3       1 RES1    0.0000
     11 H1         3.9327    4.7657    0.3132 H         1 RES1    0.0000
     12 H2         3.1448    3.8361    1.3422 H         1 RES1    0.0000
     13 H3         4.6260    3.9573    1.5211 H         1 RES1    0.0000
     14 C7         3.4562    5.0896    3.6708 C.3       1 RES1    0.0000
     15 H4         3.4441    5.8133    4.3509 H         1 RES1    0.0000
     16 H5         4.1176    4.4811    3.9258 H         1 RES1    0.0000
     17 H6         2.6033    4.6476    3.7693 H         1 RES1    0.0000
     18 C8         1.2925    5.8999    1.7537 C.3       1 RES1    0.0000
     19 H7         0.5936    6.4567    1.3086 H         1 RES1    0.0000
     20 H8         0.9716    5.7875    2.6843 H         1 RES1    0.0000
     21 H9         1.3110    5.0730    1.2080 H         1 RES1    0.0000
     22 C9         2.0189    8.1068    3.6753 C.3       1 RES1    0.0000
     23 H10        2.6271    7.6768    4.2949 H         1 RES1    0.0000
     24 H11        1.1798    7.7011    3.7693 H         1 RES1    0.0000
     25 H12        2.0167    9.0575    3.9147 H         1 RES1    0.0000
     26 C10        1.6988    8.7936    1.3041 C.3       1 RES1    0.0000
     27 H13        2.0366    8.7305    0.4027 H         1 RES1    0.0000
     28 H14        1.7478    9.7418    1.6330 H         1 RES1    0.0000
     29 H15        0.7843    8.5231    1.3310 H         1 RES1    0.0000
     30 O2         6.7057    9.0426    1.0935 O.3       1 RES1    0.0000
     31 H16        6.4271    8.6805    0.3579 H         1 RES1    0.0000
     32 C11        6.7702    9.1224    3.4458 C.ar      1 RES1    0.0000
     33 C12        7.6758   10.1540    3.3449 C.ar      1 RES1    0.0000
     34 H17        7.9502   10.4427    2.4763 H         1 RES1    0.0000
     35 C13        8.1371   10.7889    4.4865 C.ar      1 RES1    0.0000
     36 H18        8.7608   11.4948    4.4202 H         1 RES1    0.0000
     37 C14        7.6796   10.4186    5.7214 C.ar      1 RES1    0.0000
     38 H19        8.0059   10.9195    6.5207 H         1 RES1    0.0000
     39 C15        6.7722    9.4098    5.8259 C.ar      1 RES1    0.0000
     40 H20        6.4846    9.1544    6.7108 H         1 RES1    0.0000
     41 C16        6.3164    8.7602    4.6943 C.ar      1 RES1    0.0000
     42 H21        5.7758    7.9887    4.7871 H         1 RES1    0.0000
@<TRIPOS>BOND
     1    1    2 1
     2    2    3 1
     3    3    4 2
     4    4    5 1
     5    5    6 1
     6    6    7 1
     7    7    8 2
     8    8    4 1
     9    9    1 1
    10   10    9 1
    11   11   10 1
    12   12   10 1
    13   13   10 1
    14   14    9 1
    15   15   14 1
    16   16   14 1
    17   17   14 1
    18   18    1 1
    19   19   18 1
    20   20   18 1
    21   21   18 1
    22   22    2 1
    23   23   22 1
    24   24   22 1
    25   25   22 1
    26   26    2 1
    27   27   26 1
    28   28   26 1
    29   29   26 1
    30   30    5 1
    31   31   30 1
    32   32    5 1
    33   33   32 ar
    34   34   33 1
    35   35   33 ar
    36   36   35 1
    37   37   35 ar
    38   38   37 1
    39   39   37 ar
    40   40   39 1
    41   41   32 ar
    42   42   41 1
    43    8    9 1
    44   39   41 ar
@<TRIPOS>SUBSTRUCTURE
     1 RES1 1

@<TRIPOS>CRYSIN
   8.9530   15.1387   11.6102  90.0000 105.5590  90.0000  14 1

