# MOL2 file generated by ConQuest
# Please check atom types

@<TRIPOS>MOLECULE
IBESUD01
    22    23     1
SMALL
NO_CHARGES
****
Generated from CSD

@<TRIPOS>ATOM
      1 C1         5.4936    0.2300    4.5290 C.3       1 RES1    0.0000
      2 C2         5.9559   -0.4418    5.7789 C.2       1 RES1    0.0000
      3 C3         6.6022   -1.5984    5.6347 C.2       1 RES1    0.0000
      4 C4         7.5098   -2.2414    6.6469 C.3       1 RES1    0.0000
      5 C5         8.9228   -1.6321    6.4814 C.3       1 RES1    0.0000
      6 C6         9.4115   -1.4624    5.0266 C.3       1 RES1    0.0000
      7 C7         8.6111   -0.3892    4.3106 C.2       1 RES1    0.0000
      8 C8         6.8134   -2.0064    4.1998 C.3       1 RES1    0.0000
      9 N1         7.4779   -0.8242    3.6002 N.am      1 RES1    0.0000
     10 O1         6.5237    0.2219    3.4498 O.3       1 RES1    0.0000
     11 O2         8.9317    0.7842    4.3409 O.2       1 RES1    0.0000
     12 H1         4.6965   -0.2101    4.1457 H         1 RES1    0.0000
     13 H2         5.3098    1.1887    4.6415 H         1 RES1    0.0000
     14 H3         5.8985    0.0055    6.6091 H         1 RES1    0.0000
     15 H4         7.1620   -2.0623    7.5522 H         1 RES1    0.0000
     16 H5         7.5707   -3.2455    6.5045 H         1 RES1    0.0000
     17 H6         8.9483   -0.7409    6.9121 H         1 RES1    0.0000
     18 H7         9.5890   -2.1618    6.9418 H         1 RES1    0.0000
     19 H8        10.3372   -1.1611    5.0403 H         1 RES1    0.0000
     20 H9         9.3848   -2.2945    4.5732 H         1 RES1    0.0000
     21 H10        5.9852   -2.1286    3.7172 H         1 RES1    0.0000
     22 H11        7.3678   -2.7976    4.1027 H         1 RES1    0.0000
@<TRIPOS>BOND
     1    1    2 1
     2    2    3 2
     3    3    4 1
     4    4    5 1
     5    5    6 1
     6    6    7 1
     7    7    9 1
     8    8    3 1
     9    9    8 1
    10   10    1 1
    11   11    7 2
    12   12    1 1
    13   13    1 1
    14   14    2 1
    15   15    4 1
    16   16    4 1
    17   17    5 1
    18   18    5 1
    19   19    6 1
    20   20    6 1
    21   21    8 1
    22   22    8 1
    23    9   10 1
@<TRIPOS>SUBSTRUCTURE
     1 RES1 1

@<TRIPOS>CRYSIN
  25.1330    5.5289   11.6527  90.0000 109.0120  90.0000  15 1

