# MOL2 file generated by ConQuest
# Please check atom types

@<TRIPOS>MOLECULE
IBIVEX
    48    51     1
SMALL
NO_CHARGES
****
Generated from CSD

@<TRIPOS>ATOM
      1 O1         1.4812    6.5219   12.4769 O.3       1 RES1    0.0000
      2 O2         0.6603    2.4352   14.9585 O.3       1 RES1    0.0000
      3 O3         1.6156    4.2760   15.9406 O.3       1 RES1    0.0000
      4 O4        -0.2357    2.8184    8.6054 O.2       1 RES1    0.0000
      5 O5         1.4725    1.5971    8.1008 O.2       1 RES1    0.0000
      6 N1         0.8106    2.2547    8.8926 N.pl3     1 RES1    0.0000
      7 C1         1.7516    5.2448    8.4804 C.ar      1 RES1    0.0000
      8 H1         0.8438    5.4181    8.5844 H         1 RES1    0.0000
      9 C2         2.4325    5.7590    7.3812 C.ar      1 RES1    0.0000
     10 H2         1.9833    6.2968    6.7688 H         1 RES1    0.0000
     11 C3         3.7721    5.4756    7.1938 C.ar      1 RES1    0.0000
     12 H3         4.2228    5.8165    6.4556 H         1 RES1    0.0000
     13 C4         4.4427    4.6762    8.1159 C.ar      1 RES1    0.0000
     14 H4         5.3394    4.4657    7.9845 H         1 RES1    0.0000
     15 C5         3.7721    4.1952    9.2292 C.ar      1 RES1    0.0000
     16 H5         4.2315    3.6801    9.8532 H         1 RES1    0.0000
     17 C6         2.4206    4.4689    9.4307 C.ar      1 RES1    0.0000
     18 C7         1.7097    3.8502   10.6214 C.3       1 RES1    0.0000
     19 H6         2.3755    3.8089   11.3397 H         1 RES1    0.0000
     20 C8         1.3230    2.3665   10.3098 C.3       1 RES1    0.0000
     21 H7         2.1296    1.8157   10.3894 H         1 RES1    0.0000
     22 C9         0.2523    1.7914   11.2532 C.3       1 RES1    0.0000
     23 H8        -0.6263    1.9178   10.8619 H         1 RES1    0.0000
     24 H9         0.3978    0.8398   11.3689 H         1 RES1    0.0000
     25 C10        0.3100    2.4701   12.5817 C.2       1 RES1    0.0000
     26 C11        0.1416    3.9716   12.5817 C.3       1 RES1    0.0000
     27 H10       -0.7924    4.1846   12.7917 H         1 RES1    0.0000
     28 C12        0.4998    4.6009   11.2105 C.3       1 RES1    0.0000
     29 H11       -0.2602    4.4487   10.6098 H         1 RES1    0.0000
     30 C13        0.6524    6.1219   11.3825 C.3       1 RES1    0.0000
     31 H12        1.0225    6.4895   10.5646 H         1 RES1    0.0000
     32 H13       -0.2285    6.5082   11.5043 H         1 RES1    0.0000
     33 C14        0.9687    6.0320   13.7194 C.3       1 RES1    0.0000
     34 H14        0.0522    6.3259   13.8402 H         1 RES1    0.0000
     35 H15        1.4986    6.3754   14.4560 H         1 RES1    0.0000
     36 C15        1.0304    4.5126   13.6990 C.3       1 RES1    0.0000
     37 H16        1.9533    4.2527   13.4978 H         1 RES1    0.0000
     38 C16        0.6548    3.8915   15.0238 C.3       1 RES1    0.0000
     39 H17       -0.2270    4.2122   15.3081 H         1 RES1    0.0000
     40 C17        0.5812    1.8473   13.7152 C.2       1 RES1    0.0000
     41 H18        0.7323    0.9314   13.6703 H         1 RES1    0.0000
     42 C18        1.3254    4.0040   17.3241 C.3       1 RES1    0.0000
     43 H19        1.2779    3.0476   17.4768 H         1 RES1    0.0000
     44 H20        0.4768    4.4001   17.5750 H         1 RES1    0.0000
     45 C19        2.4428    4.6066   18.1295 C.3       1 RES1    0.0000
     46 H21        3.2723    4.1887   17.8882 H         1 RES1    0.0000
     47 H22        2.2735    4.4681   19.0641 H         1 RES1    0.0000
     48 H23        2.4942    5.5485   17.9493 H         1 RES1    0.0000
@<TRIPOS>BOND
     1    1   30 1
     2    2   38 1
     3    3   38 1
     4    4    6 2
     5    5    6 2
     6    6   20 1
     7    7    8 1
     8    9    7 ar
     9   10    9 1
    10   11    9 ar
    11   12   11 1
    12   13   11 ar
    13   14   13 1
    14   15   13 ar
    15   16   15 1
    16   17    7 ar
    17   18   17 1
    18   19   18 1
    19   20   18 1
    20   21   20 1
    21   22   20 1
    22   23   22 1
    23   24   22 1
    24   25   22 1
    25   26   25 1
    26   27   26 1
    27   28   18 1
    28   29   28 1
    29   30   28 1
    30   31   30 1
    31   32   30 1
    32   33    1 1
    33   34   33 1
    34   35   33 1
    35   36   26 1
    36   37   36 1
    37   38   36 1
    38   39   38 1
    39   40    2 1
    40   41   40 1
    41   42    3 1
    42   43   42 1
    43   44   42 1
    44   45   42 1
    45   46   45 1
    46   47   45 1
    47   48   45 1
    48   15   17 ar
    49   25   40 2
    50   26   28 1
    51   33   36 1
@<TRIPOS>SUBSTRUCTURE
     1 RES1 1

@<TRIPOS>CRYSIN
   7.9080    8.0988   26.5443  90.0000  90.0000  90.0000  19 1

