# MOL2 file generated by ConQuest
# Please check atom types

@<TRIPOS>MOLECULE
IBIYOK
    43    45     1
SMALL
NO_CHARGES
****
Generated from CSD

@<TRIPOS>ATOM
      1 O1         2.9743    6.0232    3.2441 O.3       1 RES1    0.0000
      2 O2         2.7813    5.4362    9.3201 O.2       1 RES1    0.0000
      3 O3         2.3546    4.0247    7.7184 O.2       1 RES1    0.0000
      4 O4         0.1771    8.0268    7.7408 O.3       1 RES1    0.0000
      5 O5        -0.7660    6.3202    6.4536 O.3       1 RES1    0.0000
      6 O6        -0.4725   10.3580    6.2995 O.2       1 RES1    0.0000
      7 O7         0.2108   11.4305    4.5544 O.2       1 RES1    0.0000
      8 O8         3.3842    8.4704    2.1888 O.3       1 RES1    0.0000
      9 N1         2.1830    5.0913    8.3121 N.pl3     1 RES1    0.0000
     10 N2         1.0787    7.1239    8.2881 N.2       1 RES1    0.0000
     11 N3         0.1617   10.4162    5.2510 N.pl3     1 RES1    0.0000
     12 C1         2.7742    1.7451    0.7572 C.3       1 RES1    0.0000
     13 H1         3.7520    1.7588    0.6882 H         1 RES1    0.0000
     14 H2         2.3957    1.3310   -0.0460 H         1 RES1    0.0000
     15 H3         2.5097    1.2289    1.5470 H         1 RES1    0.0000
     16 C2         2.2550    3.1703    0.8860 C.3       1 RES1    0.0000
     17 H4         1.2684    3.1444    0.9681 H         1 RES1    0.0000
     18 H5         2.4747    3.6656    0.0575 H         1 RES1    0.0000
     19 C3         2.8275    3.9283    2.0792 C.3       1 RES1    0.0000
     20 H6         2.5672    3.4649    2.9138 H         1 RES1    0.0000
     21 H7         3.8160    3.9244    2.0244 H         1 RES1    0.0000
     22 C4         2.3396    5.3563    2.1300 C.3       1 RES1    0.0000
     23 H8         2.5653    5.8205    1.2863 H         1 RES1    0.0000
     24 H9         1.3563    5.3734    2.2410 H         1 RES1    0.0000
     25 C5         2.2662    7.0979    3.7257 C.ar      1 RES1    0.0000
     26 C6         1.3474    6.8838    4.7555 C.ar      1 RES1    0.0000
     27 C7         1.1109    5.4691    5.2162 C.3       1 RES1    0.0000
     28 H10        1.9779    5.0001    5.3063 H         1 RES1    0.0000
     29 H11        0.5692    4.9878    4.5414 H         1 RES1    0.0000
     30 C8         0.3856    5.4624    6.5517 C.3       1 RES1    0.0000
     31 H12        0.0869    4.5318    6.7613 H         1 RES1    0.0000
     32 C9         1.1862    5.9957    7.7019 C.2       1 RES1    0.0000
     33 C10       -0.3659    7.6669    6.4381 C.3       1 RES1    0.0000
     34 H13       -1.1759    8.2290    6.2724 H         1 RES1    0.0000
     35 C11        0.6468    7.9554    5.3291 C.ar      1 RES1    0.0000
     36 C12        0.8941    9.2261    4.7858 C.ar      1 RES1    0.0000
     37 C13        1.7877    9.4481    3.7451 C.ar      1 RES1    0.0000
     38 H14        1.9180   10.3259    3.4084 H         1 RES1    0.0000
     39 C14        2.4892    8.3808    3.2002 C.ar      1 RES1    0.0000
     40 C15        3.5290    9.7551    1.5447 C.3       1 RES1    0.0000
     41 H15        2.6588   10.0495    1.2039 H         1 RES1    0.0000
     42 H16        4.1618    9.6780    0.8013 H         1 RES1    0.0000
     43 H17        3.8646   10.4087    2.1930 H         1 RES1    0.0000
@<TRIPOS>BOND
     1    1   22 1
     2    2    9 2
     3    3    9 2
     4    4   10 1
     5    5   30 1
     6    6   11 2
     7    7   11 2
     8    8   39 1
     9    9   32 1
    10   10   32 2
    11   11   36 1
    12   12   13 1
    13   14   12 1
    14   15   12 1
    15   16   12 1
    16   17   16 1
    17   18   16 1
    18   19   16 1
    19   20   19 1
    20   21   19 1
    21   22   19 1
    22   23   22 1
    23   24   22 1
    24   25    1 1
    25   26   25 ar
    26   27   26 1
    27   28   27 1
    28   29   27 1
    29   30   27 1
    30   31   30 1
    31   32   30 1
    32   33    4 1
    33   34   33 1
    34   35   26 ar
    35   36   35 ar
    36   37   36 ar
    37   38   37 1
    38   39   25 ar
    39   40    8 1
    40   41   40 1
    41   42   40 1
    42   43   40 1
    43    5   33 1
    44   33   35 1
    45   37   39 ar
@<TRIPOS>SUBSTRUCTURE
     1 RES1 1

@<TRIPOS>CRYSIN
   4.6736   17.6060   19.1700  90.0000  90.0000  90.0000  19 1

