# MOL2 file generated by ConQuest
# Please check atom types

@<TRIPOS>MOLECULE
IBIZOJ
    21    22     1
SMALL
NO_CHARGES
****
Generated from CSD

@<TRIPOS>ATOM
      1 C1         9.1200   -0.3339    4.1480 C.2       1 RES1    0.0000
      2 O1         9.7503   -2.4952    4.3693 O.2       1 RES1    0.0000
      3 N1         9.3720    0.9405    4.3403 N.2       1 RES1    0.0000
      4 O2        10.9084   -1.0089    5.4001 O.2       1 RES1    0.0000
      5 N2         8.3618    1.5304    3.7257 N.pl3     1 RES1    0.0000
      6 N3         7.4778    0.6946    3.1646 N.2       1 RES1    0.0000
      7 N4         9.9946   -1.3466    4.6821 N.pl3     1 RES1    0.0000
      8 C2         7.9641   -0.5017    3.4320 C.2       1 RES1    0.0000
      9 H1         7.5218   -1.2919    3.1862 H         1 RES1    0.0000
     10 N5         5.0242    2.4984    2.0877 N.1       1 RES1    0.0000
     11 C3         8.2578    2.9440    3.6443 C.ar      1 RES1    0.0000
     12 C4         9.2993    3.7137    4.1413 C.ar      1 RES1    0.0000
     13 H2        10.0050    3.2831    4.5042 H         1 RES1    0.0000
     14 C5         9.2309    5.0798    4.0964 C.ar      1 RES1    0.0000
     15 H3         9.9624    5.6563    4.4576 H         1 RES1    0.0000
     16 C6         8.1372    5.7117    3.5436 C.ar      1 RES1    0.0000
     17 H4         8.1088    6.6437    3.5258 H         1 RES1    0.0000
     18 C7         7.1050    4.9586    3.0374 C.ar      1 RES1    0.0000
     19 H5         6.3422    5.3813    2.6273 H         1 RES1    0.0000
     20 C8         7.1372    3.5698    3.0851 C.ar      1 RES1    0.0000
     21 C9         5.9924    2.8865    2.5490 C.1       1 RES1    0.0000
@<TRIPOS>BOND
     1    1    3 2
     2    2    7 2
     3    3    5 1
     4    4    7 2
     5    5    6 1
     6    6    8 2
     7    7    1 1
     8    8    1 1
     9    9    8 1
    10   10   21 3
    11   11    5 1
    12   12   11 ar
    13   13   12 1
    14   14   12 ar
    15   15   14 1
    16   16   14 ar
    17   17   16 1
    18   18   16 ar
    19   19   18 1
    20   20   11 ar
    21   21   20 1
    22   18   20 ar
@<TRIPOS>SUBSTRUCTURE
     1 RES1 1

@<TRIPOS>CRYSIN
  11.3230   10.9110    7.7527  90.0000  90.4900  90.0000  14 1

