# MOL2 file generated by ConQuest
# Please check atom types

@<TRIPOS>MOLECULE
IBOPEW
    48    50     1
SMALL
NO_CHARGES
****
Generated from CSD

@<TRIPOS>ATOM
      1 O1         5.1815   -2.3773   -1.3396 O.2       1 RES1    0.0000
      2 C1         4.1464   -2.9319    1.5875 C.ar      1 RES1    0.0000
      3 O2         0.3207    2.5211   -1.1902 O.2       1 RES1    0.0000
      4 N1        -0.6665    0.0685    1.1262 N.pl3     1 RES1    0.0000
      5 C2         2.8932    0.0479    1.0211 C.ar      1 RES1    0.0000
      6 H1         2.8818    0.0342    1.9815 H         1 RES1    0.0000
      7 C3        -0.8183    2.0315    2.6316 C.ar      1 RES1    0.0000
      8 H2        -1.6766    1.6937    2.8976 H         1 RES1    0.0000
      9 O3         6.1460    0.4371    0.1510 O.2       1 RES1    0.0000
     10 C4         5.8618   -1.2828    1.6712 C.ar      1 RES1    0.0000
     11 O4         3.2219    3.3337    0.1822 O.2       1 RES1    0.0000
     12 O5         2.4561   -3.0563    0.0607 O.2       1 RES1    0.0000
     13 C5         4.6075   -1.6628    1.1459 C.ar      1 RES1    0.0000
     14 N2         2.9320   -3.5266    1.0556 N.pl3     1 RES1    0.0000
     15 C6         1.1310    1.7804    1.2296 C.ar      1 RES1    0.0000
     16 N3         2.8259    3.6007    1.3330 N.pl3     1 RES1    0.0000
     17 O6        -0.2420   -0.3435    0.0739 O.2       1 RES1    0.0000
     18 C7         2.0247    0.9290    0.3349 C.ar      1 RES1    0.0000
     19 O7         3.3794    4.3722    2.0784 O.2       1 RES1    0.0000
     20 C8         0.8697    3.6829    2.7203 C.ar      1 RES1    0.0000
     21 H3         1.2166    4.5115    3.0584 H         1 RES1    0.0000
     22 C9         3.7378   -0.7749    0.3349 C.ar      1 RES1    0.0000
     23 N4         6.4598   -0.0240    1.2559 N.pl3     1 RES1    0.0000
     24 C10        2.9765    0.1598   -1.7533 C.ar      1 RES1    0.0000
     25 H4         3.0051    0.1815   -2.7121 H         1 RES1    0.0000
     26 N5         6.7668   -4.0173    3.9335 N.pl3     1 RES1    0.0000
     27 C11        6.0410   -3.2332    2.9813 C.ar      1 RES1    0.0000
     28 O8         7.2017    0.5136    2.0078 O.2       1 RES1    0.0000
     29 O9        -0.6665    4.7728    4.7297 O.2       1 RES1    0.0000
     30 C12       -0.0742    1.3090    1.6679 C.ar      1 RES1    0.0000
     31 O10        7.8796   -3.6373    4.2306 O.2       1 RES1    0.0000
     32 N6        -1.0763    3.8244    4.2355 N.pl3     1 RES1    0.0000
     33 C13        4.9019   -3.7103    2.4970 C.ar      1 RES1    0.0000
     34 H5         4.5732   -4.5708    2.7679 H         1 RES1    0.0000
     35 C14        2.0578    0.9769   -1.0622 C.ar      1 RES1    0.0000
     36 O11       -1.6104   -0.4462    1.7927 O.2       1 RES1    0.0000
     37 C15        1.5613    3.0016    1.7402 C.ar      1 RES1    0.0000
     38 C16       -0.3481    3.1203    3.1471 C.ar      1 RES1    0.0000
     39 C17        3.7389   -0.6973   -1.0359 C.ar      1 RES1    0.0000
     40 O12        2.4561   -4.4236    1.7123 O.2       1 RES1    0.0000
     41 N7         4.6075   -1.5453   -1.8436 N.pl3     1 RES1    0.0000
     42 N8         1.1470    1.9231   -1.7615 N.pl3     1 RES1    0.0000
     43 C18        6.5488   -1.9904    2.5856 C.ar      1 RES1    0.0000
     44 H6         7.3751   -1.6434    2.9320 H         1 RES1    0.0000
     45 O13        4.7935   -1.2805   -2.9599 O.2       1 RES1    0.0000
     46 O14        1.2840    1.9048   -2.9025 O.2       1 RES1    0.0000
     47 O15        6.3822   -5.0890    4.1814 O.2       1 RES1    0.0000
     48 O16       -1.9973    3.3713    4.6673 O.2       1 RES1    0.0000
@<TRIPOS>BOND
     1    1   41 2
     2    2   13 ar
     3    3   42 2
     4    4   17 2
     5    5    6 1
     6    7    8 1
     7    9   23 2
     8   10   13 ar
     9   11   16 2
    10   12   14 2
    11   13   22 1
    12   14    2 1
    13   15   18 1
    14   16   19 2
    15   18    5 ar
    16   20   21 1
    17   22    5 ar
    18   23   10 1
    19   24   25 1
    20   26   27 1
    21   27   33 ar
    22   28   23 2
    23   29   32 2
    24   30    4 1
    25   31   26 2
    26   32   38 1
    27   33    2 ar
    28   34   33 1
    29   35   18 ar
    30   36    4 2
    31   37   15 ar
    32   38    7 ar
    33   39   22 ar
    34   40   14 2
    35   41   39 1
    36   42   35 1
    37   43   10 ar
    38   44   43 1
    39   45   41 2
    40   46   42 2
    41   47   26 2
    42   48   32 2
    43    7   30 ar
    44   15   30 ar
    45   16   37 1
    46   20   37 ar
    47   20   38 ar
    48   24   35 ar
    49   24   39 ar
    50   27   43 ar
@<TRIPOS>SUBSTRUCTURE
     1 RES1 1

@<TRIPOS>CRYSIN
  11.4131   11.4128   16.4168  90.0000  90.0000  90.0000  19 1

