# MOL2 file generated by ConQuest
# Please check atom types

@<TRIPOS>MOLECULE
IBORID
    57    60     1
SMALL
NO_CHARGES
****
Generated from CSD

@<TRIPOS>ATOM
      1 C1        -2.3725   -0.5436   11.0357 C.ar      1 RES1    0.0000
      2 H1        -2.1415   -1.2858   10.5241 H         1 RES1    0.0000
      3 C2        -3.1859   -0.6766   12.1191 C.ar      1 RES1    0.0000
      4 C3        -3.5497    0.3906   12.9147 C.ar      1 RES1    0.0000
      5 H2        -4.1110    0.2642   13.6461 H         1 RES1    0.0000
      6 C4        -3.0710    1.6390   12.6111 C.ar      1 RES1    0.0000
      7 H3        -3.3026    2.3750   13.1306 H         1 RES1    0.0000
      8 C5        -2.2469    1.7801   11.5277 C.ar      1 RES1    0.0000
      9 C6        -1.8916    0.7238   10.7034 C.ar      1 RES1    0.0000
     10 C7        -1.0776    0.9951    9.5597 C.2       1 RES1    0.0000
     11 H4        -0.8561    0.2986    8.9853 H         1 RES1    0.0000
     12 C8        -0.6231    2.2355    9.2967 C.2       1 RES1    0.0000
     13 C9        -0.9116    3.3061   10.2284 C.2       1 RES1    0.0000
     14 C10        0.1988    2.4170    8.0471 C.2       1 RES1    0.0000
     15 C11        1.2587    4.0841    6.5607 C.ar      1 RES1    0.0000
     16 C12        1.5880    3.2022    5.5192 C.ar      1 RES1    0.0000
     17 H5         1.3004    2.3173    5.5493 H         1 RES1    0.0000
     18 C13        2.3410    3.6508    4.4488 C.ar      1 RES1    0.0000
     19 H6         2.5566    3.0736    3.7514 H         1 RES1    0.0000
     20 C14        2.7641    4.9481    4.4227 C.ar      1 RES1    0.0000
     21 C15        2.4460    5.8480    5.4315 C.ar      1 RES1    0.0000
     22 C16        1.6805    5.3767    6.5005 C.ar      1 RES1    0.0000
     23 H7         1.4540    5.9599    7.1875 H         1 RES1    0.0000
     24 C17        2.9344    7.1784    5.3216 C.2       1 RES1    0.0000
     25 H8         2.7450    7.7882    5.9981 H         1 RES1    0.0000
     26 C18        3.6617    7.5794    4.2656 C.2       1 RES1    0.0000
     27 C19        3.9783    6.6227    3.2097 C.2       1 RES1    0.0000
     28 C20        4.1765    8.9779    4.2238 C.2       1 RES1    0.0000
     29 C21        5.2797   10.7453    2.9349 C.3       1 RES1    0.0000
     30 C22        4.1647   11.7819    2.9650 C.3       1 RES1    0.0000
     31 H9         3.5501   11.6123    2.2480 H         1 RES1    0.0000
     32 H10        4.5412   12.6597    2.8643 H         1 RES1    0.0000
     33 H11        3.7005   11.7287    3.8037 H         1 RES1    0.0000
     34 C23        6.0205   10.8001    1.5924 C.3       1 RES1    0.0000
     35 H12        6.6997   10.1207    1.5754 H         1 RES1    0.0000
     36 H13        6.4271   11.6623    1.4864 H         1 RES1    0.0000
     37 H14        5.3988   10.6481    0.8780 H         1 RES1    0.0000
     38 C24        6.3002   11.0127    4.0301 C.2       1 RES1    0.0000
     39 C25        8.1767   10.1848    5.2234 C.3       1 RES1    0.0000
     40 H15        8.8708   10.7309    4.8479 H         1 RES1    0.0000
     41 H16        8.5414    9.3345    5.4812 H         1 RES1    0.0000
     42 H17        7.8091   10.6211    5.9954 H         1 RES1    0.0000
     43 N1        -3.7140   -1.9969   12.4541 N.pl3     1 RES1    0.0000
     44 N2         0.4960    3.6833    7.6808 N.am      1 RES1    0.0000
     45 H18        0.1888    4.3111    8.1819 H         1 RES1    0.0000
     46 N3         4.7389    9.4065    3.0932 N.am      1 RES1    0.0000
     47 H19        4.7836    8.8648    2.4272 H         1 RES1    0.0000
     48 O1        -4.6203   -2.0739   13.2575 O.2       1 RES1    0.0000
     49 O2        -3.2306   -2.9595   11.8941 O.2       1 RES1    0.0000
     50 O3        -1.7630    3.0287   11.2745 O.3       1 RES1    0.0000
     51 O4        -0.4749    4.4047   10.1852 O.2       1 RES1    0.0000
     52 O5         0.5456    1.4337    7.4361 O.2       1 RES1    0.0000
     53 O6         3.5300    5.3516    3.3489 O.3       1 RES1    0.0000
     54 O7         4.6265    6.8553    2.2071 O.2       1 RES1    0.0000
     55 O8         4.0692    9.7033    5.2089 O.2       1 RES1    0.0000
     56 O9         6.4083   12.0429    4.6425 O.2       1 RES1    0.0000
     57 O10        7.1250    9.9828    4.2316 O.3       1 RES1    0.0000
@<TRIPOS>BOND
     1    1    2 1
     2    3    1 ar
     3    4    3 ar
     4    5    4 1
     5    6    4 ar
     6    7    6 1
     7    8    6 ar
     8    9    1 ar
     9   10    9 1
    10   11   10 1
    11   12   10 2
    12   13   12 1
    13   14   12 1
    14   15   16 ar
    15   16   17 1
    16   18   16 ar
    17   19   18 1
    18   20   18 ar
    19   21   20 ar
    20   22   15 ar
    21   23   22 1
    22   24   21 1
    23   25   24 1
    24   26   24 2
    25   27   26 1
    26   28   26 1
    27   29   30 1
    28   30   31 1
    29   32   30 1
    30   33   30 1
    31   34   29 1
    32   35   34 1
    33   36   34 1
    34   37   34 1
    35   38   29 1
    36   39   40 1
    37   41   39 1
    38   42   39 1
    39   43    3 1
    40   44   14 1
    41   45   44 1
    42   46   28 1
    43   47   46 1
    44   48   43 2
    45   49   43 2
    46   50    8 1
    47   51   13 2
    48   52   14 2
    49   53   20 1
    50   54   27 2
    51   55   28 2
    52   56   38 2
    53   57   38 1
    54    8    9 ar
    55   13   50 1
    56   15   44 1
    57   21   22 ar
    58   27   53 1
    59   29   46 1
    60   39   57 1
@<TRIPOS>SUBSTRUCTURE
     1 RES1 1

@<TRIPOS>CRYSIN
   7.8580   11.5608   13.8689 108.5560  94.7230  91.8710   2 1

