# MOL2 file generated by ConQuest
# Please check atom types

@<TRIPOS>MOLECULE
IBOSAU
    47    50     1
SMALL
NO_CHARGES
****
Generated from CSD

@<TRIPOS>ATOM
      1 O1        -2.6174   10.9801    6.7915 O.2       1 RES1    0.0000
      2 O2        -3.9037    9.8466    5.5121 O.2       1 RES1    0.0000
      3 O3        -4.8193    0.6639   13.6829 O.3       1 RES1    0.0000
      4 N1         0.4843    5.1057    8.3668 N.pl3     1 RES1    0.0000
      5 H1         0.7784    5.8184    7.8092 H         1 RES1    0.0000
      6 N2        -0.0620    2.6262   10.1039 N.2       1 RES1    0.0000
      7 N3        -3.0779    9.9182    6.3935 N.pl3     1 RES1    0.0000
      8 C1        -0.8873    5.0597    8.4690 C.3       1 RES1    0.0000
      9 H2        -1.1735    4.3715    7.8336 H         1 RES1    0.0000
     10 C2         1.3464    4.0632    8.5457 C.ar      1 RES1    0.0000
     11 C3         2.6058    4.1782    7.9432 C.ar      1 RES1    0.0000
     12 H3         2.7820    4.9197    7.4112 H         1 RES1    0.0000
     13 C4         3.5778    3.2466    8.1063 C.ar      1 RES1    0.0000
     14 H4         4.4010    3.3531    7.6887 H         1 RES1    0.0000
     15 C5         3.3401    2.1444    8.8927 C.ar      1 RES1    0.0000
     16 H5         3.9987    1.5001    9.0181 H         1 RES1    0.0000
     17 C6         2.1142    2.0135    9.4880 C.ar      1 RES1    0.0000
     18 H6         1.9531    1.2588   10.0078 H         1 RES1    0.0000
     19 C7         1.0939    2.9568    9.3553 C.ar      1 RES1    0.0000
     20 C8        -1.1281    3.2955   10.3011 C.2       1 RES1    0.0000
     21 C9        -1.4743    4.6607    9.7716 C.3       1 RES1    0.0000
     22 H7        -2.4394    4.7151    9.6925 H         1 RES1    0.0000
     23 H8        -1.2031    5.3153   10.4338 H         1 RES1    0.0000
     24 C10       -1.5151    6.3482    7.9772 C.ar      1 RES1    0.0000
     25 C11       -1.1462    7.5671    8.5019 C.ar      1 RES1    0.0000
     26 H9        -0.5356    7.5918    9.2031 H         1 RES1    0.0000
     27 C12       -1.6600    8.7591    8.0150 C.ar      1 RES1    0.0000
     28 H10       -1.3997    9.5784    8.3692 H         1 RES1    0.0000
     29 C13       -2.5668    8.6827    6.9875 C.ar      1 RES1    0.0000
     30 C14       -2.9718    7.4816    6.4702 C.ar      1 RES1    0.0000
     31 H11       -3.6037    7.4511    5.7885 H         1 RES1    0.0000
     32 C15       -2.4346    6.3249    6.9717 C.ar      1 RES1    0.0000
     33 H12       -2.7025    5.5074    6.6175 H         1 RES1    0.0000
     34 C16       -2.1368    2.6478   11.1922 C.ar      1 RES1    0.0000
     35 C17       -3.2007    3.3429   11.7546 C.ar      1 RES1    0.0000
     36 H13       -3.2990    4.2482   11.5672 H         1 RES1    0.0000
     37 C18       -4.1257    2.7204   12.5934 C.ar      1 RES1    0.0000
     38 H14       -4.8278    3.2066   12.9622 H         1 RES1    0.0000
     39 C19       -3.9888    1.3849   12.8673 C.ar      1 RES1    0.0000
     40 C20       -2.9360    0.6767   12.3304 C.ar      1 RES1    0.0000
     41 H15       -2.8407   -0.2278   12.5240 H         1 RES1    0.0000
     42 C21       -2.0276    1.2979   11.5124 C.ar      1 RES1    0.0000
     43 H16       -1.3206    0.8050   11.1630 H         1 RES1    0.0000
     44 C22       -5.9382    1.3101   14.2368 C.3       1 RES1    0.0000
     45 H17       -6.4174    0.6955   14.7968 H         1 RES1    0.0000
     46 H18       -6.5125    1.6157   13.5307 H         1 RES1    0.0000
     47 H19       -5.6476    2.0606   14.7603 H         1 RES1    0.0000
@<TRIPOS>BOND
     1    1    7 2
     2    2    7 2
     3    3   39 1
     4    4    5 1
     5    6   19 1
     6    7   29 1
     7    8    4 1
     8    9    8 1
     9   10    4 1
    10   11   10 ar
    11   12   11 1
    12   13   11 ar
    13   14   13 1
    14   15   13 ar
    15   16   15 1
    16   17   15 ar
    17   18   17 1
    18   19   10 ar
    19   20    6 2
    20   21    8 1
    21   22   21 1
    22   23   21 1
    23   24    8 1
    24   25   24 ar
    25   26   25 1
    26   27   25 ar
    27   28   27 1
    28   29   27 ar
    29   30   29 ar
    30   31   30 1
    31   32   24 ar
    32   33   32 1
    33   34   20 1
    34   35   34 ar
    35   36   35 1
    36   37   35 ar
    37   38   37 1
    38   39   37 ar
    39   40   39 ar
    40   41   40 1
    41   42   34 ar
    42   43   42 1
    43   44    3 1
    44   45   44 1
    45   46   44 1
    46   47   44 1
    47   17   19 ar
    48   20   21 1
    49   30   32 ar
    50   40   42 ar
@<TRIPOS>SUBSTRUCTURE
     1 RES1 1

@<TRIPOS>CRYSIN
   8.3912    8.9405   12.2090  90.9900  94.1900  93.6500   2 1

