# MOL2 file generated by ConQuest
# Please check atom types

@<TRIPOS>MOLECULE
IBOVIE
    46    48     1
SMALL
NO_CHARGES
****
Generated from CSD

@<TRIPOS>ATOM
      1 N1         2.1038   12.5743   13.4666 N.3       1 RES1    0.0000
      2 H1         1.4097   12.1767   13.7822 H         1 RES1    0.0000
      3 N2         5.9726    9.3971   11.0580 N.pl3     1 RES1    0.0000
      4 O1         6.0145    8.1990   11.3490 O.2       1 RES1    0.0000
      5 O2         6.7782    9.9114   10.2957 O.2       1 RES1    0.0000
      6 N3         1.2756   14.6189   11.5184 N.3       1 RES1    0.0000
      7 H2         2.0270   14.8524   11.1714 H         1 RES1    0.0000
      8 N4        -2.5983   12.9450    7.8953 N.pl3     1 RES1    0.0000
      9 O3        -3.5862   12.3434    8.2942 O.2       1 RES1    0.0000
     10 O4        -2.4416   13.2824    6.7299 O.2       1 RES1    0.0000
     11 C1         3.0078   11.8111   12.8109 C.ar      1 RES1    0.0000
     12 C2         3.0467   10.4258   13.0458 C.ar      1 RES1    0.0000
     13 H3         2.4007   10.0346   13.5896 H         1 RES1    0.0000
     14 C3         4.0172    9.6459   12.4884 C.ar      1 RES1    0.0000
     15 H4         4.0530    8.7365   12.6811 H         1 RES1    0.0000
     16 C4         4.9427   10.2103   11.6414 C.ar      1 RES1    0.0000
     17 C5         4.8894   11.5443   11.3340 C.ar      1 RES1    0.0000
     18 H5         5.5037   11.9112   10.7397 H         1 RES1    0.0000
     19 C6         3.9322   12.3344   11.9037 C.ar      1 RES1    0.0000
     20 H6         3.8954   13.2375   11.6837 H         1 RES1    0.0000
     21 C7         0.3266   14.1315   10.6646 C.ar      1 RES1    0.0000
     22 C8        -0.7371   13.3349   11.0621 C.ar      1 RES1    0.0000
     23 H7        -0.8098   13.0694   11.9515 H         1 RES1    0.0000
     24 C9        -1.6749   12.9399   10.1591 C.ar      1 RES1    0.0000
     25 H8        -2.3894   12.4127   10.4364 H         1 RES1    0.0000
     26 C10       -1.5715   13.3106    8.8489 C.ar      1 RES1    0.0000
     27 C11       -0.5006   14.0558    8.4199 C.ar      1 RES1    0.0000
     28 H9        -0.4238   14.2841    7.5209 H         1 RES1    0.0000
     29 C12        0.4433   14.4560    9.3066 C.ar      1 RES1    0.0000
     30 H10        1.1732   14.9512    9.0115 H         1 RES1    0.0000
     31 C13        2.2031   14.0096   13.6839 C.3       1 RES1    0.0000
     32 H11        3.0733   14.3072   13.3450 H         1 RES1    0.0000
     33 C14        1.1353   14.7818   12.9584 C.3       1 RES1    0.0000
     34 H12        0.2580   14.4406   13.2316 H         1 RES1    0.0000
     35 C15        1.2121   16.2634   13.2972 C.3       1 RES1    0.0000
     36 H13        2.0373   16.6315   12.9434 H         1 RES1    0.0000
     37 H14        0.4719   16.7277   12.8778 H         1 RES1    0.0000
     38 C16        1.1620   16.4865   14.7987 C.3       1 RES1    0.0000
     39 H15        1.2459   17.4345   14.9858 H         1 RES1    0.0000
     40 H16        0.3051   16.1877   15.1402 H         1 RES1    0.0000
     41 C17        2.2492   15.7516   15.4872 C.3       1 RES1    0.0000
     42 H17        2.1796   15.8901   16.4449 H         1 RES1    0.0000
     43 H18        3.1081   16.0940   15.1949 H         1 RES1    0.0000
     44 C18        2.1652   14.2777   15.1839 C.3       1 RES1    0.0000
     45 H19        1.3411   13.9211   15.5528 H         1 RES1    0.0000
     46 H20        2.9064   13.8198   15.6102 H         1 RES1    0.0000
@<TRIPOS>BOND
     1    1    2 1
     2    3    4 2
     3    5    3 2
     4    6    7 1
     5    8    9 2
     6   10    8 2
     7   11    1 1
     8   12   11 ar
     9   13   12 1
    10   14   12 ar
    11   15   14 1
    12   16    3 1
    13   17   16 ar
    14   18   17 1
    15   19   11 ar
    16   20   19 1
    17   21    6 1
    18   22   21 ar
    19   23   22 1
    20   24   22 ar
    21   25   24 1
    22   26    8 1
    23   27   26 ar
    24   28   27 1
    25   29   21 ar
    26   30   29 1
    27   31    1 1
    28   32   31 1
    29   33    6 1
    30   34   33 1
    31   35   33 1
    32   36   35 1
    33   37   35 1
    34   38   35 1
    35   39   38 1
    36   40   38 1
    37   41   38 1
    38   42   41 1
    39   43   41 1
    40   44   31 1
    41   45   44 1
    42   46   44 1
    43   14   16 ar
    44   17   19 ar
    45   24   26 ar
    46   27   29 ar
    47   31   33 1
    48   41   44 1
@<TRIPOS>SUBSTRUCTURE
     1 RES1 1

@<TRIPOS>CRYSIN
  10.2375   12.8270   13.6620  90.0000  90.0000  90.0000  19 1

