# MOL2 file generated by ConQuest
# Please check atom types

@<TRIPOS>MOLECULE
ICENUC
    45    48     1
SMALL
NO_CHARGES
****
Generated from CSD

@<TRIPOS>ATOM
      1 O1         5.8845   10.5271    3.6212 O.2       1 RES1    0.0000
      2 O2         1.4268    7.8505    4.7606 O.2       1 RES1    0.0000
      3 O3         3.5462    6.4265    4.0551 O.3       1 RES1    0.0000
      4 H1         2.7814    6.1907    4.2366 H         1 RES1    0.0000
      5 O4         3.2812    7.9335    2.2898 O.3       1 RES1    0.0000
      6 O5         4.2368    7.1045    1.5385 O.3       1 RES1    0.0000
      7 O6         8.6277    4.0361   -2.6403 O.2       1 RES1    0.0000
      8 O7        10.2152    4.3970   -1.2573 O.2       1 RES1    0.0000
      9 N1         9.0528    4.4990   -1.5974 N.pl3     1 RES1    0.0000
     10 C1         5.5525    7.7171    1.6258 C.3       1 RES1    0.0000
     11 C2         5.9576    7.7627    3.0968 C.3       1 RES1    0.0000
     12 H2         6.7793    8.2722    3.1771 H         1 RES1    0.0000
     13 H3         6.1431    6.8594    3.3968 H         1 RES1    0.0000
     14 C3         4.9035    8.3803    4.0210 C.3       1 RES1    0.0000
     15 C4         4.8692    9.9076    3.8778 C.2       1 RES1    0.0000
     16 C5         3.6064   10.6364    4.1474 C.ar      1 RES1    0.0000
     17 C6         3.6257   12.0259    4.2256 C.ar      1 RES1    0.0000
     18 H4         4.4212   12.4854    4.0839 H         1 RES1    0.0000
     19 C7         2.4758   12.7222    4.5105 C.ar      1 RES1    0.0000
     20 H5         2.5009   13.6508    4.5688 H         1 RES1    0.0000
     21 C8         1.2862   12.0558    4.7106 C.ar      1 RES1    0.0000
     22 H6         0.5116   12.5356    4.8956 H         1 RES1    0.0000
     23 C9         1.2419   10.6870    4.6368 C.ar      1 RES1    0.0000
     24 H7         0.4375   10.2408    4.7711 H         1 RES1    0.0000
     25 C10        2.4005    9.9665    4.3615 C.ar      1 RES1    0.0000
     26 C11        2.3493    8.4978    4.3223 C.2       1 RES1    0.0000
     27 C12        3.5444    7.7512    3.6956 C.3       1 RES1    0.0000
     28 C13        6.4428    6.7626    0.8358 C.ar      1 RES1    0.0000
     29 C14        5.9695    6.1224   -0.3087 C.ar      1 RES1    0.0000
     30 H8         5.0754    6.2140   -0.5492 H         1 RES1    0.0000
     31 C15        6.8116    5.3526   -1.0908 C.ar      1 RES1    0.0000
     32 H9         6.4919    4.9196   -1.8498 H         1 RES1    0.0000
     33 C16        8.1287    5.2403   -0.7245 C.ar      1 RES1    0.0000
     34 C17        8.6244    5.8293    0.4062 C.ar      1 RES1    0.0000
     35 H10        9.5184    5.7282    0.6416 H         1 RES1    0.0000
     36 C18        7.7698    6.5789    1.1913 C.ar      1 RES1    0.0000
     37 H11        8.0910    6.9670    1.9730 H         1 RES1    0.0000
     38 C19        5.2962    8.1218    5.4874 C.3       1 RES1    0.0000
     39 H12        5.2453    7.1804    5.6712 H         1 RES1    0.0000
     40 H13        4.6946    8.5949    6.0676 H         1 RES1    0.0000
     41 H14        6.1931    8.4300    5.6377 H         1 RES1    0.0000
     42 C20        5.5449    9.0609    0.9063 C.3       1 RES1    0.0000
     43 H15        5.3522    8.9248   -0.0241 H         1 RES1    0.0000
     44 H16        6.4046    9.4770    0.9979 H         1 RES1    0.0000
     45 H17        4.8723    9.6276    1.2926 H         1 RES1    0.0000
@<TRIPOS>BOND
     1    1   15 2
     2    2   26 2
     3    3    4 1
     4    5    6 1
     5    6   10 1
     6    7    9 2
     7    8    9 2
     8    9   33 1
     9   10   11 1
    10   11   12 1
    11   13   11 1
    12   14   11 1
    13   15   14 1
    14   16   15 1
    15   17   16 ar
    16   18   17 1
    17   19   17 ar
    18   20   19 1
    19   21   19 ar
    20   22   21 1
    21   23   21 ar
    22   24   23 1
    23   25   16 ar
    24   26   25 1
    25   27    3 1
    26   28   10 1
    27   29   28 ar
    28   30   29 1
    29   31   29 ar
    30   32   31 1
    31   33   31 ar
    32   34   33 ar
    33   35   34 1
    34   36   28 ar
    35   37   36 1
    36   38   14 1
    37   39   38 1
    38   40   38 1
    39   41   38 1
    40   42   10 1
    41   43   42 1
    42   44   42 1
    43   45   42 1
    44    5   27 1
    45   14   27 1
    46   23   25 ar
    47   26   27 1
    48   34   36 ar
@<TRIPOS>SUBSTRUCTURE
     1 RES1 1

@<TRIPOS>CRYSIN
   7.6077   17.9285   13.5108  90.0000  97.5290  90.0000  14 1

