# MOL2 file generated by ConQuest
# Please check atom types

@<TRIPOS>MOLECULE
ICEPEO
    39    41     1
SMALL
NO_CHARGES
****
Generated from CSD

@<TRIPOS>ATOM
      1 O1        -1.8317    5.4299    4.1185 O.2       1 RES1    0.0000
      2 O2        -0.7599    4.4541    2.5482 O.2       1 RES1    0.0000
      3 O3        -0.8994    7.6878    2.5353 O.2       1 RES1    0.0000
      4 O4        -2.8481    8.9861    4.5594 O.2       1 RES1    0.0000
      5 O5        -4.9384   10.0369    3.1741 O.2       1 RES1    0.0000
      6 O6         0.0857   10.4898    1.3617 O.2       1 RES1    0.0000
      7 N1        -0.8164    5.1603    3.5273 N.pl3     1 RES1    0.0000
      8 C1         0.7063    7.0404    4.1254 C.ar      1 RES1    0.0000
      9 C2         1.9004    7.4325    4.7185 C.ar      1 RES1    0.0000
     10 H1         2.1010    8.3387    4.7837 H         1 RES1    0.0000
     11 C3         2.7934    6.5030    5.2118 C.ar      1 RES1    0.0000
     12 H2         3.5880    6.7875    5.6030 H         1 RES1    0.0000
     13 C4         2.5155    5.1672    5.1270 C.ar      1 RES1    0.0000
     14 H3         3.1208    4.5462    5.4631 H         1 RES1    0.0000
     15 C5         1.3382    4.7349    4.5451 C.ar      1 RES1    0.0000
     16 H4         1.1467    3.8278    4.4781 H         1 RES1    0.0000
     17 C6         0.4597    5.6728    4.0698 C.ar      1 RES1    0.0000
     18 C7        -0.1978    8.0299    3.4616 C.2       1 RES1    0.0000
     19 C8        -0.1810    9.4520    3.9419 C.3       1 RES1    0.0000
     20 H5         0.6817    9.8477    3.7400 H         1 RES1    0.0000
     21 H6        -0.2986    9.4673    4.9048 H         1 RES1    0.0000
     22 C9        -1.2844   10.2803    3.2842 C.3       1 RES1    0.0000
     23 C10       -2.6473    9.6922    3.6066 C.2       1 RES1    0.0000
     24 C11       -3.8208   10.0581    2.7039 C.2       1 RES1    0.0000
     25 C12       -3.5253   10.3949    1.3089 C.ar      1 RES1    0.0000
     26 C13       -4.5905   10.5386    0.4107 C.ar      1 RES1    0.0000
     27 H7        -5.4647   10.4058    0.6958 H         1 RES1    0.0000
     28 C14       -4.3314   10.8796   -0.9046 C.ar      1 RES1    0.0000
     29 H8        -5.0340   10.9886   -1.5033 H         1 RES1    0.0000
     30 C15       -3.0320   11.0569   -1.3285 C.ar      1 RES1    0.0000
     31 H9        -2.8671   11.3002   -2.2109 H         1 RES1    0.0000
     32 C16       -1.9758   10.8801   -0.4665 C.ar      1 RES1    0.0000
     33 H10       -1.1038   10.9780   -0.7746 H         1 RES1    0.0000
     34 C17       -2.2078   10.5569    0.8564 C.ar      1 RES1    0.0000
     35 C18       -1.0428   10.4121    1.7835 C.2       1 RES1    0.0000
     36 C19       -1.2726   11.7182    3.8658 C.3       1 RES1    0.0000
     37 H11       -1.4313   11.6823    4.8120 H         1 RES1    0.0000
     38 H12       -1.9604   12.2387    3.4462 H         1 RES1    0.0000
     39 H13       -0.4180   12.1225    3.7012 H         1 RES1    0.0000
@<TRIPOS>BOND
     1    1    7 2
     2    2    7 2
     3    3   18 2
     4    4   23 2
     5    5   24 2
     6    6   35 2
     7    7   17 1
     8    8    9 ar
     9    9   10 1
    10   11    9 ar
    11   12   11 1
    12   13   11 ar
    13   14   13 1
    14   15   13 ar
    15   16   15 1
    16   17    8 ar
    17   18    8 1
    18   19   18 1
    19   20   19 1
    20   21   19 1
    21   22   19 1
    22   23   22 1
    23   24   23 1
    24   25   24 1
    25   26   25 ar
    26   27   26 1
    27   28   26 ar
    28   29   28 1
    29   30   28 ar
    30   31   30 1
    31   32   30 ar
    32   33   32 1
    33   34   25 ar
    34   35   22 1
    35   36   22 1
    36   37   36 1
    37   38   36 1
    38   39   36 1
    39   15   17 ar
    40   32   34 ar
    41   34   35 1
@<TRIPOS>SUBSTRUCTURE
     1 RES1 1

@<TRIPOS>CRYSIN
   7.9834   17.6071   12.0243  90.0000 102.1790  90.0000 231 1

