# MOL2 file generated by ConQuest
# Please check atom types

@<TRIPOS>MOLECULE
ICEREQ
    43    46     1
SMALL
NO_CHARGES
****
Generated from CSD

@<TRIPOS>ATOM
      1 O1        -1.0155    2.7761    7.7825 O.3       1 RES1    0.0000
      2 C1         5.1708    3.2333    5.9519 C.3       1 RES1    0.0000
      3 H1         6.1153    3.4394    5.8753 H         1 RES1    0.0000
      4 H2         4.9172    2.6991    5.1832 H         1 RES1    0.0000
      5 N1        -0.7184    2.5093    9.1956 N.3       1 RES1    0.0000
      6 N2         1.2848    2.8479    7.4090 N.3       1 RES1    0.0000
      7 C2         2.5406    3.1790    6.9137 C.2       1 RES1    0.0000
      8 C3         1.4360    1.8711    8.3739 C.2       1 RES1    0.0000
      9 C4         3.4579    2.3645    7.5256 C.2       1 RES1    0.0000
     10 C5         0.0183    3.5770    7.2425 C.3       1 RES1    0.0000
     11 H3         0.0600    4.4363    7.7128 H         1 RES1    0.0000
     12 C6         1.2032    0.0782   13.1169 C.ar      1 RES1    0.0000
     13 H4         1.4082   -0.2043   13.9785 H         1 RES1    0.0000
     14 C7         2.8572    4.2580    5.9245 C.3       1 RES1    0.0000
     15 H5         2.3708    5.0664    6.1496 H         1 RES1    0.0000
     16 H6         2.5901    3.9792    5.0348 H         1 RES1    0.0000
     17 C8         4.3673    4.5304    5.9553 C.3       1 RES1    0.0000
     18 H7         4.6138    5.0626    5.1816 H         1 RES1    0.0000
     19 H8         4.5850    5.0408    6.7513 H         1 RES1    0.0000
     20 C9        -0.3753    3.7921    5.7997 C.3       1 RES1    0.0000
     21 H9        -0.4792    2.9423    5.3655 H         1 RES1    0.0000
     22 H10        0.3081    4.2976    5.3526 H         1 RES1    0.0000
     23 H11       -1.2051    4.2738    5.7624 H         1 RES1    0.0000
     24 C10        0.5918    0.9247   10.5346 C.ar      1 RES1    0.0000
     25 C11       -2.0063    2.0728    9.7294 C.3       1 RES1    0.0000
     26 H12       -2.6406    2.7893    9.6599 H         1 RES1    0.0000
     27 H13       -1.9033    1.8247   10.6504 H         1 RES1    0.0000
     28 H14       -2.3208    1.3172    9.2276 H         1 RES1    0.0000
     29 C12        0.2425    1.3801    9.1363 C.3       1 RES1    0.0000
     30 H15       -0.1667    0.6348    8.6484 H         1 RES1    0.0000
     31 C13        2.7611    1.5428    8.4531 C.2       1 RES1    0.0000
     32 H16        3.1366    0.9010    9.0114 H         1 RES1    0.0000
     33 C14        1.1836    1.7997   11.4403 C.ar      1 RES1    0.0000
     34 H17        1.3746    2.6724   11.1812 H         1 RES1    0.0000
     35 C15        1.4898    1.3798   12.7240 C.ar      1 RES1    0.0000
     36 H18        1.8874    1.9692   13.3235 H         1 RES1    0.0000
     37 C16        0.6130   -0.7940   12.2246 C.ar      1 RES1    0.0000
     38 H19        0.4228   -1.6660   12.4863 H         1 RES1    0.0000
     39 C17        0.3021   -0.3754   10.9369 C.ar      1 RES1    0.0000
     40 H20       -0.1006   -0.9656   10.3423 H         1 RES1    0.0000
     41 C18        4.9277    2.4322    7.2301 C.3       1 RES1    0.0000
     42 H21        5.2808    1.5348    7.1239 H         1 RES1    0.0000
     43 H22        5.3898    2.8530    7.9709 H         1 RES1    0.0000
@<TRIPOS>BOND
     1    1    5 1
     2    2    3 1
     3    4    2 1
     4    5   25 1
     5    6    7 1
     6    7    9 2
     7    8    6 1
     8    9   31 1
     9   10    1 1
    10   11   10 1
    11   12   13 1
    12   14    7 1
    13   15   14 1
    14   16   14 1
    15   17    2 1
    16   18   17 1
    17   19   17 1
    18   20   10 1
    19   21   20 1
    20   22   20 1
    21   23   20 1
    22   24   29 1
    23   25   26 1
    24   27   25 1
    25   28   25 1
    26   29    5 1
    27   30   29 1
    28   31    8 2
    29   32   31 1
    30   33   24 ar
    31   34   33 1
    32   35   12 ar
    33   36   35 1
    34   37   12 ar
    35   38   37 1
    36   39   24 ar
    37   40   39 1
    38   41    2 1
    39   42   41 1
    40   43   41 1
    41    6   10 1
    42    8   29 1
    43    9   41 1
    44   14   17 1
    45   33   35 ar
    46   37   39 ar
@<TRIPOS>SUBSTRUCTURE
     1 RES1 1

@<TRIPOS>CRYSIN
   9.8566    9.5037   16.2899  90.0000  97.9810  90.0000  13 1

