# MOL2 file generated by ConQuest
# Please check atom types

@<TRIPOS>MOLECULE
ICIGAC
    36    38     1
SMALL
NO_CHARGES
****
Generated from CSD

@<TRIPOS>ATOM
      1 O1         3.3781   -0.2730   11.1506 O.3       1 RES1    0.0000
      2 O2         7.3906   -0.0699   13.2707 O.3       1 RES1    0.0000
      3 H1         7.2295    0.7920   13.1247 H         1 RES1    0.0000
      4 O3         6.4735   -2.0601   13.2044 O.2       1 RES1    0.0000
      5 O4         6.9530    2.3322   12.3061 O.3       1 RES1    0.0000
      6 O5         8.7606    3.3290   11.2071 O.3       1 RES1    0.0000
      7 N1         4.2635   -1.0709   11.8959 N.2       1 RES1    0.0000
      8 C1         3.9302    0.9479   11.0227 C.2       1 RES1    0.0000
      9 C2         3.4477    2.1308   10.2490 C.3       1 RES1    0.0000
     10 C3         4.6247    2.4409    9.2736 C.3       1 RES1    0.0000
     11 H2         4.7201    1.6935    8.6313 H         1 RES1    0.0000
     12 H3         4.4129    3.2599    8.7587 H         1 RES1    0.0000
     13 C4         5.9541    2.6414   10.0154 C.3       1 RES1    0.0000
     14 H4         6.2707    3.5708    9.8867 H         1 RES1    0.0000
     15 H5         6.6380    2.0280    9.6465 H         1 RES1    0.0000
     16 C5         5.7574    2.3575   11.5323 C.3       1 RES1    0.0000
     17 C6         4.7380    3.3761   12.0843 C.3       1 RES1    0.0000
     18 H6         4.5597    3.1849   13.0398 H         1 RES1    0.0000
     19 H7         5.1099    4.2912   12.0166 H         1 RES1    0.0000
     20 C7         3.4266    3.2910   11.2854 C.3       1 RES1    0.0000
     21 H8         3.2779    4.1471   10.8117 H         1 RES1    0.0000
     22 H9         2.6719    3.1537   11.9118 H         1 RES1    0.0000
     23 C8         5.1100    1.0111   11.6411 C.2       1 RES1    0.0000
     24 C9         5.2858   -0.2873   12.1719 C.2       1 RES1    0.0000
     25 C10        2.1188    1.9311    9.5562 C.3       1 RES1    0.0000
     26 H10        1.4357    1.7020   10.2198 H         1 RES1    0.0000
     27 H11        2.1974    1.2049    8.9033 H         1 RES1    0.0000
     28 H12        1.8640    2.7577    9.0957 H         1 RES1    0.0000
     29 C11        7.8385    3.4444   12.2303 C.3       1 RES1    0.0000
     30 H13        7.3094    4.2693   12.0963 H         1 RES1    0.0000
     31 H14        8.3216    3.5303   13.0902 H         1 RES1    0.0000
     32 C12        9.6926    2.2968   11.4327 C.3       1 RES1    0.0000
     33 H15       10.3527    2.2884   10.7081 H         1 RES1    0.0000
     34 H16        9.2253    1.4357   11.4593 H         1 RES1    0.0000
     35 H17       10.1465    2.4485   12.2874 H         1 RES1    0.0000
     36 C13        6.4164   -0.8940   12.9297 C.2       1 RES1    0.0000
@<TRIPOS>BOND
     1    1    7 1
     2    2    3 1
     3    4   36 2
     4    5   16 1
     5    6   29 1
     6    7   24 2
     7    8    1 1
     8    9    8 1
     9   10    9 1
    10   11   10 1
    11   12   10 1
    12   13   10 1
    13   14   13 1
    14   15   13 1
    15   16   13 1
    16   17   16 1
    17   18   17 1
    18   19   17 1
    19   20    9 1
    20   21   20 1
    21   22   20 1
    22   23    8 2
    23   24   23 1
    24   25    9 1
    25   26   25 1
    26   27   25 1
    27   28   25 1
    28   29    5 1
    29   30   29 1
    30   31   29 1
    31   32    6 1
    32   33   32 1
    33   34   32 1
    34   35   32 1
    35   36    2 1
    36   16   23 1
    37   17   20 1
    38   24   36 1
@<TRIPOS>SUBSTRUCTURE
     1 RES1 1

@<TRIPOS>CRYSIN
  11.5493    8.4256   13.4272  90.0000  98.7560  90.0000 231 1

