# MOL2 file generated by ConQuest
# Please check atom types

@<TRIPOS>MOLECULE
ICOLAP
    40    41     1
SMALL
USER_CHARGES
****
Generated from CSD

@<TRIPOS>ATOM
      1 O1        -2.3379   -2.3755    7.0890 O.3       1 RES1    0.0000
      2 O2        -1.4751   -3.2039    5.2127 O.2       1 RES1   -1.0000
      3 O3        -2.5604    0.7824    9.8551 O.2       1 RES1    0.0000
      4 O4        -4.5676    1.7128   10.0984 O.3       1 RES1    0.0000
      5 O5         0.5988   -1.6184    4.1450 O.2       1 RES1    0.0000
      6 O6         0.7849    0.3263    5.2706 O.3       1 RES1    0.0000
      7 N1        -1.4344   -2.2693    6.0056 N.pl3     1 RES1    1.0000
      8 C1        -2.3166   -1.0884    7.7726 C.3       1 RES1    0.0000
      9 C2        -1.0020   -0.4296    7.3373 C.3       1 RES1    0.0000
     10 C3        -0.7103   -1.1722    6.0759 C.2       1 RES1    0.0000
     11 C4        -3.5543   -0.3586    7.4035 C.2       1 RES1    0.0000
     12 C5        -4.1683    0.5637    8.1476 C.2       1 RES1    0.0000
     13 C6        -3.6620    1.0013    9.4470 C.2       1 RES1    0.0000
     14 C7        -4.1214    2.2451   11.3722 C.3       1 RES1    0.0000
     15 C8         0.1137   -0.5663    8.3313 C.ar      1 RES1    0.0000
     16 C9         0.3358   -1.7893    8.9479 C.ar      1 RES1    0.0000
     17 C10        1.3837   -1.9410    9.8493 C.ar      1 RES1    0.0000
     18 C11        2.1865   -0.8610   10.1141 C.ar      1 RES1    0.0000
     19 C12        1.9612    0.3308    9.5265 C.ar      1 RES1    0.0000
     20 C13        0.9327    0.4964    8.6326 C.ar      1 RES1    0.0000
     21 C14        0.2838   -0.8940    5.0480 C.2       1 RES1    0.0000
     22 C15        1.7505    0.8226    4.2774 C.3       1 RES1    0.0000
     23 C16        2.6086    1.6199    4.8104 C.3       1 RES1    0.0000
     24 H1        -2.2990   -1.2349    8.7137 H         1 RES1    0.0000
     25 H2        -1.1496    0.4862    7.1502 H         1 RES1    0.0000
     26 H3        -3.9458   -0.5413    6.5609 H         1 RES1    0.0000
     27 H4        -4.9862    0.9402    7.8322 H         1 RES1    0.0000
     28 H5        -3.8696    1.5019   11.9491 H         1 RES1    0.0000
     29 H6        -3.3560    2.7893   11.2505 H         1 RES1    0.0000
     30 H7        -4.8080    2.7267   11.7918 H         1 RES1    0.0000
     31 H8        -0.2117   -2.5388    8.7493 H         1 RES1    0.0000
     32 H9         1.5221   -2.7597   10.2846 H         1 RES1    0.0000
     33 H10        2.9276   -0.9924   10.7382 H         1 RES1    0.0000
     34 H11        2.5400    1.0422    9.7317 H         1 RES1    0.0000
     35 H12        0.7799    1.3242    8.2494 H         1 RES1    0.0000
     36 H13        1.3345    1.2297    3.5896 H         1 RES1    0.0000
     37 H14        2.2689    0.0530    3.9736 H         1 RES1    0.0000
     38 H15        3.2526    1.8667    4.1574 H         1 RES1    0.0000
     39 H16        3.0457    1.2132    5.5487 H         1 RES1    0.0000
     40 H17        2.1431    2.3946    5.1051 H         1 RES1    0.0000
@<TRIPOS>BOND
     1    1    7 1
     2    2    7 1
     3    3   13 2
     4    4   13 1
     5    5   21 2
     6    6   21 1
     7    7   10 2
     8    8    1 1
     9    9    8 1
    10   10    9 1
    11   11    8 1
    12   12   11 2
    13   13   12 1
    14   14    4 1
    15   15    9 1
    16   16   15 ar
    17   17   16 ar
    18   18   17 ar
    19   19   18 ar
    20   20   15 ar
    21   21   10 1
    22   22    6 1
    23   23   22 1
    24   24    8 1
    25   25    9 1
    26   26   11 1
    27   27   12 1
    28   28   14 1
    29   29   14 1
    30   30   14 1
    31   31   16 1
    32   32   17 1
    33   33   18 1
    34   34   19 1
    35   35   20 1
    36   36   22 1
    37   37   22 1
    38   38   23 1
    39   39   23 1
    40   40   23 1
    41   19   20 ar
@<TRIPOS>SUBSTRUCTURE
     1 RES1 1

@<TRIPOS>CRYSIN
   9.7530   10.2800    9.2500 106.0000 109.3000  94.1300   2 1

