# MOL2 file generated by ConQuest
# Please check atom types

@<TRIPOS>MOLECULE
ICOXEF
    42    43     1
SMALL
NO_CHARGES
****
Generated from CSD

@<TRIPOS>ATOM
      1 C1         7.9639    1.5211    1.7055 C.2       1 RES1    0.0000
      2 C2         8.2211    2.5954    1.0027 C.2       1 RES1    0.0000
      3 H1         8.6310    3.3742    1.3036 H         1 RES1    0.0000
      4 C3         7.7475    2.3307   -0.3232 C.2       1 RES1    0.0000
      5 H2         7.8276    2.8941   -1.0590 H         1 RES1    0.0000
      6 C4         7.2001    1.1916   -0.3105 C.2       1 RES1    0.0000
      7 H3         6.7748    0.7972   -1.0378 H         1 RES1    0.0000
      8 C5         8.3138    1.1758    3.0984 C.3       1 RES1    0.0000
      9 H4         9.0237    0.5142    3.0920 H         1 RES1    0.0000
     10 H5         8.6514    1.9679    3.5461 H         1 RES1    0.0000
     11 C6         6.1183    1.6309    4.1575 C.3       1 RES1    0.0000
     12 H6         6.3669    2.1369    4.9475 H         1 RES1    0.0000
     13 H7         6.0366    2.2525    3.4174 H         1 RES1    0.0000
     14 C7         5.0667    0.0033    5.4333 C.3       1 RES1    0.0000
     15 H8         5.3792    0.4510    6.2351 H         1 RES1    0.0000
     16 H9         4.2351   -0.4493    5.6450 H         1 RES1    0.0000
     17 C8         7.0891   -0.6282    4.2441 C.2       1 RES1    0.0000
     18 C9         4.2985    0.4119    3.1464 C.3       1 RES1    0.0000
     19 H10        5.0202   -0.0649    2.6859 H         1 RES1    0.0000
     20 C10        3.1554   -0.5633    3.3919 C.3       1 RES1    0.0000
     21 H11        3.4947   -1.3530    3.8204 H         1 RES1    0.0000
     22 H12        2.7530   -0.8022    2.5540 H         1 RES1    0.0000
     23 H13        2.4981   -0.1506    3.9576 H         1 RES1    0.0000
     24 C11        3.7937    1.5219    2.2350 C.2       1 RES1    0.0000
     25 C12        3.2353    1.9796   -0.0319 C.3       1 RES1    0.0000
     26 H14        3.8029    2.7601   -0.1340 H         1 RES1    0.0000
     27 H15        2.3486    2.2750    0.2275 H         1 RES1    0.0000
     28 C13        3.1717    1.2290   -1.2940 C.3       1 RES1    0.0000
     29 H16        4.0578    0.9702   -1.5577 H         1 RES1    0.0000
     30 H17        2.7846    1.7832   -1.9767 H         1 RES1    0.0000
     31 H18        2.6313    0.4452   -1.1739 H         1 RES1    0.0000
     32 N1         7.1740    0.6474    3.8546 N.3       1 RES1    0.0000
     33 N2         4.8358    0.9836    4.3855 N.3       1 RES1    0.0000
     34 N3         6.0510   -0.9661    5.0044 N.pl3     1 RES1    0.0000
     35 H19        5.9572   -1.7807    5.2314 H         1 RES1    0.0000
     36 N4         8.0881   -1.4296    3.7971 N.2       1 RES1    0.0000
     37 N5         8.0095   -2.7501    4.0331 N.pl3     1 RES1    0.0000
     38 O1         7.3236    0.6183    0.9337 O.3       1 RES1    0.0000
     39 O2         8.9920   -3.4058    3.6487 O.2       1 RES1    0.0000
     40 O3         7.0377   -3.3101    4.5817 O.2       1 RES1    0.0000
     41 O4         3.7856    1.0859    0.9792 O.3       1 RES1    0.0000
     42 O5         3.4090    2.5845    2.5681 O.2       1 RES1    0.0000
@<TRIPOS>BOND
     1    1    2 2
     2    2    3 1
     3    4    2 1
     4    5    4 1
     5    6    4 2
     6    7    6 1
     7    8    1 1
     8    9    8 1
     9   10    8 1
    10   11   12 1
    11   13   11 1
    12   14   15 1
    13   16   14 1
    14   17   32 1
    15   18   19 1
    16   20   18 1
    17   21   20 1
    18   22   20 1
    19   23   20 1
    20   24   18 1
    21   25   26 1
    22   27   25 1
    23   28   25 1
    24   29   28 1
    25   30   28 1
    26   31   28 1
    27   32    8 1
    28   33   11 1
    29   34   14 1
    30   35   34 1
    31   36   17 2
    32   37   36 1
    33   38    1 1
    34   39   37 2
    35   40   37 2
    36   41   24 1
    37   42   24 2
    38    6   38 1
    39   11   32 1
    40   14   33 1
    41   17   34 1
    42   18   33 1
    43   25   41 1
@<TRIPOS>SUBSTRUCTURE
     1 RES1 1

@<TRIPOS>CRYSIN
   8.7076    8.3211   10.6420  90.0000  92.3700  90.0000   4 1

