# MOL2 file generated by ConQuest
# Please check atom types

@<TRIPOS>MOLECULE
ICOXON
    73    76     1
SMALL
NO_CHARGES
****
Generated from CSD

@<TRIPOS>ATOM
      1 N1         1.7132    5.4681   -0.6207 N.2       1 RES1    0.0000
      2 N2         1.4601   -0.6861    0.9868 N.2       1 RES1    0.0000
      3 O1         1.5091    6.8610   -0.5812 O.3       1 RES1    0.0000
      4 O2         1.3874    7.2522    3.6786 O.3       1 RES1    0.0000
      5 O3         1.6403    4.9206    3.5615 O.3       1 RES1    0.0000
      6 O4         2.8293    3.1196    1.1223 O.2       1 RES1    0.0000
      7 O5         1.3584    0.5987    0.4299 O.3       1 RES1    0.0000
      8 O6        -1.3919    2.1812    3.3043 O.3       1 RES1    0.0000
      9 O7        -1.1739    0.0031    4.1502 O.3       1 RES1    0.0000
     10 O8         0.1988   -2.8256    2.6801 O.2       1 RES1    0.0000
     11 O9         1.4665   -1.6457    4.1142 O.3       1 RES1    0.0000
     12 C1         1.0578    8.6903    0.9311 C.3       1 RES1    0.0000
     13 H1         0.9291    8.8551    1.8785 H         1 RES1    0.0000
     14 H2         0.2692    8.9745    0.4437 H         1 RES1    0.0000
     15 H3         1.8282    9.1893    0.6177 H         1 RES1    0.0000
     16 C2         1.2826    7.2329    0.7054 C.2       1 RES1    0.0000
     17 C3         1.3179    6.1496    1.5154 C.2       1 RES1    0.0000
     18 C4         1.0140    6.0640    3.0045 C.3       1 RES1    0.0000
     19 C5        -0.4699    5.8998    3.2519 C.3       1 RES1    0.0000
     20 H4        -0.6353    5.8552    4.2060 H         1 RES1    0.0000
     21 H5        -0.7792    5.0828    2.8310 H         1 RES1    0.0000
     22 H6        -0.9455    6.6569    2.8762 H         1 RES1    0.0000
     23 C6         2.8121    7.4437    3.7637 C.3       1 RES1    0.0000
     24 H7         3.0003    8.2679    4.2591 H         1 RES1    0.0000
     25 H8         3.1821    7.5414    2.8615 H         1 RES1    0.0000
     26 C7         3.4797    6.2762    4.4561 C.3       1 RES1    0.0000
     27 C8         5.0004    6.4398    4.3880 C.3       1 RES1    0.0000
     28 H9         5.2728    6.5437    3.4633 H         1 RES1    0.0000
     29 H10        5.4267    5.6528    4.7639 H         1 RES1    0.0000
     30 H11        5.2642    7.2236    4.8941 H         1 RES1    0.0000
     31 C9         3.0183    6.1729    5.9186 C.3       1 RES1    0.0000
     32 H12        3.2197    7.0017    6.3807 H         1 RES1    0.0000
     33 H13        3.4831    5.4408    6.3528 H         1 RES1    0.0000
     34 H14        2.0628    6.0116    5.9463 H         1 RES1    0.0000
     35 C10        3.0751    5.0429    3.6682 C.3       1 RES1    0.0000
     36 H15        3.4629    5.0913    2.7699 H         1 RES1    0.0000
     37 H16        3.4348    4.2452    4.1090 H         1 RES1    0.0000
     38 C11        1.5979    5.0777    0.6232 C.2       1 RES1    0.0000
     39 C12        1.7518    3.6074    0.9056 C.2       1 RES1    0.0000
     40 C13        0.4898    2.8076    0.8497 C.3       1 RES1    0.0000
     41 H17       -0.1825    3.2357    1.4188 H         1 RES1    0.0000
     42 H18        0.1503    2.8140   -0.0691 H         1 RES1    0.0000
     43 C14        0.6646    1.3997    1.2876 C.2       1 RES1    0.0000
     44 C15        0.3001    0.6969    2.3877 C.2       1 RES1    0.0000
     45 C16       -0.4912    1.1310    3.6167 C.3       1 RES1    0.0000
     46 C17        0.4082    1.6559    4.7120 C.3       1 RES1    0.0000
     47 H19       -0.1269    1.8840    5.4879 H         1 RES1    0.0000
     48 H20        0.8743    2.4452    4.3973 H         1 RES1    0.0000
     49 H21        1.0543    0.9739    4.9539 H         1 RES1    0.0000
     50 C18       -2.4806    1.7878    2.4500 C.3       1 RES1    0.0000
     51 H22       -2.1266    1.5334    1.5729 H         1 RES1    0.0000
     52 H23       -3.0824    2.5505    2.3222 H         1 RES1    0.0000
     53 C19       -3.2666    0.6217    3.0297 C.3       1 RES1    0.0000
     54 C20       -3.9874    1.0404    4.3138 C.3       1 RES1    0.0000
     55 H24       -3.3430    1.3965    4.9446 H         1 RES1    0.0000
     56 H25       -4.4290    0.2692    4.7028 H         1 RES1    0.0000
     57 H26       -4.6474    1.7203    4.1077 H         1 RES1    0.0000
     58 C21       -4.2551    0.1064    1.9894 C.3       1 RES1    0.0000
     59 H27       -3.7717   -0.1797    1.1983 H         1 RES1    0.0000
     60 H28       -4.8745    0.8138    1.7523 H         1 RES1    0.0000
     61 H29       -4.7474   -0.6445    2.3554 H         1 RES1    0.0000
     62 C22       -2.2418   -0.4673    3.3119 C.3       1 RES1    0.0000
     63 H30       -2.6864   -1.2229    3.7490 H         1 RES1    0.0000
     64 H31       -1.8690   -0.7872    2.4643 H         1 RES1    0.0000
     65 C23        0.8438   -0.6001    2.1386 C.2       1 RES1    0.0000
     66 C24        0.7753   -1.8264    2.9935 C.2       1 RES1    0.0000
     67 C25        1.4007   -2.7312    5.0915 C.3       1 RES1    0.0000
     68 H32        1.7353   -3.5639    4.6962 H         1 RES1    0.0000
     69 H33        0.4739   -2.8729    5.3777 H         1 RES1    0.0000
     70 C26        2.2316   -2.3441    6.2372 C.3       1 RES1    0.0000
     71 H34        2.1857   -3.0323    6.9174 H         1 RES1    0.0000
     72 H35        1.9080   -1.5059    6.6025 H         1 RES1    0.0000
     73 H36        3.1509   -2.2367    5.9476 H         1 RES1    0.0000
@<TRIPOS>BOND
     1    1    3 1
     2    2    7 1
     3    3   16 1
     4    4   18 1
     5    5   18 1
     6    6   39 2
     7    7   43 1
     8    8   45 1
     9    9   45 1
    10   10   66 2
    11   11   66 1
    12   12   13 1
    13   14   12 1
    14   15   12 1
    15   16   12 1
    16   17   16 2
    17   18   17 1
    18   19   18 1
    19   20   19 1
    20   21   19 1
    21   22   19 1
    22   23    4 1
    23   24   23 1
    24   25   23 1
    25   26   23 1
    26   27   26 1
    27   28   27 1
    28   29   27 1
    29   30   27 1
    30   31   26 1
    31   32   31 1
    32   33   31 1
    33   34   31 1
    34   35    5 1
    35   36   35 1
    36   37   35 1
    37   38    1 2
    38   39   38 1
    39   40   39 1
    40   41   40 1
    41   42   40 1
    42   43   40 1
    43   44   43 2
    44   45   44 1
    45   46   45 1
    46   47   46 1
    47   48   46 1
    48   49   46 1
    49   50    8 1
    50   51   50 1
    51   52   50 1
    52   53   50 1
    53   54   53 1
    54   55   54 1
    55   56   54 1
    56   57   54 1
    57   58   53 1
    58   59   58 1
    59   60   58 1
    60   61   58 1
    61   62    9 1
    62   63   62 1
    63   64   62 1
    64   65    2 2
    65   66   65 1
    66   67   11 1
    67   68   67 1
    68   69   67 1
    69   70   67 1
    70   71   70 1
    71   72   70 1
    72   73   70 1
    73   17   38 1
    74   26   35 1
    75   44   65 1
    76   53   62 1
@<TRIPOS>SUBSTRUCTURE
     1 RES1 1

@<TRIPOS>CRYSIN
   8.8440   12.4510   13.8690 106.1420  91.1390 100.5410   2 1

