# MOL2 file generated by ConQuest
# Please check atom types

@<TRIPOS>MOLECULE
ICUXAI
    42    44     1
SMALL
NO_CHARGES
****
Generated from CSD

@<TRIPOS>ATOM
      1 C1         6.4299   13.2857    6.4713 C.ar      1 RES1    0.0000
      2 H1         6.9724   13.3356    5.7167 H         1 RES1    0.0000
      3 C2         5.0613   13.2990    6.3455 C.ar      1 RES1    0.0000
      4 H2         4.6780   13.3795    5.5024 H         1 RES1    0.0000
      5 C3         4.2531   13.1959    7.4503 C.ar      1 RES1    0.0000
      6 H3         3.3279   13.1998    7.3507 H         1 RES1    0.0000
      7 C4         4.8129   13.0857    8.7202 C.ar      1 RES1    0.0000
      8 C5         4.4050   12.5111   11.0857 C.3       1 RES1    0.0000
      9 H4         5.0732   11.8052   10.9575 H         1 RES1    0.0000
     10 C6         4.3001   15.8249   12.0933 C.ar      1 RES1    0.0000
     11 C7         3.7193   16.8531   12.8283 C.ar      1 RES1    0.0000
     12 H5         3.1893   16.6625   13.5676 H         1 RES1    0.0000
     13 C8         3.9404   18.1605   12.4463 C.ar      1 RES1    0.0000
     14 H6         3.5497   18.8492   12.9326 H         1 RES1    0.0000
     15 C9         4.7251   18.4655   11.3631 C.ar      1 RES1    0.0000
     16 H7         4.8566   19.3514   11.1108 H         1 RES1    0.0000
     17 C10        5.1051   16.1347   11.0131 C.ar      1 RES1    0.0000
     18 H8         5.5090   15.4545   10.5243 H         1 RES1    0.0000
     19 C11        5.3103   17.4483   10.6597 C.ar      1 RES1    0.0000
     20 H9         5.8547   17.6483    9.9320 H         1 RES1    0.0000
     21 C12        3.2835   13.8911   13.3592 C.2       1 RES1    0.0000
     22 C13        3.2924   12.3719   13.3771 C.3       1 RES1    0.0000
     23 C14        2.0159   11.8687   14.0511 C.3       1 RES1    0.0000
     24 H10        2.0127   12.1376   14.9723 H         1 RES1    0.0000
     25 H11        1.9826   10.9112   13.9974 H         1 RES1    0.0000
     26 H12        1.2508   12.2408   13.6067 H         1 RES1    0.0000
     27 C15        3.2814   11.9236   11.9095 C.3       1 RES1    0.0000
     28 H13        3.3434   10.9565   11.8771 H         1 RES1    0.0000
     29 H14        2.4345   12.1786   11.5106 H         1 RES1    0.0000
     30 C16        4.5163   11.8526   14.1428 C.3       1 RES1    0.0000
     31 H15        5.3149   12.2224   13.7588 H         1 RES1    0.0000
     32 H16        4.5464   10.8942   14.0850 H         1 RES1    0.0000
     33 H17        4.4528   12.1164   15.0633 H         1 RES1    0.0000
     34 C17        6.1908   13.1155    8.8437 C.ar      1 RES1    0.0000
     35 H18        6.5815   13.0796    9.6865 H         1 RES1    0.0000
     36 C18        6.9879   13.1987    7.7213 C.ar      1 RES1    0.0000
     37 H19        7.9140   13.1956    7.8128 H         1 RES1    0.0000
     38 N1         3.9730   12.9138    9.8125 N.3       1 RES1    0.0000
     39 H20        3.1334   13.0640    9.7015 H         1 RES1    0.0000
     40 N2         4.0971   14.4555   12.4268 N.am      1 RES1    0.0000
     41 O1         5.0481   13.5909   11.8554 O.3       1 RES1    0.0000
     42 O2         2.5517   14.5726   14.0672 O.2       1 RES1    0.0000
@<TRIPOS>BOND
     1    1    2 1
     2    3    1 ar
     3    4    3 1
     4    5    3 ar
     5    6    5 1
     6    7    5 ar
     7    8    9 1
     8   10   11 ar
     9   11   12 1
    10   13   11 ar
    11   14   13 1
    12   15   13 ar
    13   16   15 1
    14   17   10 ar
    15   18   17 1
    16   19   15 ar
    17   20   19 1
    18   21   22 1
    19   22   23 1
    20   23   24 1
    21   25   23 1
    22   26   23 1
    23   27    8 1
    24   28   27 1
    25   29   27 1
    26   30   22 1
    27   31   30 1
    28   32   30 1
    29   33   30 1
    30   34    7 ar
    31   35   34 1
    32   36    1 ar
    33   37   36 1
    34   38    7 1
    35   39   38 1
    36   40   10 1
    37   41    8 1
    38   42   21 2
    39    8   38 1
    40   17   19 ar
    41   21   40 1
    42   22   27 1
    43   34   36 ar
    44   40   41 1
@<TRIPOS>SUBSTRUCTURE
     1 RES1 1

@<TRIPOS>CRYSIN
   9.5996   14.1447   11.8912  90.0000 104.2890  90.0000  14 1

