# MOL2 file generated by ConQuest
# Please check atom types

@<TRIPOS>MOLECULE
IDALOO
    57    60     1
SMALL
NO_CHARGES
****
Generated from CSD

@<TRIPOS>ATOM
      1 N1        12.0741    1.3173    9.9658 N.pl3     1 RES1    0.0000
      2 C1        11.8996    0.8387    8.6317 C.2       1 RES1    0.0000
      3 C2        10.8383    1.1871    7.9195 C.2       1 RES1    0.0000
      4 H1        10.7509    0.7610    7.0164 H         1 RES1    0.0000
      5 C3         9.8248    2.1357    8.4782 C.3       1 RES1    0.0000
      6 H2        10.3363    2.8409    8.9022 H         1 RES1    0.0000
      7 C4         8.9807    1.4120    9.5781 C.3       1 RES1    0.0000
      8 H3         8.2973    2.1138    9.9096 H         1 RES1    0.0000
      9 C5         9.7783    0.9757   10.7846 C.2       1 RES1    0.0000
     10 C6        11.0998    0.9960   10.9310 C.2       1 RES1    0.0000
     11 H4        11.4656    0.7440   11.8306 H         1 RES1    0.0000
     12 O1        17.7165    4.0209   10.6042 O.2       1 RES1    0.0000
     13 C7        13.2391    1.9886   10.3207 C.ar      1 RES1    0.0000
     14 N2        16.7905    3.9891   11.4148 N.pl3     1 RES1    0.0000
     15 C8        13.4665    2.3860   11.6502 C.ar      1 RES1    0.0000
     16 H5        12.8030    2.2321   12.2640 H         1 RES1    0.0000
     17 O2        16.8696    4.5031   12.5287 O.2       1 RES1    0.0000
     18 C9        14.6085    3.0523   11.9946 C.ar      1 RES1    0.0000
     19 H6        14.8057    3.3144   12.8614 H         1 RES1    0.0000
     20 C10       15.5560    3.3161   11.0423 C.ar      1 RES1    0.0000
     21 C11       15.3562    2.9795    9.7011 C.ar      1 RES1    0.0000
     22 H7        16.0369    3.2636    9.0545 H         1 RES1    0.0000
     23 C12       14.1888    2.3336    9.3591 C.ar      1 RES1    0.0000
     24 H8        14.0676    2.1983    8.3634 H         1 RES1    0.0000
     25 O3        12.8654   -0.3974    6.8922 O.3       1 RES1    0.0000
     26 C13       12.8548   -0.2317    8.2088 C.2       1 RES1    0.0000
     27 C14       13.6790   -1.5016    6.3885 C.3       1 RES1    0.0000
     28 H9        14.6142   -1.2344    6.2316 H         1 RES1    0.0000
     29 H10       13.3195   -1.7079    5.3648 H         1 RES1    0.0000
     30 H11       13.5378   -2.1645    6.9110 H         1 RES1    0.0000
     31 O4        13.5240   -0.8724    8.9842 O.2       1 RES1    0.0000
     32 C15        8.8871    2.8054    7.4873 C.ar      1 RES1    0.0000
     33 C16        8.1990    3.9400    7.9230 C.ar      1 RES1    0.0000
     34 H12        8.3981    4.2782    8.8437 H         1 RES1    0.0000
     35 C17        7.2139    4.5184    7.1405 C.ar      1 RES1    0.0000
     36 H13        6.7024    5.2759    7.5083 H         1 RES1    0.0000
     37 C18        6.9345    4.0144    5.8977 C.ar      1 RES1    0.0000
     38 H14        6.2263    4.3966    5.3413 H         1 RES1    0.0000
     39 C19        7.6342    2.9220    5.4421 C.ar      1 RES1    0.0000
     40 H15        7.3778    2.5534    4.6385 H         1 RES1    0.0000
     41 C20        8.6023    2.3082    6.2222 C.ar      1 RES1    0.0000
     42 H16        9.1555    1.4881    5.8685 H         1 RES1    0.0000
     43 C21        8.1154    0.2993    9.0346 C.ar      1 RES1    0.0000
     44 C22        8.5672   -1.0028    8.9596 C.ar      1 RES1    0.0000
     45 H17        9.5338   -1.1668    9.3122 H         1 RES1    0.0000
     46 C23        7.7351   -2.0241    8.4981 C.ar      1 RES1    0.0000
     47 H18        8.0750   -2.8409    8.4688 H         1 RES1    0.0000
     48 C24        6.4646   -1.7383    8.0800 C.ar      1 RES1    0.0000
     49 H19        5.7578   -2.4181    7.6606 H         1 RES1    0.0000
     50 C25        5.9938   -0.4430    8.1362 C.ar      1 RES1    0.0000
     51 H20        5.0038   -0.1860    7.8715 H         1 RES1    0.0000
     52 C26        6.8220    0.5682    8.5930 C.ar      1 RES1    0.0000
     53 H21        6.5196    1.4881    8.5860 H         1 RES1    0.0000
     54 C27        8.9389    0.5225   11.9524 C.3       1 RES1    0.0000
     55 H22        8.1752    1.2344   12.1937 H         1 RES1    0.0000
     56 H23        9.4418    0.3044   12.7325 H         1 RES1    0.0000
     57 H24        8.3558   -0.2367   11.7486 H         1 RES1    0.0000
@<TRIPOS>BOND
     1    1    2 1
     2    2    3 2
     3    3    4 1
     4    5    3 1
     5    6    5 1
     6    7    5 1
     7    8    7 1
     8    9    7 1
     9   10    1 1
    10   11   10 1
    11   12   14 2
    12   13    1 1
    13   14   17 2
    14   15   13 ar
    15   16   15 1
    16   18   15 ar
    17   19   18 1
    18   20   14 1
    19   21   20 ar
    20   22   21 1
    21   23   13 ar
    22   24   23 1
    23   25   26 1
    24   26    2 1
    25   27   25 1
    26   28   27 1
    27   29   27 1
    28   30   27 1
    29   31   26 2
    30   32    5 1
    31   33   32 ar
    32   34   33 1
    33   35   33 ar
    34   36   35 1
    35   37   35 ar
    36   38   37 1
    37   39   37 ar
    38   40   39 1
    39   41   32 ar
    40   42   41 1
    41   43    7 1
    42   44   43 ar
    43   45   44 1
    44   46   44 ar
    45   47   46 1
    46   48   46 ar
    47   49   48 1
    48   50   48 ar
    49   51   50 1
    50   52   43 ar
    51   53   52 1
    52   54    9 1
    53   55   54 1
    54   56   54 1
    55   57   54 1
    56    9   10 2
    57   18   20 ar
    58   21   23 ar
    59   39   41 ar
    60   50   52 ar
@<TRIPOS>SUBSTRUCTURE
     1 RES1 1

@<TRIPOS>CRYSIN
  11.1310   16.9100   12.4320  90.0000 109.5750  90.0000 231 1

