# MOL2 file generated by ConQuest
# Please check atom types

@<TRIPOS>MOLECULE
IDEFOM
    58    61     1
SMALL
NO_CHARGES
****
Generated from CSD

@<TRIPOS>ATOM
      1 O1        -1.4570    1.2338    4.3764 O.3       1 RES1    0.0000
      2 O2        -0.8020    3.3005    3.7413 O.2       1 RES1    0.0000
      3 O3         2.1297    5.5912    6.9970 O.2       1 RES1    0.0000
      4 O4         1.9989    5.1090    9.0802 O.2       1 RES1    0.0000
      5 O5        -0.4862    1.1157   10.4127 O.2       1 RES1    0.0000
      6 O6        -1.0831   -0.2375    8.8685 O.2       1 RES1    0.0000
      7 N1         1.7323    4.8978    7.9061 N.pl3     1 RES1    0.0000
      8 N2        -0.6260    0.8231    9.2439 N.pl3     1 RES1    0.0000
      9 C1        -6.2143    0.3342    1.9303 C.3       1 RES1    0.0000
     10 C2        -5.1259   -0.5655    1.4037 C.3       1 RES1    0.0000
     11 C3        -3.7180   -0.0208    1.6972 C.3       1 RES1    0.0000
     12 C4        -3.4130    0.5245    3.1044 C.3       1 RES1    0.0000
     13 C5        -3.7158   -0.4865    4.2395 C.3       1 RES1    0.0000
     14 C6        -4.6349    0.2387    5.2073 C.3       1 RES1    0.0000
     15 C7        -5.4178    1.2203    4.3195 C.3       1 RES1    0.0000
     16 C8        -6.3933    0.3911    3.4496 C.3       1 RES1    0.0000
     17 C9        -7.8758    0.7173    3.1827 C.3       1 RES1    0.0000
     18 C10       -7.7337    0.0477    1.7986 C.3       1 RES1    0.0000
     19 C11       -4.2667    1.7509    3.4816 C.3       1 RES1    0.0000
     20 C12       -1.9281    0.8782    3.0546 C.3       1 RES1    0.0000
     21 C13       -6.1214    2.3048    5.1236 C.3       1 RES1    0.0000
     22 C14       -8.4396    0.7277    0.6351 C.3       1 RES1    0.0000
     23 C15       -8.0818   -1.4468    1.8040 C.3       1 RES1    0.0000
     24 C16       -0.9069    2.4382    4.5721 C.2       1 RES1    0.0000
     25 C17       -0.4119    2.5588    5.9687 C.ar      1 RES1    0.0000
     26 C18        0.3981    3.6383    6.3049 C.ar      1 RES1    0.0000
     27 C19        0.8606    3.7540    7.5876 C.ar      1 RES1    0.0000
     28 C20        0.5454    2.8740    8.5768 C.ar      1 RES1    0.0000
     29 C21       -0.2457    1.8048    8.2138 C.ar      1 RES1    0.0000
     30 C22       -0.7261    1.6206    6.9365 C.ar      1 RES1    0.0000
     31 H1        -6.0441    1.2436    1.6065 H         1 RES1    0.0000
     32 H2        -5.2339   -0.6665    0.4448 H         1 RES1    0.0000
     33 H3        -5.2168   -1.4431    1.8075 H         1 RES1    0.0000
     34 H4        -3.5394    0.6897    1.0603 H         1 RES1    0.0000
     35 H5        -3.0837   -0.7320    1.5140 H         1 RES1    0.0000
     36 H6        -4.1519   -1.2772    3.8837 H         1 RES1    0.0000
     37 H7        -2.8972   -0.7558    4.6824 H         1 RES1    0.0000
     38 H8        -4.1224    0.7136    5.8815 H         1 RES1    0.0000
     39 H9        -5.2346   -0.3831    5.6485 H         1 RES1    0.0000
     40 H10       -6.3566   -0.5312    3.7787 H         1 RES1    0.0000
     41 H11       -8.0683    1.6677    3.1400 H         1 RES1    0.0000
     42 H12       -8.4921    0.2625    3.7769 H         1 RES1    0.0000
     43 H13       -3.7407    2.3874    3.9904 H         1 RES1    0.0000
     44 H14       -4.6005    2.1916    2.6846 H         1 RES1    0.0000
     45 H15       -1.4227    0.1200    2.7219 H         1 RES1    0.0000
     46 H16       -1.7901    1.6224    2.4497 H         1 RES1    0.0000
     47 H17       -6.8420    1.9149    5.6236 H         1 RES1    0.0000
     48 H18       -6.4700    2.9713    4.5277 H         1 RES1    0.0000
     49 H19       -5.4963    2.7118    5.7285 H         1 RES1    0.0000
     50 H20       -8.2238    1.6628    0.6316 H         1 RES1    0.0000
     51 H21       -9.3895    0.6193    0.7294 H         1 RES1    0.0000
     52 H22       -8.1532    0.3293   -0.1904 H         1 RES1    0.0000
     53 H23       -7.6427   -1.8752    2.5423 H         1 RES1    0.0000
     54 H24       -7.7894   -1.8470    0.9820 H         1 RES1    0.0000
     55 H25       -9.0320   -1.5533    1.8911 H         1 RES1    0.0000
     56 H26        0.6230    4.2748    5.6663 H         1 RES1    0.0000
     57 H27        0.8459    2.9878    9.4503 H         1 RES1    0.0000
     58 H28       -1.2499    0.8813    6.7283 H         1 RES1    0.0000
@<TRIPOS>BOND
     1    1   20 1
     2    2   24 2
     3    3    7 2
     4    4    7 2
     5    5    8 2
     6    6    8 2
     7    7   27 1
     8    8   29 1
     9    9   10 1
    10   10   11 1
    11   11   12 1
    12   12   13 1
    13   13   14 1
    14   14   15 1
    15   15   16 1
    16   16    9 1
    17   17   16 1
    18   18    9 1
    19   19   12 1
    20   20   12 1
    21   21   15 1
    22   22   18 1
    23   23   18 1
    24   24    1 1
    25   25   24 1
    26   26   25 ar
    27   27   26 ar
    28   28   27 ar
    29   29   28 ar
    30   30   25 ar
    31   31    9 1
    32   32   10 1
    33   33   10 1
    34   34   11 1
    35   35   11 1
    36   36   13 1
    37   37   13 1
    38   38   14 1
    39   39   14 1
    40   40   16 1
    41   41   17 1
    42   42   17 1
    43   43   19 1
    44   44   19 1
    45   45   20 1
    46   46   20 1
    47   47   21 1
    48   48   21 1
    49   49   21 1
    50   50   22 1
    51   51   22 1
    52   52   22 1
    53   53   23 1
    54   54   23 1
    55   55   23 1
    56   56   26 1
    57   57   28 1
    58   58   30 1
    59   15   19 1
    60   17   18 1
    61   29   30 ar
@<TRIPOS>SUBSTRUCTURE
     1 RES1 1

@<TRIPOS>CRYSIN
   9.7710    6.1200   18.2540  90.0000 102.9400  90.0000   4 1

