# MOL2 file generated by ConQuest
# Please check atom types

@<TRIPOS>MOLECULE
IDEFEC
    57    59     1
SMALL
NO_CHARGES
****
Generated from CSD

@<TRIPOS>ATOM
      1 C1         7.1233    0.5734   12.8206 C.3       1 RES1    0.0000
      2 C2         6.3547    1.8969   12.6990 C.3       1 RES1    0.0000
      3 C3         4.9189    1.7069   13.1702 C.3       1 RES1    0.0000
      4 C4         4.8713    1.2094   14.6170 C.3       1 RES1    0.0000
      5 C5         5.6215   -0.0995   14.8115 C.3       1 RES1    0.0000
      6 C6         7.0428    0.0134   14.2401 C.3       1 RES1    0.0000
      7 C7         4.8453   -1.3000   14.2826 C.3       1 RES1    0.0000
      8 C8         6.5075    2.6715   11.3313 C.3       1 RES1    0.0000
      9 C9         7.9757    2.7911   10.9574 C.3       1 RES1    0.0000
     10 C10        5.7807    1.9662   10.1702 C.3       1 RES1    0.0000
     11 C11        5.9126    4.0665   11.5744 C.ar      1 RES1    0.0000
     12 C12        6.5291    4.9574   12.4528 C.ar      1 RES1    0.0000
     13 C13        5.9551    6.1668   12.7750 C.ar      1 RES1    0.0000
     14 C14        4.7470    6.5391   12.2401 C.ar      1 RES1    0.0000
     15 C15        4.1369    5.7041   11.3434 C.ar      1 RES1    0.0000
     16 C16        4.7204    4.4823   11.0091 C.ar      1 RES1    0.0000
     17 O1         6.4986   -0.3532   11.8753 O.3       1 RES1    0.0000
     18 C17        7.2102   -1.4073   11.4559 C.2       1 RES1    0.0000
     19 O2         8.3029   -1.6990   11.8419 O.2       1 RES1    0.0000
     20 C18        6.4346   -2.1775   10.4376 C.ar      1 RES1    0.0000
     21 C19        7.0028   -3.3489    9.9392 C.ar      1 RES1    0.0000
     22 C20        6.3154   -4.0609    8.9878 C.ar      1 RES1    0.0000
     23 C21        5.1078   -3.6753    8.4832 C.ar      1 RES1    0.0000
     24 C22        4.5815   -2.4927    8.9696 C.ar      1 RES1    0.0000
     25 C23        5.2201   -1.7538    9.9513 C.ar      1 RES1    0.0000
     26 N1         3.3276   -1.9796    8.4103 N.pl3     1 RES1    0.0000
     27 O3         2.8856   -0.9211    8.8419 O.2       1 RES1    0.0000
     28 O4         2.7829   -2.6324    7.5197 O.2       1 RES1    0.0000
     29 N2         6.9229   -5.3073    8.4832 N.pl3     1 RES1    0.0000
     30 O5         8.0493   -5.5834    8.8267 O.2       1 RES1    0.0000
     31 O6         6.2431   -6.0037    7.7568 O.2       1 RES1    0.0000
     32 H1         8.0613    0.7132   12.5744 H         1 RES1    0.0000
     33 H2         6.7618    2.4860   13.3677 H         1 RES1    0.0000
     34 H3         4.4736    1.0664   12.5926 H         1 RES1    0.0000
     35 H4         4.4438    2.5508   13.1033 H         1 RES1    0.0000
     36 H5         5.2562    1.8846   15.1975 H         1 RES1    0.0000
     37 H6         3.9454    1.0854   14.8784 H         1 RES1    0.0000
     38 H7         5.7154   -0.2280   15.7780 H         1 RES1    0.0000
     39 H8         7.5666    0.5824   14.8267 H         1 RES1    0.0000
     40 H9         7.4493   -0.8674   14.2492 H         1 RES1    0.0000
     41 H10        4.0139   -1.3782   14.7568 H         1 RES1    0.0000
     42 H11        5.3634   -2.0981   14.4103 H         1 RES1    0.0000
     43 H12        4.6696   -1.1793   13.3464 H         1 RES1    0.0000
     44 H13        8.0664    3.3668   10.1945 H         1 RES1    0.0000
     45 H14        8.3239    1.9215   10.7446 H         1 RES1    0.0000
     46 H15        8.4653    3.1600   11.6960 H         1 RES1    0.0000
     47 H16        4.8688    1.7985   10.4164 H         1 RES1    0.0000
     48 H17        6.2183    1.1346    9.9756 H         1 RES1    0.0000
     49 H18        5.8023    2.5273    9.3890 H         1 RES1    0.0000
     50 H19        7.3491    4.7294   12.8267 H         1 RES1    0.0000
     51 H20        6.3908    6.7380   13.3647 H         1 RES1    0.0000
     52 H21        4.3500    7.3450   12.4802 H         1 RES1    0.0000
     53 H22        3.3283    5.9533   10.9574 H         1 RES1    0.0000
     54 H23        4.2980    3.9335   10.3860 H         1 RES1    0.0000
     55 H24        7.8311   -3.6418   10.2431 H         1 RES1    0.0000
     56 H25        4.6614   -4.1828    7.8449 H         1 RES1    0.0000
     57 H26        4.8301   -0.9758   10.2796 H         1 RES1    0.0000
@<TRIPOS>BOND
     1    1    2 1
     2    2    3 1
     3    3    4 1
     4    4    5 1
     5    5    6 1
     6    6    1 1
     7    7    5 1
     8    8    2 1
     9    9    8 1
    10   10    8 1
    11   11    8 1
    12   12   11 ar
    13   13   12 ar
    14   14   13 ar
    15   15   14 ar
    16   16   11 ar
    17   17    1 1
    18   18   17 1
    19   19   18 2
    20   20   18 1
    21   21   20 ar
    22   22   21 ar
    23   23   22 ar
    24   24   23 ar
    25   25   20 ar
    26   26   24 1
    27   27   26 2
    28   28   26 2
    29   29   22 1
    30   30   29 2
    31   31   29 2
    32   32    1 1
    33   33    2 1
    34   34    3 1
    35   35    3 1
    36   36    4 1
    37   37    4 1
    38   38    5 1
    39   39    6 1
    40   40    6 1
    41   41    7 1
    42   42    7 1
    43   43    7 1
    44   44    9 1
    45   45    9 1
    46   46    9 1
    47   47   10 1
    48   48   10 1
    49   49   10 1
    50   50   12 1
    51   51   13 1
    52   52   14 1
    53   53   15 1
    54   54   16 1
    55   55   21 1
    56   56   23 1
    57   57   25 1
    58   15   16 ar
    59   24   25 ar
@<TRIPOS>SUBSTRUCTURE
     1 RES1 1

@<TRIPOS>CRYSIN
   6.3420   11.1779   30.3950  90.0000  90.0000  90.0000  19 1

