# MOL2 file generated by ConQuest
# Please check atom types

@<TRIPOS>MOLECULE
IDEFOP
    34    36     1
SMALL
NO_CHARGES
****
Generated from CSD

@<TRIPOS>ATOM
      1 O1         3.6371    7.5582    5.5092 O.3       1 RES1    0.0000
      2 C1         4.6844    8.1125    3.3922 C.ar      1 RES1    0.0000
      3 C2         5.6655    8.8502    2.7370 C.ar      1 RES1    0.0000
      4 H1         5.7352    8.8033    1.8103 H         1 RES1    0.0000
      5 C3         3.7350    7.2495    2.5829 C.3       1 RES1    0.0000
      6 N1         3.0640    8.1448    1.6159 N.3       1 RES1    0.0000
      7 O2         7.5028   10.4395    2.8956 O.3       1 RES1    0.0000
      8 C4         4.5952    8.1962    4.7678 C.ar      1 RES1    0.0000
      9 C5         6.5359    9.6486    3.4476 C.ar      1 RES1    0.0000
     10 C6         5.4860    8.9901    5.4750 C.ar      1 RES1    0.0000
     11 H2         5.4297    9.0328    6.4021 H         1 RES1    0.0000
     12 C7         6.4414    9.7083    4.8212 C.ar      1 RES1    0.0000
     13 H3         7.0323   10.2398    5.3036 H         1 RES1    0.0000
     14 C8         4.5049    6.1396    1.8843 C.3       1 RES1    0.0000
     15 H4         3.8873    5.5356    1.4655 H         1 RES1    0.0000
     16 H5         5.0327    5.6615    2.5286 H         1 RES1    0.0000
     17 H6         5.0814    6.5206    1.2178 H         1 RES1    0.0000
     18 C9         2.5935    6.7287    3.4686 C.3       1 RES1    0.0000
     19 H7         2.2282    5.9123    3.0687 H         1 RES1    0.0000
     20 C10        2.3439    7.4533    0.5541 C.3       1 RES1    0.0000
     21 H8         1.8142    6.7490    0.9333 H         1 RES1    0.0000
     22 H9         2.9732    7.0819   -0.0695 H         1 RES1    0.0000
     23 H10        1.7720    8.0755    0.0983 H         1 RES1    0.0000
     24 C11        7.6430   10.4447    1.5048 C.3       1 RES1    0.0000
     25 H11        7.8508    9.5589    1.2007 H         1 RES1    0.0000
     26 H12        8.3523   11.0434    1.2571 H         1 RES1    0.0000
     27 H13        6.8227   10.7382    1.1011 H         1 RES1    0.0000
     28 O3         2.0754    8.7966    2.4409 O.3       1 RES1    0.0000
     29 C12        3.0515    6.4213    4.8718 C.3       1 RES1    0.0000
     30 H14        2.2938    6.1183    5.3954 H         1 RES1    0.0000
     31 H15        3.7012    5.7020    4.8448 H         1 RES1    0.0000
     32 C13        1.5602    7.8290    3.3641 C.3       1 RES1    0.0000
     33 H16        0.7178    7.4715    3.0424 H         1 RES1    0.0000
     34 H17        1.4131    8.2366    4.2314 H         1 RES1    0.0000
@<TRIPOS>BOND
     1    1    8 1
     2    2    3 ar
     3    3    4 1
     4    5    2 1
     5    6    5 1
     6    7    9 1
     7    8    2 ar
     8    9    3 ar
     9   10    8 ar
    10   11   10 1
    11   12    9 ar
    12   13   12 1
    13   14    5 1
    14   15   14 1
    15   16   14 1
    16   17   14 1
    17   18    5 1
    18   19   18 1
    19   20    6 1
    20   21   20 1
    21   22   20 1
    22   23   20 1
    23   24    7 1
    24   25   24 1
    25   26   24 1
    26   27   24 1
    27   28    6 1
    28   29    1 1
    29   30   29 1
    30   31   29 1
    31   32   18 1
    32   33   32 1
    33   34   32 1
    34   10   12 ar
    35   18   29 1
    36   28   32 1
@<TRIPOS>SUBSTRUCTURE
     1 RES1 1

@<TRIPOS>CRYSIN
   8.4303   10.6720   13.6885  90.0000 106.7410  90.0000  14 1

