# MOL2 file generated by ConQuest
# Please check atom types

@<TRIPOS>MOLECULE
IDEYAR01
    51    52     1
SMALL
NO_CHARGES
****
Generated from CSD

@<TRIPOS>ATOM
      1 O1         7.8458    4.7459    0.0348 O.2       1 RES1    0.0000
      2 O2         7.3191    2.7041   -0.6233 O.2       1 RES1    0.0000
      3 N1         9.0938    5.8545   -3.5742 N.3       1 RES1    0.0000
      4 N2         8.7725    3.2471   -4.3088 N.2       1 RES1    0.0000
      5 N3         7.7920    3.8482   -0.8480 N.pl3     1 RES1    0.0000
      6 C1         8.2851    4.1277   -2.1461 C.2       1 RES1    0.0000
      7 C2         8.6523    5.4749   -2.4033 C.2       1 RES1    0.0000
      8 C3         8.3524    3.0462   -3.1105 C.2       1 RES1    0.0000
      9 C4         9.3903    7.2301   -3.9025 C.ar      1 RES1    0.0000
     10 C5        10.2426    8.0323   -3.0765 C.ar      1 RES1    0.0000
     11 C6        10.4796    9.3616   -3.4857 C.ar      1 RES1    0.0000
     12 C7         9.9184    9.8938   -4.6598 C.ar      1 RES1    0.0000
     13 C8         9.0886    9.0653   -5.4563 C.ar      1 RES1    0.0000
     14 C9         8.8076    7.7319   -5.0803 C.ar      1 RES1    0.0000
     15 C10       10.9059    7.5283   -1.8041 C.3       1 RES1    0.0000
     16 C11       10.1994   11.3401   -5.0713 C.3       1 RES1    0.0000
     17 C12        7.8636    6.8670   -5.9314 C.3       1 RES1    0.0000
     18 C13        8.8938    2.0913   -5.1870 C.ar      1 RES1    0.0000
     19 C14        7.7635    1.3768   -5.6605 C.ar      1 RES1    0.0000
     20 C15        7.9551    0.2524   -6.4874 C.ar      1 RES1    0.0000
     21 C16        9.2316   -0.1622   -6.8648 C.ar      1 RES1    0.0000
     22 C17       10.3242    0.6079   -6.4374 C.ar      1 RES1    0.0000
     23 C18       10.1832    1.7413   -5.6000 C.ar      1 RES1    0.0000
     24 C19        6.3668    1.8435   -5.3201 C.3       1 RES1    0.0000
     25 C20        9.4389   -1.4133   -7.7295 C.3       1 RES1    0.0000
     26 C21       11.3837    2.5370   -5.1144 C.3       1 RES1    0.0000
     27 H1         8.5878    6.1145   -1.7035 H         1 RES1    0.0000
     28 H2         8.0869    2.1723   -2.8488 H         1 RES1    0.0000
     29 H3        11.0325    9.9158   -2.9479 H         1 RES1    0.0000
     30 H4         8.7194    9.4101   -6.2604 H         1 RES1    0.0000
     31 H5        10.6617    6.6234   -1.6476 H         1 RES1    0.0000
     32 H6        11.8503    7.5909   -1.8957 H         1 RES1    0.0000
     33 H7        10.6235    8.0643   -1.0727 H         1 RES1    0.0000
     34 H8        11.1337   11.4520   -5.1931 H         1 RES1    0.0000
     35 H9         9.7473   11.5335   -5.8845 H         1 RES1    0.0000
     36 H10        9.8946   11.9285   -4.3912 H         1 RES1    0.0000
     37 H11        7.0071    7.2766   -5.9730 H         1 RES1    0.0000
     38 H12        8.2169    6.7834   -6.8096 H         1 RES1    0.0000
     39 H13        7.7841    6.0057   -5.5388 H         1 RES1    0.0000
     40 H14        7.1991   -0.2336   -6.7983 H         1 RES1    0.0000
     41 H15       11.1951    0.3628   -6.7264 H         1 RES1    0.0000
     42 H16        6.4106    2.6081   -4.7573 H         1 RES1    0.0000
     43 H17        5.9131    2.0676   -6.1243 H         1 RES1    0.0000
     44 H18        5.8958    1.1494   -4.8738 H         1 RES1    0.0000
     45 H19        9.0772   -2.1709   -7.2847 H         1 RES1    0.0000
     46 H20        8.9989   -1.2964   -8.5631 H         1 RES1    0.0000
     47 H21       10.3683   -1.5470   -7.8777 H         1 RES1    0.0000
     48 H22       11.4226    2.4887   -4.1658 H         1 RES1    0.0000
     49 H23       12.1808    2.1744   -5.4828 H         1 RES1    0.0000
     50 H24       11.2938    3.4434   -5.3822 H         1 RES1    0.0000
     51 H25        9.2008    5.1904   -4.1484 H         1 RES1    0.0000
@<TRIPOS>BOND
     1    1    5 2
     2    2    5 2
     3    3    7 1
     4    4    8 2
     5    5    6 1
     6    6    7 2
     7    7   27 1
     8    8    6 1
     9    9    3 1
    10   10    9 ar
    11   11   10 ar
    12   12   11 ar
    13   13   12 ar
    14   14    9 ar
    15   15   10 1
    16   16   12 1
    17   17   14 1
    18   18    4 1
    19   19   18 ar
    20   20   19 ar
    21   21   20 ar
    22   22   21 ar
    23   23   18 ar
    24   24   19 1
    25   25   21 1
    26   26   23 1
    27   28    8 1
    28   29   11 1
    29   30   13 1
    30   31   15 1
    31   32   15 1
    32   33   15 1
    33   34   16 1
    34   35   16 1
    35   36   16 1
    36   37   17 1
    37   38   17 1
    38   39   17 1
    39   40   20 1
    40   41   22 1
    41   42   24 1
    42   43   24 1
    43   44   24 1
    44   45   25 1
    45   46   25 1
    46   47   25 1
    47   48   26 1
    48   49   26 1
    49   50   26 1
    50   51    3 1
    51   13   14 ar
    52   22   23 ar
@<TRIPOS>SUBSTRUCTURE
     1 RES1 1

@<TRIPOS>CRYSIN
   8.9540   14.5360    8.2200 105.5500 109.6100  77.7000   2 1

