# MOL2 file generated by ConQuest
# Please check atom types

@<TRIPOS>MOLECULE
IDIBOO
    64    70     1
SMALL
NO_CHARGES
****
Generated from CSD

@<TRIPOS>ATOM
      1 C1        -3.5768    5.7346    2.8746 C.ar      1 RES1    0.0000
      2 C2         5.0917    6.2317    5.4772 C.ar      1 RES1    0.0000
      3 C3         0.0217    5.7568    2.5554 C.ar      1 RES1    0.0000
      4 C4        -1.1241    6.2588    3.1676 C.ar      1 RES1    0.0000
      5 C5         9.3141    6.6499    8.7111 C.2       1 RES1    0.0000
      6 N1        -2.3598    6.2736    2.4471 N.pl3     1 RES1    0.0000
      7 C6         1.2321    5.7921    3.2201 C.ar      1 RES1    0.0000
      8 C7        -4.5311    5.9186    1.8463 C.ar      1 RES1    0.0000
      9 C8         7.4990    6.0263    5.4793 C.ar      1 RES1    0.0000
     10 C9         0.1739    6.7740    5.1157 C.ar      1 RES1    0.0000
     11 O1         9.6201    7.6557   10.7384 O.3       1 RES1    0.0000
     12 C10       10.6930    6.5653    9.1677 C.2       1 RES1    0.0000
     13 C11        1.3363    6.3229    4.5126 C.ar      1 RES1    0.0000
     14 C12       13.0184    6.7436    8.3164 C.ar      1 RES1    0.0000
     15 C13       -2.5342    6.8159    1.1752 C.ar      1 RES1    0.0000
     16 C14       -3.8728    6.6212    0.7708 C.ar      1 RES1    0.0000
     17 C15        7.5568    6.2679    6.8565 C.ar      1 RES1    0.0000
     18 C16        2.6135    6.4141    5.2384 C.2       1 RES1    0.0000
     19 C17       -5.8243    5.4240    2.0246 C.ar      1 RES1    0.0000
     20 C18       11.8764    4.6549    8.0451 C.ar      1 RES1    0.0000
     21 C19        6.3565    6.4963    7.5319 C.ar      1 RES1    0.0000
     22 C20        3.8236    6.1692    4.7392 C.2       1 RES1    0.0000
     23 C21        8.8660    6.2457    7.4936 C.2       1 RES1    0.0000
     24 C22       -1.0478    6.7510    4.4414 C.ar      1 RES1    0.0000
     25 C23       -6.1412    4.7748    3.1901 C.ar      1 RES1    0.0000
     26 C24        8.6466    7.3837    9.7794 C.2       1 RES1    0.0000
     27 C25       13.0220    4.1134    7.4811 C.ar      1 RES1    0.0000
     28 C26       -3.8876    5.0805    4.0362 C.ar      1 RES1    0.0000
     29 C27        6.2931    6.0213    4.7972 C.ar      1 RES1    0.0000
     30 C28       -5.1862    4.6006    4.1934 C.ar      1 RES1    0.0000
     31 N2        10.8807    7.1257   10.3118 N.2       1 RES1    0.0000
     32 C29       14.1560    4.8841    7.3276 C.ar      1 RES1    0.0000
     33 C30       11.8671    5.9753    8.4842 C.ar      1 RES1    0.0000
     34 C31       -4.2832    7.1076   -0.4740 C.ar      1 RES1    0.0000
     35 C32       -3.3973    7.7732   -1.2721 C.ar      1 RES1    0.0000
     36 C33        5.1502    6.4807    6.8466 C.ar      1 RES1    0.0000
     37 C34       -1.6438    7.4905    0.3704 C.ar      1 RES1    0.0000
     38 C35       -2.0867    7.9696   -0.8457 C.ar      1 RES1    0.0000
     39 C36       14.1410    6.2095    7.7287 C.ar      1 RES1    0.0000
     40 O2         7.5199    7.7921    9.9679 O.2       1 RES1    0.0000
     41 H1         0.1900    7.1323    5.9510 H         1 RES1    0.0000
     42 H2         2.4844    6.7214    6.1027 H         1 RES1    0.0000
     43 H3         6.3290    5.9244    3.8182 H         1 RES1    0.0000
     44 H4         6.3174    6.7214    8.4118 H         1 RES1    0.0000
     45 H5         8.3312    5.8915    4.9481 H         1 RES1    0.0000
     46 H6        -1.7822    7.0994    4.8931 H         1 RES1    0.0000
     47 H7        -6.4989    5.5218    1.3119 H         1 RES1    0.0000
     48 H8         4.3379    6.6886    7.3653 H         1 RES1    0.0000
     49 H9        -5.4529    4.1413    4.9329 H         1 RES1    0.0000
     50 H10        3.9628    5.9162    3.7784 H         1 RES1    0.0000
     51 H11        2.0185    5.3821    2.7167 H         1 RES1    0.0000
     52 H12       -7.0415    4.3878    3.4220 H         1 RES1    0.0000
     53 H13       12.9507    7.7157    8.6715 H         1 RES1    0.0000
     54 H14       14.9617    6.8118    7.6212 H         1 RES1    0.0000
     55 H15       -0.0470    5.3903    1.6740 H         1 RES1    0.0000
     56 H16       11.0154    4.1167    8.1957 H         1 RES1    0.0000
     57 H17       -5.1494    6.9515   -0.7394 H         1 RES1    0.0000
     58 H18       -3.6774    8.1429   -2.1101 H         1 RES1    0.0000
     59 H19       -3.2727    4.9384    4.7604 H         1 RES1    0.0000
     60 H20        9.5891    5.8997    6.8743 H         1 RES1    0.0000
     61 H21       -0.7904    7.6006    0.6408 H         1 RES1    0.0000
     62 H22       -1.4676    8.4141   -1.4427 H         1 RES1    0.0000
     63 H23       14.9885    4.4371    6.8155 H         1 RES1    0.0000
     64 H24       13.0767    3.0978    7.1586 H         1 RES1    0.0000
@<TRIPOS>BOND
     1    1    6 1
     2    2   22 1
     3    3    4 ar
     4    4    6 1
     5    5   12 1
     6    6   15 1
     7    7    3 ar
     8    8    1 ar
     9    9   17 ar
    10   10   13 ar
    11   11   26 1
    12   12   31 2
    13   13    7 ar
    14   14   33 ar
    15   15   16 ar
    16   16    8 1
    17   17   21 ar
    18   18   13 1
    19   19    8 ar
    20   20   27 ar
    21   21   36 ar
    22   22   18 2
    23   23    5 2
    24   24    4 ar
    25   25   19 ar
    26   26    5 1
    27   27   32 ar
    28   28    1 ar
    29   29    2 ar
    30   30   25 ar
    31   31   11 1
    32   32   39 ar
    33   33   12 1
    34   34   16 ar
    35   35   34 ar
    36   36    2 ar
    37   37   15 ar
    38   38   35 ar
    39   39   14 ar
    40   40   26 2
    41   41   10 1
    42   42   18 1
    43   43   29 1
    44   44   21 1
    45   45    9 1
    46   46   24 1
    47   47   19 1
    48   48   36 1
    49   49   30 1
    50   50   22 1
    51   51    7 1
    52   52   25 1
    53   53   14 1
    54   54   39 1
    55   55    3 1
    56   56   20 1
    57   57   34 1
    58   58   35 1
    59   59   28 1
    60   60   23 1
    61   61   37 1
    62   62   38 1
    63   63   32 1
    64   64   27 1
    65    9   29 ar
    66   10   24 ar
    67   17   23 1
    68   20   33 ar
    69   28   30 ar
    70   37   38 ar
@<TRIPOS>SUBSTRUCTURE
     1 RES1 1

@<TRIPOS>CRYSIN
  16.6077    8.2169   20.0520  90.0000 109.0110  90.0000 231 1

