# MOL2 file generated by ConQuest
# Please check atom types

@<TRIPOS>MOLECULE
IDIBII
    52    55     1
SMALL
NO_CHARGES
****
Generated from CSD

@<TRIPOS>ATOM
      1 C1         5.8966    3.4740    8.6646 C.ar      1 RES1    0.0000
      2 N1         2.0962    3.4794   15.7591 N.3       1 RES1    0.0000
      3 C2         2.5813    3.4393   14.4669 C.ar      1 RES1    0.0000
      4 C3         5.3852    3.5697   10.0316 C.2       1 RES1    0.0000
      5 H1         5.9334    4.0229   10.6618 H         1 RES1    0.0000
      6 C4         2.4428    2.6927   12.1591 C.ar      1 RES1    0.0000
      7 H2         1.9531    2.2419   11.4809 H         1 RES1    0.0000
      8 C5         6.9625    3.4478    6.0310 C.ar      1 RES1    0.0000
      9 C6         5.2502    2.7939    7.6249 C.ar      1 RES1    0.0000
     10 H3         4.4391    2.3345    7.8061 H         1 RES1    0.0000
     11 O1         6.9701    1.1912    2.0249 O.3       1 RES1    0.0000
     12 C7         3.6794    3.2532   11.8363 C.ar      1 RES1    0.0000
     13 C8         5.7598    2.7738    6.3385 C.ar      1 RES1    0.0000
     14 H4         5.2970    2.3021    5.6577 H         1 RES1    0.0000
     15 C9         3.8033    4.0646   14.1249 C.ar      1 RES1    0.0000
     16 H5         4.2714    4.5617   14.7842 H         1 RES1    0.0000
     17 C10        7.5966    4.1418    7.0761 C.ar      1 RES1    0.0000
     18 H6         8.3972    4.6189    6.8930 H         1 RES1    0.0000
     19 C11        4.2153    3.0795   10.4877 C.2       1 RES1    0.0000
     20 H7         3.6911    2.5746    9.8785 H         1 RES1    0.0000
     21 C12        1.9016    2.7707   13.4387 C.ar      1 RES1    0.0000
     22 H8         1.0607    2.3662   13.6160 H         1 RES1    0.0000
     23 C13        7.0894    4.1480    8.3562 C.ar      1 RES1    0.0000
     24 H9         7.5540    4.6150    9.0415 H         1 RES1    0.0000
     25 C14        4.3304    3.9681   12.8542 C.ar      1 RES1    0.0000
     26 H10        5.1556    4.3973   12.6626 H         1 RES1    0.0000
     27 C15        8.2447    2.9668    2.3642 C.2       1 RES1    0.0000
     28 O2         5.6704    1.1179    3.8261 O.2       1 RES1    0.0000
     29 C16        7.4190    2.8263    3.5508 C.2       1 RES1    0.0000
     30 C17        7.6089    3.5072    4.7195 C.2       1 RES1    0.0000
     31 H11        8.3037    4.1526    4.6729 H         1 RES1    0.0000
     32 C18        2.9173    3.9835   16.8360 C.3       1 RES1    0.0000
     33 H12        3.6899    3.3937   16.9596 H         1 RES1    0.0000
     34 H13        2.3914    4.0121   17.6623 H         1 RES1    0.0000
     35 H14        3.2282    4.8860   16.6149 H         1 RES1    0.0000
     36 N2         8.0127    2.0458    1.4811 N.2       1 RES1    0.0000
     37 C19        6.5651    1.6760    3.2393 C.2       1 RES1    0.0000
     38 C20        0.9239    2.6997   16.1284 C.3       1 RES1    0.0000
     39 H15        0.1712    2.9498   15.5541 H         1 RES1    0.0000
     40 H16        0.6943    2.8788   17.0625 H         1 RES1    0.0000
     41 H17        1.1180    1.7455   16.0151 H         1 RES1    0.0000
     42 C21        9.2733    3.9905    2.0625 C.ar      1 RES1    0.0000
     43 C22       11.3625    4.5556    0.9968 C.ar      1 RES1    0.0000
     44 H18       12.1251    4.2977    0.4924 H         1 RES1    0.0000
     45 C23       10.4029    3.6006    1.3410 C.ar      1 RES1    0.0000
     46 H19       10.5180    2.6927    1.0877 H         1 RES1    0.0000
     47 C24        9.1050    5.3245    2.4251 C.ar      1 RES1    0.0000
     48 H20        8.3271    5.5955    2.9004 H         1 RES1    0.0000
     49 C25       10.0838    6.2609    2.0903 C.ar      1 RES1    0.0000
     50 H21        9.9751    7.1688    2.3499 H         1 RES1    0.0000
     51 C26       11.2082    5.8780    1.3876 C.ar      1 RES1    0.0000
     52 H22       11.8756    6.5195    1.1727 H         1 RES1    0.0000
@<TRIPOS>BOND
     1    1    4 1
     2    2    3 1
     3    3   15 ar
     4    4    5 1
     5    6    7 1
     6    8   13 ar
     7    9    1 ar
     8   10    9 1
     9   11   36 1
    10   12    6 ar
    11   13    9 ar
    12   14   13 1
    13   15   16 1
    14   17    8 ar
    15   18   17 1
    16   19    4 2
    17   20   19 1
    18   21    3 ar
    19   22   21 1
    20   23    1 ar
    21   24   23 1
    22   25   12 ar
    23   26   25 1
    24   27   29 1
    25   28   37 2
    26   29   30 2
    27   30    8 1
    28   31   30 1
    29   32    2 1
    30   33   32 1
    31   34   32 1
    32   35   32 1
    33   36   27 2
    34   37   11 1
    35   38    2 1
    36   39   38 1
    37   40   38 1
    38   41   38 1
    39   42   27 1
    40   43   44 1
    41   45   42 ar
    42   46   45 1
    43   47   42 ar
    44   48   47 1
    45   49   47 ar
    46   50   49 1
    47   51   43 ar
    48   52   51 1
    49    6   21 ar
    50   12   19 1
    51   15   25 ar
    52   17   23 ar
    53   29   37 1
    54   43   45 ar
    55   49   51 ar
@<TRIPOS>SUBSTRUCTURE
     1 RES1 1

@<TRIPOS>CRYSIN
   5.8440    7.7200   44.7600  90.0000  90.0000  90.0000  19 1

