# MOL2 file generated by ConQuest
# Please check atom types

@<TRIPOS>MOLECULE
IDODEK
    71    72     1
SMALL
NO_CHARGES
****
Generated from CSD

@<TRIPOS>ATOM
      1 O1         5.1320    1.5319    8.7198 O.2       1 RES1    0.0000
      2 O2         4.4859   -0.3318    7.6413 O.3       1 RES1    0.0000
      3 O3         1.1505    0.0154    7.0327 O.2       1 RES1    0.0000
      4 O4         1.8482    0.2252    9.1540 O.3       1 RES1    0.0000
      5 O5         7.0689    2.1776    3.2042 O.3       1 RES1    0.0000
      6 N1         6.5630    3.4088    2.6015 N.3       1 RES1    0.0000
      7 C1         3.0114    1.4813    7.5487 C.3       1 RES1    0.0000
      8 C2         2.6354    2.8542    8.1298 C.3       1 RES1    0.0000
      9 H1         2.1960    2.7617    9.0123 H         1 RES1    0.0000
     10 H2         3.4329    3.4330    8.2236 H         1 RES1    0.0000
     11 C3         1.6757    3.4069    7.0939 C.3       1 RES1    0.0000
     12 H3         0.7472    3.1476    7.3201 H         1 RES1    0.0000
     13 H4         1.7287    4.3956    7.0755 H         1 RES1    0.0000
     14 C4         2.0491    2.8552    5.7759 C.3       1 RES1    0.0000
     15 H5         2.4120    3.5705    5.1961 H         1 RES1    0.0000
     16 H6         1.2555    2.4620    5.3328 H         1 RES1    0.0000
     17 C5         3.1223    1.7655    6.0168 C.3       1 RES1    0.0000
     18 H7         2.8959    0.9414    5.4981 H         1 RES1    0.0000
     19 C6         4.4842    2.2512    5.6379 C.2       1 RES1    0.0000
     20 H8         4.7480    3.1031    5.9665 H         1 RES1    0.0000
     21 C7         5.3504    1.6021    4.8885 C.2       1 RES1    0.0000
     22 H9         5.0800    0.7782    4.5016 H         1 RES1    0.0000
     23 C8         6.7364    2.0910    4.6129 C.3       1 RES1    0.0000
     24 H10        6.8597    2.9889    5.0366 H         1 RES1    0.0000
     25 C9         7.7564    1.1234    5.1843 C.3       1 RES1    0.0000
     26 H11        7.6194    0.2363    4.7920 H         1 RES1    0.0000
     27 H12        7.6476    1.0716    6.1571 H         1 RES1    0.0000
     28 H13        8.6601    1.4395    4.9723 H         1 RES1    0.0000
     29 C10        4.3316    0.9249    8.0742 C.2       1 RES1    0.0000
     30 C11        5.7619   -0.9948    7.8769 C.3       1 RES1    0.0000
     31 H14        6.4336   -0.3266    8.1627 H         1 RES1    0.0000
     32 H15        6.0790   -1.4083    7.0353 H         1 RES1    0.0000
     33 C12        5.6272   -2.0317    8.9136 C.3       1 RES1    0.0000
     34 H16        5.3731   -1.6137    9.7620 H         1 RES1    0.0000
     35 H17        6.4823   -2.4977    9.0226 H         1 RES1    0.0000
     36 H18        4.9373   -2.6745    8.6461 H         1 RES1    0.0000
     37 C13        1.9018    0.4842    7.8356 C.2       1 RES1    0.0000
     38 C14        0.7879   -0.6415    9.6282 C.3       1 RES1    0.0000
     39 H19        1.1160   -1.1724   10.3969 H         1 RES1    0.0000
     40 H20        0.5306   -1.2712    8.9090 H         1 RES1    0.0000
     41 C15       -0.4025    0.1456   10.0444 C.3       1 RES1    0.0000
     42 H21       -0.1366    0.8091   10.7137 H         1 RES1    0.0000
     43 H22       -1.0742   -0.4556   10.4279 H         1 RES1    0.0000
     44 H23       -0.7808    0.6022    9.2637 H         1 RES1    0.0000
     45 C16        5.7855    2.9994    1.3889 C.3       1 RES1    0.0000
     46 C17        5.3424    4.2778    0.6857 C.3       1 RES1    0.0000
     47 H24        4.8798    4.0342   -0.1550 H         1 RES1    0.0000
     48 H25        4.6888    4.7474    1.2629 H         1 RES1    0.0000
     49 C18        6.4772    5.2269    0.3608 C.3       1 RES1    0.0000
     50 H26        6.1189    6.0583   -0.0390 H         1 RES1    0.0000
     51 H27        7.0923    4.8073   -0.2916 H         1 RES1    0.0000
     52 C19        7.2224    5.5473    1.6454 C.3       1 RES1    0.0000
     53 H28        6.6181    6.0488    2.2479 H         1 RES1    0.0000
     54 H29        7.9891    6.1351    1.4316 H         1 RES1    0.0000
     55 C20        7.7406    4.3070    2.3858 C.3       1 RES1    0.0000
     56 C21        4.5370    2.2771    1.8742 C.3       1 RES1    0.0000
     57 H30        4.7868    1.4045    2.2433 H         1 RES1    0.0000
     58 H31        3.9198    2.1502    1.1228 H         1 RES1    0.0000
     59 H32        4.0992    2.8117    2.5694 H         1 RES1    0.0000
     60 C22        6.5306    2.0684    0.4141 C.3       1 RES1    0.0000
     61 H33        7.1280    2.5999   -0.1527 H         1 RES1    0.0000
     62 H34        5.8807    1.5964   -0.1481 H         1 RES1    0.0000
     63 H35        7.0565    1.4170    0.9230 H         1 RES1    0.0000
     64 C23        8.2391    4.7735    3.7570 C.3       1 RES1    0.0000
     65 H36        7.4831    5.1098    4.2823 H         1 RES1    0.0000
     66 H37        8.8988    5.4890    3.6394 H         1 RES1    0.0000
     67 H38        8.6542    4.0208    4.2272 H         1 RES1    0.0000
     68 C24        8.9403    3.6869    1.6371 C.3       1 RES1    0.0000
     69 H39        9.1407    2.8047    2.0160 H         1 RES1    0.0000
     70 H40        9.7222    4.2691    1.7336 H         1 RES1    0.0000
     71 H41        8.7186    3.5920    0.6877 H         1 RES1    0.0000
@<TRIPOS>BOND
     1    1   29 2
     2    2   29 1
     3    3   37 2
     4    4   37 1
     5    5    6 1
     6    6   45 1
     7    7    8 1
     8    8    9 1
     9   10    8 1
    10   11    8 1
    11   12   11 1
    12   13   11 1
    13   14   11 1
    14   15   14 1
    15   16   14 1
    16   17    7 1
    17   18   17 1
    18   19   17 1
    19   20   19 1
    20   21   19 2
    21   22   21 1
    22   23    5 1
    23   24   23 1
    24   25   23 1
    25   26   25 1
    26   27   25 1
    27   28   25 1
    28   29    7 1
    29   30    2 1
    30   31   30 1
    31   32   30 1
    32   33   30 1
    33   34   33 1
    34   35   33 1
    35   36   33 1
    36   37    7 1
    37   38    4 1
    38   39   38 1
    39   40   38 1
    40   41   38 1
    41   42   41 1
    42   43   41 1
    43   44   41 1
    44   45   46 1
    45   46   47 1
    46   48   46 1
    47   49   46 1
    48   50   49 1
    49   51   49 1
    50   52   49 1
    51   53   52 1
    52   54   52 1
    53   55    6 1
    54   56   45 1
    55   57   56 1
    56   58   56 1
    57   59   56 1
    58   60   45 1
    59   61   60 1
    60   62   60 1
    61   63   60 1
    62   64   55 1
    63   65   64 1
    64   66   64 1
    65   67   64 1
    66   68   55 1
    67   69   68 1
    68   70   68 1
    69   71   68 1
    70   14   17 1
    71   21   23 1
    72   52   55 1
@<TRIPOS>SUBSTRUCTURE
     1 RES1 1

@<TRIPOS>CRYSIN
   9.2765   11.4527   11.8692  98.5970 101.0100  95.1000   2 1

