# MOL2 file generated by ConQuest
# Please check atom types

@<TRIPOS>MOLECULE
IDOHUF
    48    49     1
SMALL
NO_CHARGES
****
Generated from CSD

@<TRIPOS>ATOM
      1 O1         2.4809    4.3120    9.8640 O.2       1 RES1    0.0000
      2 O2         1.8107    3.2274    8.1512 O.2       1 RES1    0.0000
      3 O3         4.2021   -1.9637    9.2259 O.2       1 RES1    0.0000
      4 O4         4.2863   -3.5652    7.8020 O.2       1 RES1    0.0000
      5 O5        -0.1136   -4.8364    6.1482 O.2       1 RES1    0.0000
      6 O6        -1.6351   -3.3315    5.9453 O.2       1 RES1    0.0000
      7 N1         2.4182    3.3034    9.1964 N.pl3     1 RES1    0.0000
      8 N2         3.7808   -2.5772    8.2609 N.pl3     1 RES1    0.0000
      9 N3        -0.5121   -3.6918    6.2426 N.pl3     1 RES1    0.0000
     10 N4         3.0402    0.2336    8.2680 N.2       1 RES1    0.0000
     11 N5         2.4414    0.9832    9.0395 N.2       1 RES1    0.0000
     12 C1         3.2461    2.0744    9.6128 C.3       1 RES1    0.0000
     13 C2         3.2512    1.9468   11.1463 C.3       1 RES1    0.0000
     14 H1         3.5747    2.8071   11.4884 H         1 RES1    0.0000
     15 C3         4.3053    0.9101   11.5450 C.3       1 RES1    0.0000
     16 H2         4.3214    0.8237   12.5111 H         1 RES1    0.0000
     17 H3         4.0660    0.0478   11.1711 H         1 RES1    0.0000
     18 C4         5.6874    1.3088   11.0507 C.3       1 RES1    0.0000
     19 H4         5.9311    2.1635   11.4377 H         1 RES1    0.0000
     20 H5         6.3348    0.6502   11.3480 H         1 RES1    0.0000
     21 C5         5.7359    1.4111    9.5396 C.3       1 RES1    0.0000
     22 H6         5.5869    0.5188    9.1622 H         1 RES1    0.0000
     23 C6         4.6332    2.3389    9.0383 C.3       1 RES1    0.0000
     24 H7         4.8828    3.2527    9.2459 H         1 RES1    0.0000
     25 H8         4.5844    2.2639    8.0722 H         1 RES1    0.0000
     26 C7         7.1019    1.9177    9.0619 C.3       1 RES1    0.0000
     27 H9         7.2601    2.7958    9.4181 H         1 RES1    0.0000
     28 H10        7.1122    1.9552    8.1028 H         1 RES1    0.0000
     29 H11        7.7891    1.3210    9.3662 H         1 RES1    0.0000
     30 C8         1.8550    1.7244   11.7951 C.3       1 RES1    0.0000
     31 H12        1.1997    2.2282   11.2690 H         1 RES1    0.0000
     32 C9         1.4069    0.2693   11.8198 C.3       1 RES1    0.0000
     33 H13        0.5060    0.2177   12.1466 H         1 RES1    0.0000
     34 H14        1.9862   -0.2336   12.3979 H         1 RES1    0.0000
     35 H15        1.4468   -0.0929   10.9328 H         1 RES1    0.0000
     36 C10        1.8449    2.2873   13.2059 C.3       1 RES1    0.0000
     37 H16        2.4889    1.8192   13.7415 H         1 RES1    0.0000
     38 H17        0.9707    2.1776   13.5869 H         1 RES1    0.0000
     39 H18        2.0681    3.2208   13.1788 H         1 RES1    0.0000
     40 C11        2.1444   -0.7750    7.7407 C.ar      1 RES1    0.0000
     41 C12        2.5035   -2.1109    7.6912 C.ar      1 RES1    0.0000
     42 C13        1.6596   -3.0670    7.1674 C.ar      1 RES1    0.0000
     43 H19        1.9110   -3.9611    7.1285 H         1 RES1    0.0000
     44 C14        0.4362   -2.6532    6.7074 C.ar      1 RES1    0.0000
     45 C15        0.0564   -1.3397    6.7050 C.ar      1 RES1    0.0000
     46 H20       -0.7732   -1.0864    6.3688 H         1 RES1    0.0000
     47 C16        0.9263   -0.3978    7.2075 C.ar      1 RES1    0.0000
     48 H21        0.6919    0.5019    7.1875 H         1 RES1    0.0000
@<TRIPOS>BOND
     1    1    7 2
     2    2    7 2
     3    3    8 2
     4    4    8 2
     5    5    9 2
     6    6    9 2
     7    7   12 1
     8    8   41 1
     9    9   44 1
    10   10   11 2
    11   11   12 1
    12   12   13 1
    13   13   14 1
    14   15   13 1
    15   16   15 1
    16   17   15 1
    17   18   15 1
    18   19   18 1
    19   20   18 1
    20   21   18 1
    21   22   21 1
    22   23   12 1
    23   24   23 1
    24   25   23 1
    25   26   21 1
    26   27   26 1
    27   28   26 1
    28   29   26 1
    29   30   13 1
    30   31   30 1
    31   32   30 1
    32   33   32 1
    33   34   32 1
    34   35   32 1
    35   36   30 1
    36   37   36 1
    37   38   36 1
    38   39   36 1
    39   40   10 1
    40   41   40 ar
    41   42   41 ar
    42   43   42 1
    43   44   42 ar
    44   45   44 ar
    45   46   45 1
    46   47   40 ar
    47   48   47 1
    48   21   23 1
    49   45   47 ar
@<TRIPOS>SUBSTRUCTURE
     1 RES1 1

@<TRIPOS>CRYSIN
   8.4190    9.3820   12.3660  90.0000 107.4600  90.0000   4 1

