# MOL2 file generated by ConQuest
# Please check atom types

@<TRIPOS>MOLECULE
IDOTUS
    32    31     2
SMALL
NO_CHARGES
****
Generated from CSD

@<TRIPOS>ATOM
      1 O1         1.5329    1.2241    1.1007 O.3       1 RES1    0.0000
      2 O2         6.8975   -0.6589    2.7229 O.2       1 RES1    0.0000
      3 O3         5.3377   -0.2934    4.1234 O.2       1 RES1    0.0000
      4 N1         2.3332    1.4847   -0.9916 N.2       1 RES1    0.0000
      5 N2         5.7813   -0.2703    2.9891 N.pl3     1 RES1    0.0000
      6 C1        -4.0430    3.2575   -1.5383 C.3       1 RES1    0.0000
      7 H1        -4.5891    2.4787   -1.6678 H         1 RES1    0.0000
      8 H2        -4.0250    3.7735   -2.3476 H         1 RES1    0.0000
      9 H3        -4.4092    3.7899   -0.8273 H         1 RES1    0.0000
     10 C2        -2.6420    2.8353   -1.1786 C.ar      1 RES1    0.0000
     11 C3        -1.6157    2.9262   -2.0887 C.ar      1 RES1    0.0000
     12 H4        -1.7877    3.2843   -2.9292 H         1 RES1    0.0000
     13 C4        -0.3360    2.5003   -1.7937 C.ar      1 RES1    0.0000
     14 H5         0.3325    2.5464   -2.4400 H         1 RES1    0.0000
     15 C5        -0.0491    2.0066   -0.5372 C.ar      1 RES1    0.0000
     16 C6        -1.0647    1.9441    0.3897 C.ar      1 RES1    0.0000
     17 H6        -0.8857    1.6247    1.2446 H         1 RES1    0.0000
     18 C7        -2.3452    2.3484    0.0695 C.ar      1 RES1    0.0000
     19 H7        -3.0167    2.2896    0.7098 H         1 RES1    0.0000
     20 C8         1.2996    1.5792   -0.2098 C.2       1 RES1    0.0000
     21 C9         3.3617    1.0372   -0.1607 C.ar      1 RES1    0.0000
     22 C10        4.6967    0.7535   -0.4208 C.ar      1 RES1    0.0000
     23 H8         5.0551    0.8533   -1.2733 H         1 RES1    0.0000
     24 C11        5.4736    0.3172    0.6379 C.ar      1 RES1    0.0000
     25 H9         6.3686    0.1035    0.4988 H         1 RES1    0.0000
     26 C12        4.9240    0.1995    1.8980 C.ar      1 RES1    0.0000
     27 C13        3.6067    0.4758    2.2026 C.ar      1 RES1    0.0000
     28 H10        3.2538    0.3909    3.0586 H         1 RES1    0.0000
     29 C14        2.8695    0.8868    1.1283 C.ar      1 RES1    0.0000
     30 H11       -4.0931    4.2165   -1.5611 Du        2 SUP2    0.0000
     31 H12       -4.6572    2.9209   -0.8813 Du        2 SUP2    0.0000
     32 H13       -4.2730    2.9046   -2.4004 Du        2 SUP2    0.0000
@<TRIPOS>BOND
     1    1   20 1
     2    2    5 2
     3    3    5 2
     4    4   20 2
     5    5   26 1
     6    6    7 1
     7    8    6 1
     8    9    6 1
     9   10    6 1
    10   11   10 ar
    11   12   11 1
    12   13   11 ar
    13   14   13 1
    14   15   13 ar
    15   16   15 ar
    16   17   16 1
    17   18   10 ar
    18   19   18 1
    19   20   15 1
    20   21    4 1
    21   22   21 ar
    22   23   22 1
    23   24   22 ar
    24   25   24 1
    25   26   24 ar
    26   27   26 ar
    27   28   27 1
    28   29    1 1
    29   16   18 ar
    30   21   29 ar
    31   27   29 ar
@<TRIPOS>SUBSTRUCTURE
     1 RES1 1
     2 SUP2 30

@<TRIPOS>CRYSIN
  27.2510    7.4457   11.9900  90.0000  90.0000  90.0000  61 1

