# MOL2 file generated by ConQuest
# Please check atom types

@<TRIPOS>MOLECULE
IDOXIJ
    32    33     1
SMALL
NO_CHARGES
****
Generated from CSD

@<TRIPOS>ATOM
      1 C1         1.5582   14.8455    2.8860 C.ar      1 RES1    0.0000
      2 C2         1.3977   15.1373    1.5354 C.ar      1 RES1    0.0000
      3 C3         1.8388   14.2308    0.6014 C.ar      1 RES1    0.0000
      4 N1         1.6468   14.5492   -0.8160 N.pl3     1 RES1    0.0000
      5 O1         1.2178   15.6755   -1.0936 O.2       1 RES1    0.0000
      6 O2         1.8809   13.6908   -1.6415 O.2       1 RES1    0.0000
      7 C4         2.4565   13.0410    0.9261 C.ar      1 RES1    0.0000
      8 C5         2.6407   12.7993    2.2744 C.ar      1 RES1    0.0000
      9 N2         3.3136   11.5559    2.6730 N.pl3     1 RES1    0.0000
     10 O3         3.4533   10.6777    1.8310 O.2       1 RES1    0.0000
     11 O4         3.7003   11.4612    3.8389 O.2       1 RES1    0.0000
     12 C6         2.2056   13.6662    3.2602 C.ar      1 RES1    0.0000
     13 C7         1.0536   15.7317    3.9812 C.2       1 RES1    0.0000
     14 O5         1.4838   15.6206    5.1323 O.2       1 RES1    0.0000
     15 N3         0.0970   16.6010    3.6439 N.am      1 RES1    0.0000
     16 N4        -0.5284   17.3957    4.6187 N.3       1 RES1    0.0000
     17 C8         0.1541   18.5899    4.9623 C.ar      1 RES1    0.0000
     18 C9         0.5745   19.4561    3.9631 C.ar      1 RES1    0.0000
     19 C10        1.1377   20.6740    4.3098 C.ar      1 RES1    0.0000
     20 C11        1.2941   21.0317    5.6376 C.ar      1 RES1    0.0000
     21 C12        0.8835   20.1635    6.6266 C.ar      1 RES1    0.0000
     22 C13        0.3153   18.9456    6.3011 C.ar      1 RES1    0.0000
     23 H1         0.9901   15.9512    1.2634 H         1 RES1    0.0000
     24 H2         2.7394   12.4230    0.2610 H         1 RES1    0.0000
     25 H3         2.3453   13.4630    4.1777 H         1 RES1    0.0000
     26 H4        -0.2270   16.6941    2.8310 H         1 RES1    0.0000
     27 H5        -0.7381   16.9025    5.3161 H         1 RES1    0.0000
     28 H6         0.4768   19.2155    3.0488 H         1 RES1    0.0000
     29 H7         1.4207   21.2712    3.6266 H         1 RES1    0.0000
     30 H8         1.6806   21.8700    5.8656 H         1 RES1    0.0000
     31 H9         0.9932   20.4041    7.5394 H         1 RES1    0.0000
     32 H10        0.0346   18.3529    6.9883 H         1 RES1    0.0000
@<TRIPOS>BOND
     1    1    2 ar
     2    2    3 ar
     3    3    4 1
     4    4    5 2
     5    6    4 2
     6    7    3 ar
     7    8    7 ar
     8    9    8 1
     9   10    9 2
    10   11    9 2
    11   12    1 ar
    12   13    1 1
    13   14   13 2
    14   15   13 1
    15   16   15 1
    16   17   16 1
    17   18   17 ar
    18   19   18 ar
    19   20   19 ar
    20   21   20 ar
    21   22   17 ar
    22   23    2 1
    23   24    7 1
    24   25   12 1
    25   26   15 1
    26   27   16 1
    27   28   18 1
    28   29   19 1
    29   30   20 1
    30   31   21 1
    31   32   22 1
    32    8   12 ar
    33   21   22 ar
@<TRIPOS>SUBSTRUCTURE
     1 RES1 1

@<TRIPOS>CRYSIN
   7.5696   22.1760    8.4099  90.0000 110.8020  90.0000 231 1

