# MOL2 file generated by ConQuest
# Please check atom types

@<TRIPOS>MOLECULE
IDUDUJ
    35    36     2
SMALL
USER_CHARGES
****
Generated from CSD

@<TRIPOS>ATOM
      1 C1         2.7529    8.1867   16.5499 C.2       1 RES1    0.0000
      2 C2         2.1179    8.7322   15.3997 C.2       1 RES1    0.0000
      3 C3         4.8183    7.8198   18.1283 C.2       1 RES1    0.0000
      4 C4         3.9519    8.5561   17.2429 C.2       1 RES1    0.0000
      5 C5         5.7160    5.8707   19.3044 C.3       1 RES1    0.0000
      6 H1         6.3934    6.5380   19.5822 H         1 RES1    0.0000
      7 H2         6.1793    5.1516   18.8064 H         1 RES1    0.0000
      8 C6         5.0534    5.2871   20.5307 C.3       1 RES1    0.0000
      9 C7         1.7135   10.6382   13.6949 C.2       1 RES1    0.0000
     10 C8         2.5600    9.7763   14.4819 C.2       1 RES1    0.0000
     11 N1         1.9385    7.2657   17.0315 N.pl3     1 RES1    1.0000
     12 N2         0.9644    8.1609   15.1727 N.2       1 RES1    0.0000
     13 N3         5.7346    8.6140   18.5920 N.2       1 RES1    0.0000
     14 N4         4.3639    9.7960   17.1998 N.2       1 RES1    0.0000
     15 N5         4.7433    6.5023   18.4440 N.3       1 RES1    0.0000
     16 H3         4.2934    5.9963   17.9425 H         1 RES1    0.0000
     17 N6         6.0710    4.9005   21.5798 N.pl3     1 RES1    0.0000
     18 N7         4.2531    4.0275   20.2468 N.pl3     1 RES1    0.0000
     19 N8         4.1076    6.2647   21.1988 N.pl3     1 RES1    0.0000
     20 N9         2.4998   11.4065   12.9777 N.2       1 RES1    0.0000
     21 N10        3.7936   10.0385   14.2578 N.2       1 RES1    0.0000
     22 N11        0.3986   10.6874   13.6997 N.3       1 RES1    0.0000
     23 H4         0.0705   11.2661   13.1595 H         1 RES1    0.0000
     24 H5        -0.0961   10.1087   14.0981 H         1 RES1    0.0000
     25 O1         0.7805    7.2312   16.1664 O.3       1 RES1    0.0000
     26 O2         1.9128    6.4826   17.9371 O.2       1 RES1   -1.0000
     27 O3         5.4539    9.8588   18.0160 O.3       1 RES1    0.0000
     28 O4         6.9938    4.2516   21.1554 O.2       1 RES1    0.0000
     29 O5         5.8980    5.2563   22.7245 O.2       1 RES1    0.0000
     30 O6         4.2774    3.1385   21.0479 O.2       1 RES1    0.0000
     31 O7         3.6334    4.0250   19.2065 O.2       1 RES1    0.0000
     32 O8         4.5863    7.3716   21.3682 O.2       1 RES1    0.0000
     33 O9         3.0035    5.8929   21.4898 O.2       1 RES1    0.0000
     34 O10        3.8058   11.0494   13.3369 O.3       1 RES1    0.0000
     35 O11        0.0384    7.9774   14.5731 Du        2 SUP2    0.0000
@<TRIPOS>BOND
     1    1    2 1
     2    2   10 1
     3    3    4 1
     4    4    1 1
     5    5    6 1
     6    7    5 1
     7    8    5 1
     8    9   10 1
     9   10   21 2
    10   11    1 2
    11   12    2 2
    12   13    3 2
    13   14    4 2
    14   15    3 1
    15   16   15 1
    16   17    8 1
    17   18    8 1
    18   19    8 1
    19   20    9 2
    20   21   34 1
    21   22    9 1
    22   23   22 1
    23   24   22 1
    24   25   11 1
    25   26   11 1
    26   27   13 1
    27   28   17 2
    28   29   17 2
    29   30   18 2
    30   31   18 2
    31   32   19 2
    32   33   19 2
    33   34   20 1
    34    5   15 1
    35   12   25 1
    36   14   27 1
@<TRIPOS>SUBSTRUCTURE
     1 RES1 1
     2 SUP2 35

@<TRIPOS>CRYSIN
   6.4081   12.3127   19.1550  90.0000  90.0000  90.0000  19 1

