# MOL2 file generated by ConQuest
# Please check atom types

@<TRIPOS>MOLECULE
IDUMEA
    67    71     1
SMALL
NO_CHARGES
****
Generated from CSD

@<TRIPOS>ATOM
      1 O1         0.1286    1.7620    8.8833 O.3       1 RES1    0.0000
      2 O2        -0.7127    3.6006    7.8822 O.2       1 RES1    0.0000
      3 O3        -2.1466   -0.5966    2.5362 O.2       1 RES1    0.0000
      4 O4        -2.1363   -2.2863    3.8929 O.2       1 RES1    0.0000
      5 O5         2.3168    3.6349   12.8048 O.2       1 RES1    0.0000
      6 O6         4.0739    2.2972   13.2513 O.3       1 RES1    0.0000
      7 O7         2.7656   -2.3031    7.0830 O.3       1 RES1    0.0000
      8 O8         2.2754   -4.4966    7.0839 O.2       1 RES1    0.0000
      9 O9         5.9249   -2.5710   11.6834 O.3       1 RES1    0.0000
     10 O10        7.3000   -0.9807   10.9097 O.2       1 RES1    0.0000
     11 N1        -2.0050   -1.0916    3.6518 N.pl3     1 RES1    0.0000
     12 C1         1.9857    1.8240   10.3089 C.2       1 RES1    0.0000
     13 C2         2.6896    0.6798    9.5882 C.3       1 RES1    0.0000
     14 H1         3.1054    0.9171    8.7111 H         1 RES1    0.0000
     15 C3         2.0480   -0.7331    9.6598 C.3       1 RES1    0.0000
     16 H2         1.2130   -0.8638    9.1242 H         1 RES1    0.0000
     17 C4         3.1810   -1.6802    9.3588 C.ar      1 RES1    0.0000
     18 C5         3.5395   -2.4213    8.2549 C.ar      1 RES1    0.0000
     19 C6         4.6932   -3.2078    8.2692 C.ar      1 RES1    0.0000
     20 H3         4.9344   -3.7145    7.5029 H         1 RES1    0.0000
     21 C7         5.4821   -3.2457    9.4070 C.ar      1 RES1    0.0000
     22 H4         6.2552   -3.7978    9.4305 H         1 RES1    0.0000
     23 C8         5.1437   -2.4761   10.5174 C.ar      1 RES1    0.0000
     24 C9         4.0223   -1.6933   10.4978 C.ar      1 RES1    0.0000
     25 C10        3.4153   -0.7119   11.4805 C.3       1 RES1    0.0000
     26 H5         3.6977   -0.8127   12.4345 H         1 RES1    0.0000
     27 C11        3.6821    0.6703   10.8328 C.3       1 RES1    0.0000
     28 H6         4.6385    0.8667   10.6203 H         1 RES1    0.0000
     29 C12        2.8688    1.8562   11.3306 C.2       1 RES1    0.0000
     30 C13        1.9183   -0.9493   11.1847 C.3       1 RES1    0.0000
     31 H7         1.3314   -0.2789   11.6187 H         1 RES1    0.0000
     32 H8         1.6215   -1.8642   11.4193 H         1 RES1    0.0000
     33 C14        0.7294    2.5637    9.9479 C.3       1 RES1    0.0000
     34 H9         0.9639    3.4692    9.5947 H         1 RES1    0.0000
     35 C15       -0.2636    2.7032   11.0843 C.3       1 RES1    0.0000
     36 H10       -1.0983    3.0866   10.7429 H         1 RES1    0.0000
     37 H11        0.1099    3.2917   11.7724 H         1 RES1    0.0000
     38 H12       -0.4431    1.8204   11.4714 H         1 RES1    0.0000
     39 C16       -0.5195    2.4045    7.9082 C.2       1 RES1    0.0000
     40 C17       -0.9482    1.4619    6.8291 C.ar      1 RES1    0.0000
     41 C18       -1.3127    2.0022    5.5988 C.ar      1 RES1    0.0000
     42 H13       -1.3383    2.9442    5.4802 H         1 RES1    0.0000
     43 C19       -1.6370    1.1552    4.5497 C.ar      1 RES1    0.0000
     44 H14       -1.8376    1.5049    3.6896 H         1 RES1    0.0000
     45 C20       -1.6631   -0.1979    4.7778 C.ar      1 RES1    0.0000
     46 C21       -1.3617   -0.7543    5.9976 C.ar      1 RES1    0.0000
     47 H15       -1.4179   -1.6926    6.1345 H         1 RES1    0.0000
     48 C22       -0.9755    0.0898    7.0155 C.ar      1 RES1    0.0000
     49 H16       -0.7238   -0.2738    7.8561 H         1 RES1    0.0000
     50 C23        3.0227    2.6893   12.5166 C.2       1 RES1    0.0000
     51 C24        4.3467    3.0997   14.4402 C.3       1 RES1    0.0000
     52 H17        4.2242    4.0585   14.2252 H         1 RES1    0.0000
     53 H18        5.2876    2.9661   14.7191 H         1 RES1    0.0000
     54 C25        3.4322    2.7200   15.5715 C.3       1 RES1    0.0000
     55 H19        3.6838    3.2180   16.3769 H         1 RES1    0.0000
     56 H20        3.5087    1.7583   15.7448 H         1 RES1    0.0000
     57 H21        2.5085    2.9354   15.3291 H         1 RES1    0.0000
     58 C26        2.2228   -3.4356    6.5398 C.2       1 RES1    0.0000
     59 C27        1.5650   -3.1377    5.2352 C.3       1 RES1    0.0000
     60 H22        1.3944   -3.9752    4.7556 H         1 RES1    0.0000
     61 H23        2.1510   -2.5667    4.6970 H         1 RES1    0.0000
     62 H24        0.7155   -2.6747    5.3955 H         1 RES1    0.0000
     63 C28        7.0019   -1.7532   11.7790 C.2       1 RES1    0.0000
     64 C29        7.7399   -1.9642   13.0509 C.3       1 RES1    0.0000
     65 H25        8.1519   -1.1216   13.3338 H         1 RES1    0.0000
     66 H26        8.4362   -2.6404   12.9167 H         1 RES1    0.0000
     67 H27        7.1158   -2.2709   13.7430 H         1 RES1    0.0000
@<TRIPOS>BOND
     1    1   33 1
     2    2   39 2
     3    3   11 2
     4    4   11 2
     5    5   50 2
     6    6   50 1
     7    7   18 1
     8    8   58 2
     9    9   23 1
    10   10   63 2
    11   11   45 1
    12   12   13 1
    13   13   14 1
    14   15   13 1
    15   16   15 1
    16   17   15 1
    17   18   17 ar
    18   19   18 ar
    19   20   19 1
    20   21   19 ar
    21   22   21 1
    22   23   21 ar
    23   24   17 ar
    24   25   24 1
    25   26   25 1
    26   27   13 1
    27   28   27 1
    28   29   12 2
    29   30   15 1
    30   31   30 1
    31   32   30 1
    32   33   12 1
    33   34   33 1
    34   35   33 1
    35   36   35 1
    36   37   35 1
    37   38   35 1
    38   39    1 1
    39   40   39 1
    40   41   40 ar
    41   42   41 1
    42   43   41 ar
    43   44   43 1
    44   45   43 ar
    45   46   45 ar
    46   47   46 1
    47   48   40 ar
    48   49   48 1
    49   50   29 1
    50   51    6 1
    51   52   51 1
    52   53   51 1
    53   54   51 1
    54   55   54 1
    55   56   54 1
    56   57   54 1
    57   58    7 1
    58   59   58 1
    59   60   59 1
    60   61   59 1
    61   62   59 1
    62   63    9 1
    63   64   63 1
    64   65   64 1
    65   66   64 1
    66   67   64 1
    67   23   24 ar
    68   25   27 1
    69   25   30 1
    70   27   29 1
    71   46   48 ar
@<TRIPOS>SUBSTRUCTURE
     1 RES1 1

@<TRIPOS>CRYSIN
  13.5862    7.3020   14.3462  90.0000 114.7090  90.0000   4 1

