# MOL2 file generated by ConQuest
# Please check atom types

@<TRIPOS>MOLECULE
IDUNEB
    37    38     1
SMALL
NO_CHARGES
****
Generated from CSD

@<TRIPOS>ATOM
      1 C1         8.2000    7.3267    9.3887 C.ar      1 RES1    0.0000
      2 N1         8.5265    5.1153    8.2963 N.pl3     1 RES1    0.0000
      3 O1         9.8037    8.1840   10.9994 O.3       1 RES1    0.0000
      4 H1         9.0856    8.1705   11.3945 H         1 RES1    0.0000
      5 O2        11.9947   10.0094    9.3474 O.2       1 RES1    0.0000
      6 C2         7.6582    6.1959    8.7781 C.ar      1 RES1    0.0000
      7 O3        16.0762    5.2466    9.4133 O.3       1 RES1    0.0000
      8 C3         6.2977    6.0270    8.5574 C.ar      1 RES1    0.0000
      9 H2         5.9754    5.2444    8.1726 H         1 RES1    0.0000
     10 O4         9.6195    5.4096    7.8468 O.2       1 RES1    0.0000
     11 C4         5.4386    7.0309    8.9158 C.ar      1 RES1    0.0000
     12 H3         4.5248    6.9372    8.7707 H         1 RES1    0.0000
     13 O5         8.0980    3.9757    8.3263 O.2       1 RES1    0.0000
     14 C5         5.9343    8.1823    9.4919 C.ar      1 RES1    0.0000
     15 H4         5.3527    8.8720    9.7180 H         1 RES1    0.0000
     16 C6         7.2864    8.3180    9.7357 C.ar      1 RES1    0.0000
     17 H5         7.5958    9.0947   10.1430 H         1 RES1    0.0000
     18 C7         9.6638    7.5288    9.7327 C.3       1 RES1    0.0000
     19 H6        10.1218    6.6311    9.7821 H         1 RES1    0.0000
     20 C8        10.3464    8.4279    8.7151 C.3       1 RES1    0.0000
     21 H7        10.3837    7.9662    7.8626 H         1 RES1    0.0000
     22 H8         9.8110    9.2275    8.5932 H         1 RES1    0.0000
     23 C9        11.7446    8.8314    9.1153 C.2       1 RES1    0.0000
     24 C10       12.8232    7.8187    9.2049 C.ar      1 RES1    0.0000
     25 C11       12.7339    6.5544    8.6437 C.ar      1 RES1    0.0000
     26 H9        11.9426    6.2985    8.2264 H         1 RES1    0.0000
     27 C12       13.7915    5.6612    8.6877 C.ar      1 RES1    0.0000
     28 H10       13.7110    4.8173    8.3065 H         1 RES1    0.0000
     29 C13       14.9659    6.0388    9.3042 C.ar      1 RES1    0.0000
     30 C14       15.0735    7.2928    9.8885 C.ar      1 RES1    0.0000
     31 H11       15.8626    7.5421   10.3132 H         1 RES1    0.0000
     32 C15       14.0172    8.1631    9.8399 C.ar      1 RES1    0.0000
     33 H12       14.0969    9.0003   10.2376 H         1 RES1    0.0000
     34 C16       16.0365    3.9514    8.8347 C.3       1 RES1    0.0000
     35 H13       15.3454    3.4343    9.2538 H         1 RES1    0.0000
     36 H14       16.8832    3.5169    8.9628 H         1 RES1    0.0000
     37 H15       15.8550    4.0259    7.8946 H         1 RES1    0.0000
@<TRIPOS>BOND
     1    1    6 ar
     2    2    6 1
     3    3    4 1
     4    5   23 2
     5    6    8 ar
     6    7   29 1
     7    8    9 1
     8   10    2 2
     9   11    8 ar
    10   12   11 1
    11   13    2 2
    12   14   11 ar
    13   15   14 1
    14   16    1 ar
    15   17   16 1
    16   18    1 1
    17   19   18 1
    18   20   18 1
    19   21   20 1
    20   22   20 1
    21   23   20 1
    22   24   23 1
    23   25   24 ar
    24   26   25 1
    25   27   25 ar
    26   28   27 1
    27   29   27 ar
    28   30   29 ar
    29   31   30 1
    30   32   24 ar
    31   33   32 1
    32   34    7 1
    33   35   34 1
    34   36   34 1
    35   37   34 1
    36    3   18 1
    37   14   16 ar
    38   30   32 ar
@<TRIPOS>SUBSTRUCTURE
     1 RES1 1

@<TRIPOS>CRYSIN
  13.5530    7.3761   14.5524  90.0000  90.1720  90.0000 231 1

