# MOL2 file generated by ConQuest
# Please check atom types

@<TRIPOS>MOLECULE
IDUWIN
    40    34     2
SMALL
NO_CHARGES
****
Generated from CSD

@<TRIPOS>ATOM
      1 O1         1.0937    0.9542   -1.1697 O.3       1 RES1    0.0000
      2 N1         1.5047    0.7511    0.1823 N.am      1 RES1    0.0000
      3 C1         1.8520    2.0392    0.6528 C.2       1 RES1    0.0000
      4 N2         1.9414    2.9041   -0.2731 N.2       1 RES1    0.0000
      5 C2         1.6778    2.2335   -1.5238 C.3       1 RES1    0.0000
      6 H1         2.5138    2.0968   -2.0163 H         1 RES1    0.0000
      7 C3         2.1888   -0.4360    0.4503 C.2       1 RES1    0.0000
      8 O2         2.8192   -0.5462    1.4746 O.2       1 RES1    0.0000
      9 C4         2.0288   -1.5176   -0.5547 C.3       1 RES1    0.0000
     10 H2         2.3266   -2.3492   -0.1772 H         1 RES1    0.0000
     11 H3         2.5528   -1.3137   -1.3330 H         1 RES1    0.0000
     12 H4         1.1043   -1.5913   -0.8025 H         1 RES1    0.0000
     13 C5         0.6937    3.0121   -2.3643 C.3       1 RES1    0.0000
     14 H5        -0.1416    3.0936   -1.8782 H         1 RES1    0.0000
     15 H6         1.0425    3.9062   -2.5025 H         1 RES1    0.0000
     16 C6         0.4192    2.3944   -3.6762 C.3       1 RES1    0.0000
     17 H7        -0.1612    2.9681   -4.1814 H         1 RES1    0.0000
     18 H8        -0.0038    1.5416   -3.5507 H         1 RES1    0.0000
     19 H9         1.2448    2.2753   -4.1508 H         1 RES1    0.0000
     20 C7         0.6937    3.0121   -2.3643 Du        2 SUP2    0.0000
     21 H10       -0.0559    3.3922   -1.9003 Du        2 SUP2    0.0000
     22 H11        0.4442    2.1284   -2.6427 Du        2 SUP2    0.0000
     23 C8         1.0569    3.8502   -3.5665 Du        2 SUP2    0.0000
     24 H12        0.2725    3.8634   -4.1191 Du        2 SUP2    0.0000
     25 H13        1.2839    4.7456   -3.3050 Du        2 SUP2    0.0000
     26 H14        1.7857    3.4660   -4.0569 Du        2 SUP2    0.0000
     27 C9         1.9710    2.3443    2.0754 C.ar      1 RES1    0.0000
     28 C10        1.3422    1.5642    3.0456 C.ar      1 RES1    0.0000
     29 H15        0.8883    0.7909    2.7999 H         1 RES1    0.0000
     30 C11        1.3974    1.9410    4.3680 C.ar      1 RES1    0.0000
     31 H16        0.9644    1.4177    5.0029 H         1 RES1    0.0000
     32 C12        2.0718    3.0673    4.7814 C.ar      1 RES1    0.0000
     33 C13        2.6905    3.8366    3.8080 C.ar      1 RES1    0.0000
     34 H17        3.1490    4.6071    4.0569 H         1 RES1    0.0000
     35 C14        2.6426    3.4807    2.4740 C.ar      1 RES1    0.0000
     36 H18        3.0655    4.0120    1.8392 H         1 RES1    0.0000
     37 C15        2.1141    3.4578    6.2378 C.3       1 RES1    0.0000
     38 H19        1.2400    3.7403    6.5162 H         1 RES1    0.0000
     39 H20        2.7381    4.1762    6.3664 H         1 RES1    0.0000
     40 H21        2.3860    2.6993    6.7598 H         1 RES1    0.0000
@<TRIPOS>BOND
     1    1    2 1
     2    2    3 1
     3    3    4 2
     4    4    5 1
     5    5    1 1
     6    6    5 1
     7    7    2 1
     8    8    7 2
     9    9    7 1
    10   10    9 1
    11   11    9 1
    12   12    9 1
    13   13    5 1
    14   14   13 1
    15   15   13 1
    16   16   13 1
    17   17   16 1
    18   18   16 1
    19   19   16 1
    20   27    3 1
    21   28   27 ar
    22   29   28 1
    23   30   28 ar
    24   31   30 1
    25   32   30 ar
    26   33   32 ar
    27   34   33 1
    28   35   27 ar
    29   36   35 1
    30   37   32 1
    31   38   37 1
    32   39   37 1
    33   40   37 1
    34   33   35 ar
@<TRIPOS>SUBSTRUCTURE
     1 RES1 1
     2 SUP2 20

@<TRIPOS>CRYSIN
   7.5540    7.9900   11.1980 109.5500  91.2700  91.9800   2 1

