# MOL2 file generated by ConQuest
# Please check atom types

@<TRIPOS>MOLECULE
IFAYUL
    52    54     1
SMALL
NO_CHARGES
****
Generated from CSD

@<TRIPOS>ATOM
      1 O1        10.5950    3.1240    2.8838 O.2       1 RES1    0.0000
      2 N1        12.5420    3.8732   -0.4361 N.pl3     1 RES1    0.0000
      3 N2        10.6232    4.4284   -1.4002 N.pl3     1 RES1    0.0000
      4 N3        10.4468    3.5811    0.7799 N.2       1 RES1    0.0000
      5 N4        11.2063    3.5556    1.8870 N.2       1 RES1    0.0000
      6 C1        11.1965    3.9487   -0.2859 C.2       1 RES1    0.0000
      7 C2        12.9499    4.3903   -1.7659 C.3       1 RES1    0.0000
      8 H1        13.5531    3.7195   -2.2498 H         1 RES1    0.0000
      9 H2        13.4846    5.2905   -1.6625 H         1 RES1    0.0000
     10 C3        11.6093    4.6281   -2.4817 C.3       1 RES1    0.0000
     11 H3        11.5424    5.5537   -2.8429 H         1 RES1    0.0000
     12 H4        11.5023    3.9827   -3.2412 H         1 RES1    0.0000
     13 C4        13.4457    3.0571    0.3380 C.ar      1 RES1    0.0000
     14 C5        13.4332    1.6704    0.1352 C.ar      1 RES1    0.0000
     15 C6        14.3155    0.8874    0.8888 C.ar      1 RES1    0.0000
     16 H5        14.2914   -0.0764    0.8024 H         1 RES1    0.0000
     17 C7        15.1785    1.4555    1.8180 C.ar      1 RES1    0.0000
     18 C8        15.1814    2.8388    1.9837 C.ar      1 RES1    0.0000
     19 H6        15.7419    3.2184    2.6510 H         1 RES1    0.0000
     20 C9        14.3326    3.6677    1.2421 C.ar      1 RES1    0.0000
     21 C10       12.4581    1.0292   -0.8318 C.3       1 RES1    0.0000
     22 H7        12.6718    0.0425   -0.9683 H         1 RES1    0.0000
     23 H8        12.5204    1.4351   -1.7462 H         1 RES1    0.0000
     24 H9        11.5363    1.1124   -0.4907 H         1 RES1    0.0000
     25 C11       16.0721    0.5758    2.6726 C.3       1 RES1    0.0000
     26 H10       15.7109    0.3312    3.4635 H         1 RES1    0.0000
     27 H11       16.8866    1.0275    2.9584 H         1 RES1    0.0000
     28 H12       16.3344   -0.2632    2.2080 H         1 RES1    0.0000
     29 C12       14.3389    5.1588    1.4417 C.3       1 RES1    0.0000
     30 H13       14.6698    5.6301    0.6783 H         1 RES1    0.0000
     31 H14       14.9210    5.4178    2.2512 H         1 RES1    0.0000
     32 H15       13.4373    5.4773    1.6538 H         1 RES1    0.0000
     33 C13        9.2193    4.7173   -1.5893 C.ar      1 RES1    0.0000
     34 C14        8.8058    6.0624   -1.6242 C.ar      1 RES1    0.0000
     35 C15        7.4460    6.3290   -1.8241 C.ar      1 RES1    0.0000
     36 H16        7.1271    7.2691   -1.7996 H         1 RES1    0.0000
     37 C16        6.5201    5.3091   -2.0027 C.ar      1 RES1    0.0000
     38 C17        6.9607    3.9793   -1.9824 C.ar      1 RES1    0.0000
     39 H17        6.3533    3.2439   -2.1387 H         1 RES1    0.0000
     40 C18        8.3108    3.6617   -1.7716 C.ar      1 RES1    0.0000
     41 C19        9.7804    7.2054   -1.4389 C.3       1 RES1    0.0000
     42 H18       10.5682    6.9549   -0.8789 H         1 RES1    0.0000
     43 H19        9.3231    7.9314   -0.9568 H         1 RES1    0.0000
     44 H20       10.0905    7.5408   -2.3205 H         1 RES1    0.0000
     45 C20        5.0495    5.6301   -2.2048 C.3       1 RES1    0.0000
     46 H21        4.7956    6.4369   -1.7173 H         1 RES1    0.0000
     47 H22        4.5092    4.8744   -1.9597 H         1 RES1    0.0000
     48 H23        4.8342    5.8170   -3.1604 H         1 RES1    0.0000
     49 C21        8.7559    2.2181   -1.7216 C.3       1 RES1    0.0000
     50 H24        7.9761    1.6050   -1.9366 H         1 RES1    0.0000
     51 H25        9.1168    2.0041   -0.8356 H         1 RES1    0.0000
     52 H26        9.4673    2.0296   -2.4028 H         1 RES1    0.0000
@<TRIPOS>BOND
     1    1    5 2
     2    2    6 1
     3    3    6 1
     4    4    5 1
     5    6    4 2
     6    7    2 1
     7    8    7 1
     8    9    7 1
     9   10    3 1
    10   11   10 1
    11   12   10 1
    12   13    2 1
    13   14   13 ar
    14   15   14 ar
    15   16   15 1
    16   17   15 ar
    17   18   17 ar
    18   19   18 1
    19   20   13 ar
    20   21   14 1
    21   22   21 1
    22   23   21 1
    23   24   21 1
    24   25   17 1
    25   26   25 1
    26   27   25 1
    27   28   25 1
    28   29   20 1
    29   30   29 1
    30   31   29 1
    31   32   29 1
    32   33    3 1
    33   34   33 ar
    34   35   34 ar
    35   36   35 1
    36   37   35 ar
    37   38   37 ar
    38   39   38 1
    39   40   33 ar
    40   41   34 1
    41   42   41 1
    42   43   41 1
    43   44   41 1
    44   45   37 1
    45   46   45 1
    46   47   45 1
    47   48   45 1
    48   49   40 1
    49   50   49 1
    50   51   49 1
    51   52   49 1
    52    7   10 1
    53   18   20 ar
    54   38   40 ar
@<TRIPOS>SUBSTRUCTURE
     1 RES1 1

@<TRIPOS>CRYSIN
  31.6350    8.4919   15.6720  90.0000 112.9540  90.0000  15 1

