# MOL2 file generated by ConQuest
# Please check atom types

@<TRIPOS>MOLECULE
IFAYIZ
    30    30     1
SMALL
NO_CHARGES
****
Generated from CSD

@<TRIPOS>ATOM
      1 O1         4.2028    0.8104    7.5076 O.2       1 RES1    0.0000
      2 N1         5.7775   -2.8559    6.7158 N.3       1 RES1    0.0000
      3 N2         4.6300   -2.7877    4.8515 N.3       1 RES1    0.0000
      4 N3         4.1028   -1.0531    6.4107 N.2       1 RES1    0.0000
      5 N4         4.8597   -0.1449    7.0030 N.2       1 RES1    0.0000
      6 C1         4.8477   -2.1462    6.0238 C.2       1 RES1    0.0000
      7 C2         6.1569   -3.9554    5.9449 C.2       1 RES1    0.0000
      8 H1         6.8144   -4.5735    6.2305 H         1 RES1    0.0000
      9 C3         5.4463   -3.9174    4.7952 C.2       1 RES1    0.0000
     10 H2         5.4698   -4.4892    4.0267 H         1 RES1    0.0000
     11 C4         6.2450   -2.6080    8.1097 C.3       1 RES1    0.0000
     12 H3         5.7019   -1.8728    8.4389 H         1 RES1    0.0000
     13 C5         7.7151   -2.1848    8.0986 C.3       1 RES1    0.0000
     14 H4         8.2696   -2.9063    7.7309 H         1 RES1    0.0000
     15 H5         8.0145   -1.9750    9.0283 H         1 RES1    0.0000
     16 H6         7.8357   -1.3706    7.5409 H         1 RES1    0.0000
     17 C6         6.0094   -3.8571    8.9568 C.3       1 RES1    0.0000
     18 H7         5.0584   -4.1410    8.9051 H         1 RES1    0.0000
     19 H8         6.2511   -3.6433    9.9013 H         1 RES1    0.0000
     20 H9         6.5659   -4.6094    8.6428 H         1 RES1    0.0000
     21 C7         3.7800   -2.2450    3.7558 C.3       1 RES1    0.0000
     22 H10        3.0455   -1.7750    4.2074 H         1 RES1    0.0000
     23 C8         3.2287   -3.3831    2.9041 C.3       1 RES1    0.0000
     24 H11        3.9580   -3.8331    2.4077 H         1 RES1    0.0000
     25 H12        2.5663   -3.0288    2.2603 H         1 RES1    0.0000
     26 H13        2.7615   -4.0533    3.4614 H         1 RES1    0.0000
     27 C9         4.5901   -1.2536    2.9245 C.3       1 RES1    0.0000
     28 H14        4.9650   -0.5213    3.4994 H         1 RES1    0.0000
     29 H15        4.0184   -0.8695    2.2205 H         1 RES1    0.0000
     30 H16        5.3687   -1.7200    2.5004 H         1 RES1    0.0000
@<TRIPOS>BOND
     1    1    5 2
     2    2    6 1
     3    3    6 1
     4    4    5 1
     5    6    4 2
     6    7    2 1
     7    8    7 1
     8    9    3 1
     9   10    9 1
    10   11    2 1
    11   12   11 1
    12   13   11 1
    13   14   13 1
    14   15   13 1
    15   16   13 1
    16   17   11 1
    17   18   17 1
    18   19   17 1
    19   20   17 1
    20   21    3 1
    21   22   21 1
    22   23   21 1
    23   24   23 1
    24   25   23 1
    25   26   23 1
    26   27   21 1
    27   28   27 1
    28   29   27 1
    29   30   27 1
    30    7    9 2
@<TRIPOS>SUBSTRUCTURE
     1 RES1 1

@<TRIPOS>CRYSIN
  10.7327   11.2343   10.6356  90.0000 119.3830  90.0000  14 1

