# MOL2 file generated by ConQuest
# Please check atom types

@<TRIPOS>MOLECULE
IFAYEV01
    18    18     1
SMALL
NO_CHARGES
****
Generated from CSD

@<TRIPOS>ATOM
      1 O1         1.0816    0.9139    1.4204 O.2       1 RES1    0.0000
      2 N1         4.0794    2.8899    3.3628 N.3       1 RES1    0.0000
      3 N2         3.0756    4.7089    2.7268 N.pl3     1 RES1    0.0000
      4 N3         1.9558    2.7651    2.0497 N.2       1 RES1    0.0000
      5 N4         2.0244    1.4836    2.0114 N.2       1 RES1    0.0000
      6 C1         3.0033    3.3638    2.6901 C.2       1 RES1    0.0000
      7 C2         2.0697    5.6054    2.1596 C.3       1 RES1    0.0000
      8 H1         1.9149    5.3702    1.2206 H         1 RES1    0.0000
      9 H2         2.3871    6.5303    2.2160 H         1 RES1    0.0000
     10 H3         1.2323    5.5165    2.6606 H         1 RES1    0.0000
     11 C3         4.2047    5.0903    3.4250 C.2       1 RES1    0.0000
     12 H4         4.4872    5.9814    3.5967 H         1 RES1    0.0000
     13 C4         4.8274    3.9680    3.8161 C.2       1 RES1    0.0000
     14 H5         5.6358    3.9205    4.3134 H         1 RES1    0.0000
     15 C5         4.4995    1.4997    3.5396 C.3       1 RES1    0.0000
     16 H6         3.7239    0.9530    3.7835 H         1 RES1    0.0000
     17 H7         5.1712    1.4497    4.2511 H         1 RES1    0.0000
     18 H8         4.8847    1.1659    2.7021 H         1 RES1    0.0000
@<TRIPOS>BOND
     1    1    5 2
     2    2    6 1
     3    3    6 1
     4    4    5 1
     5    6    4 2
     6    7    3 1
     7    8    7 1
     8    9    7 1
     9   10    7 1
    10   11    3 1
    11   12   11 1
    12   13    2 1
    13   14   13 1
    14   15    2 1
    15   16   15 1
    16   17   15 1
    17   18   15 1
    18   11   13 2
@<TRIPOS>SUBSTRUCTURE
     1 RES1 1

@<TRIPOS>CRYSIN
   6.0051   14.4828    7.4482  90.0000  95.7080  90.0000  14 1

