# MOL2 file generated by ConQuest
# Please check atom types

@<TRIPOS>MOLECULE
IFAYEV
    18    18     1
SMALL
NO_CHARGES
****
Generated from CSD

@<TRIPOS>ATOM
      1 O1         4.0464    6.3495    1.4104 O.2       1 RES1    0.0000
      2 N1         7.0400    4.3596    3.3982 N.3       1 RES1    0.0000
      3 N2         6.0364    2.5326    2.7436 N.3       1 RES1    0.0000
      4 N3         4.8996    4.4861    2.0803 N.2       1 RES1    0.0000
      5 N4         5.0101    5.7825    1.9933 N.2       1 RES1    0.0000
      6 C1         5.9595    3.8846    2.7154 C.2       1 RES1    0.0000
      7 C2         7.7936    3.2729    3.8485 C.2       1 RES1    0.0000
      8 H1         8.5970    3.4032    4.3547 H         1 RES1    0.0000
      9 C3         7.1740    2.1458    3.4480 C.2       1 RES1    0.0000
     10 H2         7.3882    1.2292    3.5484 H         1 RES1    0.0000
     11 C4         7.4615    5.7570    3.5786 C.3       1 RES1    0.0000
     12 H3         7.8915    6.0880    2.7719 H         1 RES1    0.0000
     13 H4         8.0924    5.7919    4.3176 H         1 RES1    0.0000
     14 H5         6.7082    6.3057    3.8122 H         1 RES1    0.0000
     15 C5         5.0322    1.6309    2.1629 C.3       1 RES1    0.0000
     16 H6         4.2036    1.6994    2.6530 H         1 RES1    0.0000
     17 H7         5.3773    0.7329    2.2071 H         1 RES1    0.0000
     18 H8         4.8587    1.8779    1.2262 H         1 RES1    0.0000
@<TRIPOS>BOND
     1    1    5 2
     2    2    6 1
     3    3    6 1
     4    4    5 1
     5    6    4 2
     6    7    2 1
     7    8    7 1
     8    9    3 1
     9   10    9 1
    10   11    2 1
    11   12   11 1
    12   13   11 1
    13   14   11 1
    14   15    3 1
    15   16   15 1
    16   17   15 1
    17   18   15 1
    18    7    9 2
@<TRIPOS>SUBSTRUCTURE
     1 RES1 1

@<TRIPOS>CRYSIN
   5.9744   14.5125    7.4590  90.0000  94.9420  90.0000  14 1

