# MOL2 file generated by ConQuest
# Please check atom types

@<TRIPOS>MOLECULE
IFEGUV
    64    65     2
SMALL
NO_CHARGES
****
Generated from CSD

@<TRIPOS>ATOM
      1 C1         4.1549    4.1876    3.1909 C.3       1 RES1    0.0000
      2 C2         5.3602    5.0316    3.6811 C.3       1 RES1    0.0000
      3 H1         6.1802    4.5424    3.4578 H         1 RES1    0.0000
      4 N1         5.3828    6.2952    2.9653 N.pl3     1 RES1    0.0000
      5 H2         5.7687    6.8874    3.4316 H         1 RES1    0.0000
      6 C3         5.1196    6.3654    1.6232 C.2       1 RES1    0.0000
      7 C4         4.5749    5.3306    0.9598 C.2       1 RES1    0.0000
      8 C5         4.2274    4.0188    1.6319 C.3       1 RES1    0.0000
      9 H3         4.9612    3.3970    1.4445 H         1 RES1    0.0000
     10 C6         4.0235    2.8493    3.8521 C.2       1 RES1    0.0000
     11 N2         2.9412    2.7260    4.5439 N.2       1 RES1    0.0000
     12 O1         2.1877    3.9399    4.4567 O.3       1 RES1    0.0000
     13 C7         2.8580    4.8260    3.6538 C.2       1 RES1    0.0000
     14 O2         2.3977    5.9030    3.4362 O.2       1 RES1    0.0000
     15 C8         5.3453    5.2607    5.1823 C.ar      1 RES1    0.0000
     16 C9         5.9803    4.3667    6.0178 C.ar      1 RES1    0.0000
     17 H4         6.4054    3.6231    5.6573 H         1 RES1    0.0000
     18 C10        5.9916    4.5629    7.3818 C.ar      1 RES1    0.0000
     19 H5         6.4176    3.9486    7.9363 H         1 RES1    0.0000
     20 C11        5.3779    5.6607    7.9221 C.ar      1 RES1    0.0000
     21 H6         5.4032    5.7963    8.8427 H         1 RES1    0.0000
     22 C12        4.7227    6.5655    7.1192 C.ar      1 RES1    0.0000
     23 H7         4.3003    7.3064    7.4896 H         1 RES1    0.0000
     24 C13        4.7025    6.3551    5.7444 C.ar      1 RES1    0.0000
     25 H8         4.2534    6.9568    5.1943 H         1 RES1    0.0000
     26 C14        5.5592    7.6666    1.0142 C.3       1 RES1    0.0000
     27 H9         5.9139    8.2378    1.7006 H         1 RES1    0.0000
     28 H10        4.8074    8.0961    0.5992 H         1 RES1    0.0000
     29 H11        6.2367    7.4993    0.3562 H         1 RES1    0.0000
     30 H12        5.3918    7.6500    0.0697 Du        2 SUP2    0.0000
     31 H13        6.4982    7.7917    1.1711 Du        2 SUP2    0.0000
     32 H14        5.0689    8.3885    1.4140 Du        2 SUP2    0.0000
     33 C15        4.3959    5.3924   -0.4924 C.2       1 RES1    0.0000
     34 O3         4.1291    6.3434   -1.1944 O.2       1 RES1    0.0000
     35 O4         4.6087    4.1581   -1.0044 O.3       1 RES1    0.0000
     36 C16        4.2833    3.9564   -2.3989 C.3       1 RES1    0.0000
     37 H15        4.7501    4.6027   -2.9534 H         1 RES1    0.0000
     38 H16        3.3290    4.0571   -2.5427 H         1 RES1    0.0000
     39 C17        4.7128    2.5796   -2.7355 C.3       1 RES1    0.0000
     40 H17        4.5163    2.3993   -3.6582 H         1 RES1    0.0000
     41 H18        4.2443    1.9532   -2.1799 H         1 RES1    0.0000
     42 H19        5.6576    2.4927   -2.5873 H         1 RES1    0.0000
     43 C18        2.9463    3.3801    1.0807 C.ar      1 RES1    0.0000
     44 C19        2.9193    2.0255    0.8181 C.ar      1 RES1    0.0000
     45 H20        3.6700    1.5071    1.0001 H         1 RES1    0.0000
     46 C20        1.7904    1.4272    0.2865 C.ar      1 RES1    0.0000
     47 H21        1.7852    0.5124    0.1144 H         1 RES1    0.0000
     48 C21        0.6848    2.1817    0.0142 C.ar      1 RES1    0.0000
     49 H22       -0.0742    1.7814   -0.3432 H         1 RES1    0.0000
     50 C22        0.6915    3.5254    0.2647 C.ar      1 RES1    0.0000
     51 H23       -0.0627    4.0330    0.0697 H         1 RES1    0.0000
     52 C23        1.8103    4.1361    0.8083 C.ar      1 RES1    0.0000
     53 H24        1.8026    5.0488    0.9892 H         1 RES1    0.0000
     54 C24        4.8962    1.6678    3.7650 C.ar      1 RES1    0.0000
     55 C25        4.3988    0.4407    4.1561 C.ar      1 RES1    0.0000
     56 H25        3.5168    0.3798    4.4447 H         1 RES1    0.0000
     57 C26        5.1745   -0.6866    4.1288 C.ar      1 RES1    0.0000
     58 H26        4.8256   -1.4950    4.4251 H         1 RES1    0.0000
     59 C27        6.4612   -0.6270    3.6658 C.ar      1 RES1    0.0000
     60 H27        6.9856   -1.3956    3.6364 H         1 RES1    0.0000
     61 C28        6.9743    0.5848    3.2431 C.ar      1 RES1    0.0000
     62 H28        7.8457    0.6390    2.9239 H         1 RES1    0.0000
     63 C29        6.1803    1.7169    3.2965 C.ar      1 RES1    0.0000
     64 H29        6.5286    2.5289    3.0078 H         1 RES1    0.0000
@<TRIPOS>BOND
     1    1    2 1
     2    2    3 1
     3    4    2 1
     4    5    4 1
     5    6    4 1
     6    7    6 2
     7    8    1 1
     8    9    8 1
     9   10    1 1
    10   11   10 2
    11   12   11 1
    12   13    1 1
    13   14   13 2
    14   15    2 1
    15   16   15 ar
    16   17   16 1
    17   18   16 ar
    18   19   18 1
    19   20   18 ar
    20   21   20 1
    21   22   20 ar
    22   23   22 1
    23   24   15 ar
    24   25   24 1
    25   26    6 1
    26   27   26 1
    27   28   26 1
    28   29   26 1
    29   33    7 1
    30   34   33 2
    31   35   33 1
    32   36   35 1
    33   37   36 1
    34   38   36 1
    35   39   36 1
    36   40   39 1
    37   41   39 1
    38   42   39 1
    39   43    8 1
    40   44   43 ar
    41   45   44 1
    42   46   44 ar
    43   47   46 1
    44   48   46 ar
    45   49   48 1
    46   50   48 ar
    47   51   50 1
    48   52   43 ar
    49   53   52 1
    50   54   10 1
    51   55   54 ar
    52   56   55 1
    53   57   55 ar
    54   58   57 1
    55   59   57 ar
    56   60   59 1
    57   61   59 ar
    58   62   61 1
    59   63   54 ar
    60   64   63 1
    61    7    8 1
    62   12   13 1
    63   22   24 ar
    64   50   52 ar
    65   61   63 ar
@<TRIPOS>SUBSTRUCTURE
     1 RES1 1
     2 SUP2 30

@<TRIPOS>CRYSIN
   7.2120   30.1420   11.0590  90.0000  99.9100  90.0000 231 1

