# MOL2 file generated by ConQuest
# Please check atom types

@<TRIPOS>MOLECULE
IFIGAF
    41    43     1
SMALL
NO_CHARGES
****
Generated from CSD

@<TRIPOS>ATOM
      1 N1         2.4562   -1.2033    0.0898 N.ar      1 RES1    0.0000
      2 C1         1.4210   -1.3042    0.9458 C.ar      1 RES1    0.0000
      3 N2         1.0122   -2.5244    1.2223 N.3       1 RES1    0.0000
      4 N3         0.7568   -0.2894    1.5454 N.ar      1 RES1    0.0000
      5 C2         1.2280    0.9029    1.2791 C.ar      1 RES1    0.0000
      6 O1         0.6665    1.9589    1.8879 O.3       1 RES1    0.0000
      7 C3        -0.3575    1.6790    2.8874 C.3       1 RES1    0.0000
      8 C4        -0.7443    3.0097    3.4630 C.ar      1 RES1    0.0000
      9 C5        -1.7944    3.7145    2.9371 C.ar      1 RES1    0.0000
     10 C6        -2.1212    4.9635    3.4333 C.ar      1 RES1    0.0000
     11 C7        -1.4026    5.5003    4.4591 C.ar      1 RES1    0.0000
     12 C8        -0.3692    4.8110    4.9964 C.ar      1 RES1    0.0000
     13 C9        -0.0251    3.5680    4.5041 C.ar      1 RES1    0.0000
     14 C10        2.3142    1.1709    0.4229 C.ar      1 RES1    0.0000
     15 N4         2.6875    2.4854    0.2732 N.2       1 RES1    0.0000
     16 O2         3.7029    2.7336   -0.4030 O.2       1 RES1    0.0000
     17 C11        2.8952    0.0059   -0.1399 C.ar      1 RES1    0.0000
     18 O3         3.9450    0.1650   -0.9485 O.3       1 RES1    0.0000
     19 C12        4.5615   -1.0391   -1.4608 C.3       1 RES1    0.0000
     20 C13        5.7010   -0.6407   -2.3342 C.ar      1 RES1    0.0000
     21 C14        6.0703    0.6525   -2.5498 C.ar      1 RES1    0.0000
     22 C15        7.1481    0.9632   -3.3736 C.ar      1 RES1    0.0000
     23 C16        7.8667   -0.0442   -3.9707 C.ar      1 RES1    0.0000
     24 C17        7.4984   -1.3285   -3.7660 C.ar      1 RES1    0.0000
     25 C18        6.4338   -1.6614   -2.9450 C.ar      1 RES1    0.0000
     26 H1         1.4021   -3.2005    0.8615 H         1 RES1    0.0000
     27 H2         0.3544   -2.6452    1.7636 H         1 RES1    0.0000
     28 H3        -0.0087    1.0973    3.5805 H         1 RES1    0.0000
     29 H4        -1.1256    1.2497    2.4780 H         1 RES1    0.0000
     30 H5        -2.2916    3.3507    2.2413 H         1 RES1    0.0000
     31 H6        -2.8319    5.4370    3.0665 H         1 RES1    0.0000
     32 H7        -1.6222    6.3406    4.7896 H         1 RES1    0.0000
     33 H8         0.1138    5.1778    5.7002 H         1 RES1    0.0000
     34 H9         0.6907    3.1040    4.8749 H         1 RES1    0.0000
     35 H10        3.9159   -1.5531   -1.9704 H         1 RES1    0.0000
     36 H11        4.8800   -1.5877   -0.7272 H         1 RES1    0.0000
     37 H12        5.5952    1.3388   -2.1410 H         1 RES1    0.0000
     38 H13        7.3812    1.8514   -3.5186 H         1 RES1    0.0000
     39 H14        8.5981    0.1561   -4.5102 H         1 RES1    0.0000
     40 H15        7.9732   -2.0075   -4.1882 H         1 RES1    0.0000
     41 H16        6.2090   -2.5524   -2.8042 H         1 RES1    0.0000
@<TRIPOS>BOND
     1    1    2 ar
     2    2    3 1
     3    3   26 1
     4    4    2 ar
     5    5    4 ar
     6    6    5 1
     7    7    6 1
     8    8    7 1
     9    9    8 ar
    10   10    9 ar
    11   11   10 ar
    12   12   11 ar
    13   13    8 ar
    14   14    5 ar
    15   15   14 1
    16   16   15 2
    17   17    1 ar
    18   18   17 1
    19   19   18 1
    20   20   19 1
    21   21   20 ar
    22   22   21 ar
    23   23   22 ar
    24   24   23 ar
    25   25   20 ar
    26   27    3 1
    27   28    7 1
    28   29    7 1
    29   30    9 1
    30   31   10 1
    31   32   11 1
    32   33   12 1
    33   34   13 1
    34   35   19 1
    35   36   19 1
    36   37   21 1
    37   38   22 1
    38   39   23 1
    39   40   24 1
    40   41   25 1
    41   12   13 ar
    42   14   17 ar
    43   24   25 ar
@<TRIPOS>SUBSTRUCTURE
     1 RES1 1

@<TRIPOS>CRYSIN
  11.0731    7.3642   22.9129  90.0000 111.4560  90.0000  14 1

