# MOL2 file generated by ConQuest
# Please check atom types

@<TRIPOS>MOLECULE
IFIKEN
    43    45     1
SMALL
NO_CHARGES
****
Generated from CSD

@<TRIPOS>ATOM
      1 O1         9.3180   13.6123    1.5961 O.2       1 RES1    0.0000
      2 C1         9.3065   12.5320    2.1353 C.2       1 RES1    0.0000
      3 O2         6.3129   12.4871    4.1080 O.3       1 RES1    0.0000
      4 C2         8.0506   11.8451    2.6673 C.3       1 RES1    0.0000
      5 C3         8.3174   11.5978    4.1474 C.2       1 RES1    0.0000
      6 C4         7.8633   10.4623    1.8842 C.3       1 RES1    0.0000
      7 C5         6.7985   12.6858    2.7905 C.2       1 RES1    0.0000
      8 C6         9.1370    9.6140    2.0097 C.3       1 RES1    0.0000
      9 C7        10.5529   11.7298    2.3959 C.3       1 RES1    0.0000
     10 N1         7.3576   11.9527    4.9090 N.2       1 RES1    0.0000
     11 O3        11.9564   10.9544    4.1929 O.3       1 RES1    0.0000
     12 C8        10.7813   11.6939    3.9203 C.3       1 RES1    0.0000
     13 C9        10.4396   10.3547    1.7144 C.3       1 RES1    0.0000
     14 C10        6.1195   13.5341    2.0205 C.2       1 RES1    0.0000
     15 C11        7.5704   10.7353    0.4113 C.3       1 RES1    0.0000
     16 C12        9.6094   11.0941    4.6938 C.3       1 RES1    0.0000
     17 C13        6.6817    9.6973    2.4820 C.3       1 RES1    0.0000
     18 C14        6.4700   13.9199    0.6217 C.3       1 RES1    0.0000
     19 C15        4.8946   14.2300    2.5645 C.3       1 RES1    0.0000
     20 C16       12.8508   11.4606    4.9341 C.3       1 RES1    0.0000
     21 H1         9.1820    9.2590    2.9124 H         1 RES1    0.0000
     22 H2         9.0666    8.8617    1.4036 H         1 RES1    0.0000
     23 H3        11.3079   12.2052    1.9906 H         1 RES1    0.0000
     24 H4        10.9173   12.6127    4.2311 H         1 RES1    0.0000
     25 H5        10.5172   10.4764    0.7556 H         1 RES1    0.0000
     26 H6        11.1825    9.8036    2.0026 H         1 RES1    0.0000
     27 H7         7.4739    9.9023   -0.0562 H         1 RES1    0.0000
     28 H8         8.2965   11.2338    0.0275 H         1 RES1    0.0000
     29 H9         6.7585   11.2415    0.3336 H         1 RES1    0.0000
     30 H10        9.6357   10.1266    4.6268 H         1 RES1    0.0000
     31 H11        9.6818   11.3338    5.6311 H         1 RES1    0.0000
     32 H12        5.8865   10.2291    2.4091 H         1 RES1    0.0000
     33 H13        6.8581    9.5089    3.4062 H         1 RES1    0.0000
     34 H14        6.5596    8.8732    2.0050 H         1 RES1    0.0000
     35 H15        7.2735   13.4662    0.3563 H         1 RES1    0.0000
     36 H16        6.6091   14.8682    0.5763 H         1 RES1    0.0000
     37 H17        5.7535   13.6725    0.0323 H         1 RES1    0.0000
     38 H18        4.1064   13.8302    2.1891 H         1 RES1    0.0000
     39 H19        4.9237   15.1604    2.3326 H         1 RES1    0.0000
     40 H20        4.8726   14.1390    3.5209 H         1 RES1    0.0000
     41 H21       12.5997   12.3564    5.1732 H         1 RES1    0.0000
     42 H22       13.6865   11.4786    4.4607 H         1 RES1    0.0000
     43 H23       12.9448   10.9314    5.7304 H         1 RES1    0.0000
@<TRIPOS>BOND
     1    1    2 2
     2    2    4 1
     3    3    7 1
     4    4    5 1
     5    5   10 2
     6    6    4 1
     7    7    4 1
     8    8    6 1
     9    9    2 1
    10   10    3 1
    11   11   12 1
    12   12    9 1
    13   13    8 1
    14   14    7 2
    15   15    6 1
    16   16    5 1
    17   17    6 1
    18   18   14 1
    19   19   14 1
    20   20   11 1
    21   21    8 1
    22   22    8 1
    23   23    9 1
    24   24   12 1
    25   25   13 1
    26   26   13 1
    27   27   15 1
    28   28   15 1
    29   29   15 1
    30   30   16 1
    31   31   16 1
    32   32   17 1
    33   33   17 1
    34   34   17 1
    35   35   18 1
    36   36   18 1
    37   37   18 1
    38   38   19 1
    39   39   19 1
    40   40   19 1
    41   41   20 1
    42   42   20 1
    43   43   20 1
    44    9   13 1
    45   12   16 1
@<TRIPOS>SUBSTRUCTURE
     1 RES1 1

@<TRIPOS>CRYSIN
   9.8412   12.8152   12.1972  90.0000 101.4210  90.0000  14 1

