# MOL2 file generated by ConQuest
# Please check atom types

@<TRIPOS>MOLECULE
IFOFOZ
    35    37     1
SMALL
NO_CHARGES
****
Generated from CSD

@<TRIPOS>ATOM
      1 C1        13.7500    1.5543   15.0250 C.ar      1 RES1    0.0000
      2 C2        14.2785    0.9541   16.1728 C.ar      1 RES1    0.0000
      3 H1        14.7579    0.1369   16.1069 H         1 RES1    0.0000
      4 C3        14.0978    1.5583   17.4073 C.ar      1 RES1    0.0000
      5 H2        14.4582    1.1510   18.1858 H         1 RES1    0.0000
      6 C4        13.3931    2.7572   17.5229 C.ar      1 RES1    0.0000
      7 H3        13.2579    3.1537   18.3756 H         1 RES1    0.0000
      8 C5        12.8906    3.3668   16.3797 C.ar      1 RES1    0.0000
      9 H4        12.4252    4.1914   16.4506 H         1 RES1    0.0000
     10 C6        13.0639    2.7801   15.1333 C.ar      1 RES1    0.0000
     11 H5        12.7201    3.2036   14.3549 H         1 RES1    0.0000
     12 C7        14.1054   -0.4875   13.6784 C.3       1 RES1    0.0000
     13 H6        13.4157   -0.9346   14.2299 H         1 RES1    0.0000
     14 H7        15.0007   -0.7903   13.9704 H         1 RES1    0.0000
     15 C8        13.8876   -0.7566   12.1939 C.3       1 RES1    0.0000
     16 H8        13.3999   -1.6062   12.0525 H         1 RES1    0.0000
     17 H9        14.7500   -0.7937   11.7089 H         1 RES1    0.0000
     18 C9        13.0329    0.4646   11.7286 C.3       1 RES1    0.0000
     19 H10       12.1523    0.1301   11.3940 H         1 RES1    0.0000
     20 C10       13.6964    1.2670   10.6286 C.ar      1 RES1    0.0000
     21 C11       13.6366    0.8098    9.3017 C.ar      1 RES1    0.0000
     22 C12       14.2798    1.5583    8.3104 C.ar      1 RES1    0.0000
     23 H11       14.2437    1.2596    7.4094 H         1 RES1    0.0000
     24 C13       14.9739    2.7302    8.6101 C.ar      1 RES1    0.0000
     25 H12       15.4124    3.2178    7.9213 H         1 RES1    0.0000
     26 C14       15.0178    3.1773    9.9211 C.ar      1 RES1    0.0000
     27 H13       15.4834    3.9770   10.1371 H         1 RES1    0.0000
     28 C15       14.3763    2.4491   10.9247 C.ar      1 RES1    0.0000
     29 H14       14.4030    2.7626   11.8218 H         1 RES1    0.0000
     30 C16       12.8588   -0.4363    8.9328 C.3       1 RES1    0.0000
     31 H15       12.8794   -0.5590    7.9597 H         1 RES1    0.0000
     32 H16       11.9299   -0.3419    9.2311 H         1 RES1    0.0000
     33 H17       13.2643   -1.2151    9.3681 H         1 RES1    0.0000
     34 N1        13.9853    0.9755   13.7575 N.3       1 RES1    0.0000
     35 O1        12.8075    1.2524   12.9120 O.3       1 RES1    0.0000
@<TRIPOS>BOND
     1    1    2 ar
     2    2    3 1
     3    4    2 ar
     4    5    4 1
     5    6    4 ar
     6    7    6 1
     7    8    6 ar
     8    9    8 1
     9   10    1 ar
    10   11   10 1
    11   12   13 1
    12   14   12 1
    13   15   12 1
    14   16   15 1
    15   17   15 1
    16   18   15 1
    17   19   18 1
    18   20   18 1
    19   21   20 ar
    20   22   21 ar
    21   23   22 1
    22   24   22 ar
    23   25   24 1
    24   26   24 ar
    25   27   26 1
    26   28   20 ar
    27   29   28 1
    28   30   21 1
    29   31   30 1
    30   32   30 1
    31   33   30 1
    32   34    1 1
    33   35   18 1
    34    8   10 ar
    35   12   34 1
    36   26   28 ar
    37   34   35 1
@<TRIPOS>SUBSTRUCTURE
     1 RES1 1

@<TRIPOS>CRYSIN
  15.7720    6.7430   24.0330  90.0000  90.0000  90.0000  60 1

