# MOL2 file generated by ConQuest
# Please check atom types

@<TRIPOS>MOLECULE
IFOSII
    57    60     1
SMALL
NO_CHARGES
****
Generated from CSD

@<TRIPOS>ATOM
      1 O1         1.4093   10.9820   17.5014 O.2       1 RES1    0.0000
      2 O2         1.1205    9.4805   19.0248 O.2       1 RES1    0.0000
      3 O3         4.6611    6.9238   12.6174 O.2       1 RES1    0.0000
      4 O4         5.9759    1.9035   13.4410 O.2       1 RES1    0.0000
      5 O5         4.0739    1.3686   12.3765 O.3       1 RES1    0.0000
      6 O6         6.2640    5.7904   16.1238 O.2       1 RES1    0.0000
      7 N1         3.9905    6.0028   14.6750 N.am      1 RES1    0.0000
      8 N2         1.5023    9.8255   17.9055 N.pl3     1 RES1    0.0000
      9 N3         5.8248    3.6925   16.8355 N.am      1 RES1    0.0000
     10 H1         5.3510    2.9850   16.7096 H         1 RES1    0.0000
     11 N4         3.7122    2.4405   15.6784 N.ar      1 RES1    0.0000
     12 C1         2.1089    8.8293   17.0517 C.ar      1 RES1    0.0000
     13 C2         2.3380    7.5562   17.5576 C.ar      1 RES1    0.0000
     14 H2         2.0669    7.3345   18.4191 H         1 RES1    0.0000
     15 C3         2.9691    6.6340   16.7650 C.ar      1 RES1    0.0000
     16 H3         3.1295    5.7787   17.0928 H         1 RES1    0.0000
     17 C4         3.3745    6.9661   15.4701 C.ar      1 RES1    0.0000
     18 C5         3.1328    8.2520   14.9677 C.ar      1 RES1    0.0000
     19 H4         3.3913    8.4761   14.1017 H         1 RES1    0.0000
     20 C6         2.5069    9.1801   15.7697 C.ar      1 RES1    0.0000
     21 H5         2.3516   10.0402   15.4529 H         1 RES1    0.0000
     22 C7         4.6038    6.0532   13.4465 C.2       1 RES1    0.0000
     23 C8         5.1368    4.6311   13.5769 C.3       1 RES1    0.0000
     24 H6         6.1150    4.6065   13.6215 H         1 RES1    0.0000
     25 C9         4.4709    4.6452   15.0197 C.3       1 RES1    0.0000
     26 C10        4.5847    3.6526   12.5537 C.3       1 RES1    0.0000
     27 H7         3.6172    3.7159   12.5415 H         1 RES1    0.0000
     28 H8         4.9098    3.8955   11.6730 H         1 RES1    0.0000
     29 C11        4.9844    2.2317   12.8543 C.2       1 RES1    0.0000
     30 C12        4.3671   -0.0293   12.6321 C.3       1 RES1    0.0000
     31 H9         3.6803   -0.5761   12.2454 H         1 RES1    0.0000
     32 H10        4.4006   -0.1807   13.5792 H         1 RES1    0.0000
     33 H11        5.2145   -0.2546   12.2429 H         1 RES1    0.0000
     34 C13        3.3440    3.6526   15.2225 C.ar      1 RES1    0.0000
     35 C14        2.0430    3.9424   14.8599 C.ar      1 RES1    0.0000
     36 H12        1.8209    4.7895   14.5446 H         1 RES1    0.0000
     37 C15        1.0764    2.9662   14.9692 C.ar      1 RES1    0.0000
     38 H13        0.1986    3.1387   14.7163 H         1 RES1    0.0000
     39 C16        1.4414    1.7201   15.4639 C.ar      1 RES1    0.0000
     40 H14        0.8128    1.0419   15.5624 H         1 RES1    0.0000
     41 C17        2.7548    1.5171   15.8020 C.ar      1 RES1    0.0000
     42 H15        2.9938    0.6841   16.1397 H         1 RES1    0.0000
     43 C18        5.5953    4.7625   16.0787 C.2       1 RES1    0.0000
     44 C19        6.8529    3.6772   17.8696 C.3       1 RES1    0.0000
     45 H16        7.5285    4.3378   17.6527 H         1 RES1    0.0000
     46 H17        7.2803    2.8066   17.8766 H         1 RES1    0.0000
     47 C20        6.3011    3.9670   19.2427 C.ar      1 RES1    0.0000
     48 C21        6.3169    5.2530   19.7534 C.ar      1 RES1    0.0000
     49 H18        6.6891    5.9417   19.2527 H         1 RES1    0.0000
     50 C22        5.7853    5.5264   20.9995 C.ar      1 RES1    0.0000
     51 H19        5.7986    6.3935   21.3355 H         1 RES1    0.0000
     52 C23        5.2323    4.4974   21.7466 C.ar      1 RES1    0.0000
     53 H20        4.8657    4.6769   22.5822 H         1 RES1    0.0000
     54 C24        5.2245    3.2067   21.2558 C.ar      1 RES1    0.0000
     55 H21        4.8559    2.5168   21.7585 H         1 RES1    0.0000
     56 C25        5.7673    2.9498   20.0116 C.ar      1 RES1    0.0000
     57 H22        5.7737    2.0780   19.6857 H         1 RES1    0.0000
@<TRIPOS>BOND
     1    1    8 2
     2    2    8 2
     3    3   22 2
     4    4   29 2
     5    5   29 1
     6    6   43 2
     7    7   17 1
     8    8   12 1
     9    9   10 1
    10   11   34 ar
    11   12   13 ar
    12   13   14 1
    13   15   13 ar
    14   16   15 1
    15   17   15 ar
    16   18   17 ar
    17   19   18 1
    18   20   12 ar
    19   21   20 1
    20   22    7 1
    21   23   22 1
    22   24   23 1
    23   25    7 1
    24   26   23 1
    25   27   26 1
    26   28   26 1
    27   29   26 1
    28   30    5 1
    29   31   30 1
    30   32   30 1
    31   33   30 1
    32   34   25 1
    33   35   34 ar
    34   36   35 1
    35   37   35 ar
    36   38   37 1
    37   39   37 ar
    38   40   39 1
    39   41   11 ar
    40   42   41 1
    41   43    9 1
    42   44    9 1
    43   45   44 1
    44   46   44 1
    45   47   44 1
    46   48   47 ar
    47   49   48 1
    48   50   48 ar
    49   51   50 1
    50   52   50 ar
    51   53   52 1
    52   54   52 ar
    53   55   54 1
    54   56   47 ar
    55   57   56 1
    56   18   20 ar
    57   23   25 1
    58   25   43 1
    59   39   41 ar
    60   54   56 ar
@<TRIPOS>SUBSTRUCTURE
     1 RES1 1

@<TRIPOS>CRYSIN
   7.6583   11.7333   25.0070  90.0000  95.6870  90.0000  14 1

