# MOL2 file generated by ConQuest
# Please check atom types

@<TRIPOS>MOLECULE
IFOSON
    23    23     1
SMALL
NO_CHARGES
****
Generated from CSD

@<TRIPOS>ATOM
      1 C1         0.6471   -0.4709    9.2454 C.3       1 RES1    0.0000
      2 H1         0.6282   -1.1937    8.5846 H         1 RES1    0.0000
      3 H2         0.3442   -0.8126   10.1129 H         1 RES1    0.0000
      4 H3         1.5619   -0.1299    9.3303 H         1 RES1    0.0000
      5 O1        -0.2348    0.6060    8.8127 O.3       1 RES1    0.0000
      6 C2         0.1493    1.2088    7.6910 C.2       1 RES1    0.0000
      7 O2         1.0835    0.8682    7.0130 O.2       1 RES1    0.0000
      8 C3        -0.7456    2.3908    7.3625 C.3       1 RES1    0.0000
      9 H4        -1.6127    2.0687    7.0108 H         1 RES1    0.0000
     10 H5        -0.9201    2.9176    8.1819 H         1 RES1    0.0000
     11 N1        -0.0884    3.2269    6.3675 N.pl3     1 RES1    0.0000
     12 C4        -0.0237    2.9942    5.0129 C.2       1 RES1    0.0000
     13 N2         0.8366    3.8047    4.4301 N.2       1 RES1    0.0000
     14 C5         1.3361    4.5507    5.4624 C.2       1 RES1    0.0000
     15 C6         0.7929    4.2243    6.6666 C.2       1 RES1    0.0000
     16 H6         0.9832    4.6034    7.5166 H         1 RES1    0.0000
     17 C7        -0.8265    1.9431    4.3335 C.3       1 RES1    0.0000
     18 H7        -0.8149    2.0981    3.3659 H         1 RES1    0.0000
     19 H8        -1.7508    1.9769    4.6586 H         1 RES1    0.0000
     20 H9        -0.4438    1.0621    4.5284 H         1 RES1    0.0000
     21 N3         2.3505    5.5399    5.2479 N.pl3     1 RES1    0.0000
     22 O3         2.8029    5.6897    4.1154 O.2       1 RES1    0.0000
     23 O4         2.7301    6.1870    6.2227 O.2       1 RES1    0.0000
@<TRIPOS>BOND
     1    1    2 1
     2    3    1 1
     3    4    1 1
     4    5    1 1
     5    6    5 1
     6    7    6 2
     7    8    6 1
     8    9    8 1
     9   10    8 1
    10   11    8 1
    11   12   11 1
    12   13   12 2
    13   14   13 1
    14   15   11 1
    15   16   15 1
    16   17   12 1
    17   18   17 1
    18   19   17 1
    19   20   17 1
    20   21   14 1
    21   22   21 2
    22   23   21 2
    23   14   15 2
@<TRIPOS>SUBSTRUCTURE
     1 RES1 1

@<TRIPOS>CRYSIN
   4.6619   17.3256   11.1490  90.0000 103.2040  90.0000  14 1

