# MOL2 file generated by ConQuest
# Please check atom types

@<TRIPOS>MOLECULE
IFUHAV
    20    20     1
SMALL
NO_CHARGES
****
Generated from CSD

@<TRIPOS>ATOM
      1 C1         9.8475    8.2142    9.6327 C.2       1 RES1    0.0000
      2 N1        10.8014    5.8936    8.0638 N.pl3     1 RES1    0.0000
      3 O1        10.2324    8.9949   10.5245 O.2       1 RES1    0.0000
      4 O2         8.9097    7.3917    9.7683 O.3       1 RES1    0.0000
      5 O3        11.0927    5.7575    9.2306 O.2       1 RES1    0.0000
      6 O4        10.5349    4.9814    7.3297 O.2       1 RES1    0.0000
      7 C2        10.4746    8.3192    8.2966 C.ar      1 RES1    0.0000
      8 C3        10.8218    7.2430    7.5079 C.ar      1 RES1    0.0000
      9 C4        11.2850    7.3831    6.2314 C.ar      1 RES1    0.0000
     10 H1        11.5021    6.6300    5.7307 H         1 RES1    0.0000
     11 C5        11.4314    8.6355    5.6865 C.ar      1 RES1    0.0000
     12 C6        11.0920    9.7170    6.4569 C.ar      1 RES1    0.0000
     13 H2        11.1813   10.5723    6.1032 H         1 RES1    0.0000
     14 C7        10.6216    9.5650    7.7408 C.ar      1 RES1    0.0000
     15 H3        10.3994   10.3179    8.2395 H         1 RES1    0.0000
     16 C8        11.9784    8.7947    4.3030 C.3       1 RES1    0.0000
     17 H4        11.3886    8.3693    3.6757 H         1 RES1    0.0000
     18 H5        12.8461    8.3868    4.2535 H         1 RES1    0.0000
     19 H6        12.0501    9.7279    4.0921 H         1 RES1    0.0000
     20 H7         8.5292    7.4459   10.5293 H         1 RES1    0.0000
@<TRIPOS>BOND
     1    1    3 2
     2    2    5 2
     3    4    1 1
     4    6    2 2
     5    7    1 1
     6    8    2 1
     7    9    8 ar
     8   10    9 1
     9   11    9 ar
    10   12   11 ar
    11   13   12 1
    12   14    7 ar
    13   15   14 1
    14   16   11 1
    15   17   16 1
    16   18   16 1
    17   19   16 1
    18   20    4 1
    19    7    8 ar
    20   12   14 ar
@<TRIPOS>SUBSTRUCTURE
     1 RES1 1

@<TRIPOS>CRYSIN
  13.1630   10.9660   11.3250  90.0000  94.7900  90.0000  15 1

