# MOL2 file generated by ConQuest
# Please check atom types

@<TRIPOS>MOLECULE
IFUNII
    58    60     1
SMALL
NO_CHARGES
****
Generated from CSD

@<TRIPOS>ATOM
      1 C1         1.7848    2.1602   14.5827 C.2       1 RES1    0.0000
      2 C2         0.6515    1.2561   14.9919 C.2       1 RES1    0.0000
      3 C3        -0.5116    1.6806   14.1854 C.ar      1 RES1    0.0000
      4 C4        -1.8441    1.2781   14.1400 C.ar      1 RES1    0.0000
      5 C5        -2.7252    1.8912   13.2517 C.ar      1 RES1    0.0000
      6 C6        -2.2788    2.8716   12.4047 C.ar      1 RES1    0.0000
      7 C7        -0.9694    3.3097   12.4346 C.ar      1 RES1    0.0000
      8 C8        -0.1054    2.7203   13.3371 C.ar      1 RES1    0.0000
      9 C9         0.7673    0.2441   15.8888 C.2       1 RES1    0.0000
     10 C10       -0.4042   -0.6519   16.2137 C.3       1 RES1    0.0000
     11 C11       -1.3751   -0.0447   17.2391 C.3       1 RES1    0.0000
     12 C12        2.0579   -0.0649   16.6197 C.3       1 RES1    0.0000
     13 C13        1.8593   -0.0581   18.1422 C.3       1 RES1    0.0000
     14 C14        2.6399   -1.4219   16.1341 C.3       1 RES1    0.0000
     15 C15        4.0156   -1.6055   16.7810 C.3       1 RES1    0.0000
     16 C16        2.6904   -1.5173   14.6217 C.ar      1 RES1    0.0000
     17 C17        3.5927   -0.7640   13.8724 C.ar      1 RES1    0.0000
     18 C18        3.6400   -0.8621   12.4975 C.ar      1 RES1    0.0000
     19 C19        2.7732   -1.7123   11.8354 C.ar      1 RES1    0.0000
     20 C20        1.8565   -2.4516   12.5453 C.ar      1 RES1    0.0000
     21 C21        1.8296   -2.3507   13.9332 C.ar      1 RES1    0.0000
     22 C22        1.9173    4.1143   12.9947 C.2       1 RES1    0.0000
     23 C23        3.9413    5.2407   12.6965 C.3       1 RES1    0.0000
     24 C24        2.2289   -2.7370    9.7664 C.3       1 RES1    0.0000
     25 N1         1.2729    3.0095   13.5654 N.am      1 RES1    0.0000
     26 N2         4.7341   -2.7543   16.1734 N.pl3     1 RES1    0.0000
     27 O1         2.9144    2.2237   14.9935 O.2       1 RES1    0.0000
     28 O2         3.2168    4.1030   13.2237 O.3       1 RES1    0.0000
     29 O3         1.3476    4.9471   12.3655 O.2       1 RES1    0.0000
     30 O4         5.8035   -2.5442   15.6265 O.2       1 RES1    0.0000
     31 O5         4.2157   -3.8381   16.2457 O.2       1 RES1    0.0000
     32 O6         2.9414   -1.7606   10.4707 O.3       1 RES1    0.0000
     33 H1         2.1809   -3.6733   10.1447 H         1 RES1    0.0000
     34 H2         1.2013   -2.6596   10.0262 H         1 RES1    0.0000
     35 H3         4.3063   -0.3379   11.9626 H         1 RES1    0.0000
     36 H4         1.2937   -3.0411   12.0766 H         1 RES1    0.0000
     37 H5         1.1921   -2.9114   14.4423 H         1 RES1    0.0000
     38 H6         4.5835   -0.8829   16.5911 H         1 RES1    0.0000
     39 H7         3.9274   -1.8530   17.7650 H         1 RES1    0.0000
     40 H8         2.0875   -2.0950   16.4659 H         1 RES1    0.0000
     41 H9         2.7815   -0.1417   18.6169 H         1 RES1    0.0000
     42 H10        1.2937   -0.7848   18.4202 H         1 RES1    0.0000
     43 H11        2.6753    0.6169   16.4212 H         1 RES1    0.0000
     44 H12       -0.8640   -0.9025   15.3390 H         1 RES1    0.0000
     45 H13       -0.0739   -1.4911   16.5844 H         1 RES1    0.0000
     46 H14       -0.9149    0.1635   18.1474 H         1 RES1    0.0000
     47 H15       -1.7188    0.7957   16.9064 H         1 RES1    0.0000
     48 H16       -2.1439   -0.5995   17.3357 H         1 RES1    0.0000
     49 H17       -2.8555    3.2373   11.7927 H         1 RES1    0.0000
     50 H18       -0.6284    4.0254   11.9089 H         1 RES1    0.0000
     51 H19       -3.6317    1.6241   13.2975 H         1 RES1    0.0000
     52 H20       -2.2363    0.5123   14.7710 H         1 RES1    0.0000
     53 H21        3.7149    5.9623   13.1276 H         1 RES1    0.0000
     54 H22        3.8350    5.2320   11.8486 H         1 RES1    0.0000
     55 H23        4.9347    5.1448   12.9599 H         1 RES1    0.0000
     56 H24        1.4508    0.7412   18.4761 H         1 RES1    0.0000
     57 H25        2.4489   -2.6487    8.8970 H         1 RES1    0.0000
     58 H26        4.1862   -0.1482   14.3126 H         1 RES1    0.0000
@<TRIPOS>BOND
     1    1    2 1
     2    2    3 1
     3    3    4 ar
     4    4    5 ar
     5    5    6 ar
     6    6    7 ar
     7    7    8 ar
     8    8    3 ar
     9    9    2 2
    10   10    9 1
    11   11   10 1
    12   12    9 1
    13   13   12 1
    14   14   12 1
    15   15   14 1
    16   16   14 1
    17   17   16 ar
    18   18   17 ar
    19   19   18 ar
    20   20   19 ar
    21   21   16 ar
    22   22   25 1
    23   23   28 1
    24   24   32 1
    25   25    1 1
    26   26   15 1
    27   27    1 2
    28   28   22 1
    29   29   22 2
    30   30   26 2
    31   31   26 2
    32   32   19 1
    33   33   24 1
    34   34   24 1
    35   35   18 1
    36   36   20 1
    37   37   21 1
    38   38   15 1
    39   39   15 1
    40   40   14 1
    41   41   13 1
    42   42   13 1
    43   43   12 1
    44   44   10 1
    45   45   10 1
    46   46   11 1
    47   47   11 1
    48   48   11 1
    49   49    6 1
    50   50    7 1
    51   51    5 1
    52   52    4 1
    53   53   23 1
    54   54   23 1
    55   55   23 1
    56   56   13 1
    57   57   24 1
    58   58   17 1
    59    8   25 1
    60   20   21 ar
@<TRIPOS>SUBSTRUCTURE
     1 RES1 1

@<TRIPOS>CRYSIN
   9.2410   10.9000   22.3600  90.0000  90.0000  90.0000  19 1

