# MOL2 file generated by ConQuest
# Please check atom types

@<TRIPOS>MOLECULE
IFUQAE
    57    61     1
SMALL
NO_CHARGES
****
Generated from CSD

@<TRIPOS>ATOM
      1 O1        11.1505    6.7341    6.6765 O.2       1 RES1    0.0000
      2 C1        10.0225    5.2869    5.2593 C.ar      1 RES1    0.0000
      3 N1        11.0832    6.2659    5.5530 N.pl3     1 RES1    0.0000
      4 O2         7.0548    2.5850    4.4155 O.3       1 RES1    0.0000
      5 H1         8.7882    3.3837    2.8257 H         1 RES1    0.0000
      6 C2         8.9129    3.8303    3.7254 C.ar      1 RES1    0.0000
      7 N2        -2.2690    0.1521    4.4638 N.ar      1 RES1    0.0000
      8 O3        11.8568    6.5465    4.6543 O.2       1 RES1    0.0000
      9 H2        10.5570    5.0089    3.2858 H         1 RES1    0.0000
     10 C3         9.9189    4.7472    3.9896 C.ar      1 RES1    0.0000
     11 N3         4.8466    2.0049    4.8672 N.pl3     1 RES1    0.0000
     12 O4         0.8535    3.2337    6.9903 O.2       1 RES1    0.0000
     13 C4         8.1311    4.0298    6.0219 C.ar      1 RES1    0.0000
     14 O5         1.9438    2.7162    5.0897 O.3       1 RES1    0.0000
     15 C5         8.0310    3.4751    4.7384 C.ar      1 RES1    0.0000
     16 C6         6.1734    1.9746    5.4310 C.3       1 RES1    0.0000
     17 C7         6.2473    2.7127    6.7360 C.2       1 RES1    0.0000
     18 H3         5.5502    2.4253    7.3946 H         1 RES1    0.0000
     19 C8         7.1537    3.6375    7.0135 C.2       1 RES1    0.0000
     20 H4         7.1621    4.1338    7.8619 H         1 RES1    0.0000
     21 C9         9.1466    4.9554    6.2766 C.ar      1 RES1    0.0000
     22 H5         9.2305    5.3747    7.2552 H         1 RES1    0.0000
     23 C10        5.5743   -0.1208    4.4516 C.ar      1 RES1    0.0000
     24 C11        7.9832    0.1367    5.2621 C.3       1 RES1    0.0000
     25 H6         8.5350    0.5334    5.9577 H         1 RES1    0.0000
     26 H7         8.2765    0.4167    4.3454 H         1 RES1    0.0000
     27 H8         8.1205   -0.8001    5.3738 H         1 RES1    0.0000
     28 C12        6.0706   -0.1342    6.8711 C.3       1 RES1    0.0000
     29 H9         6.6065    0.1834    7.5568 H         1 RES1    0.0000
     30 H10        5.1250    0.0250    7.0438 H         1 RES1    0.0000
     31 H11        6.1643   -1.1168    6.8119 H         1 RES1    0.0000
     32 C13        6.5062    0.4368    5.5068 C.3       1 RES1    0.0000
     33 C14        5.4815   -1.3907    3.9164 C.ar      1 RES1    0.0000
     34 H12        6.1537   -2.0752    4.1724 H         1 RES1    0.0000
     35 C15        4.4203   -1.6938    3.0620 C.ar      1 RES1    0.0000
     36 H13        4.3547   -2.5419    2.7212 H         1 RES1    0.0000
     37 C16        4.2085    3.2821    4.5707 C.3       1 RES1    0.0000
     38 H14        4.8272    4.0004    4.7407 H         1 RES1    0.0000
     39 H15        3.9129    3.2878    3.6174 H         1 RES1    0.0000
     40 C17        4.6133    0.8417    4.1305 C.ar      1 RES1    0.0000
     41 C18        3.5711    0.5654    3.2569 C.ar      1 RES1    0.0000
     42 H16        2.8957    1.2126    3.0311 H         1 RES1    0.0000
     43 C19        3.4851   -0.7302    2.7413 C.ar      1 RES1    0.0000
     44 H17        2.7391   -0.9451    2.1517 H         1 RES1    0.0000
     45 C20        3.0476    3.5748    5.4797 C.3       1 RES1    0.0000
     46 H18        3.3196    3.3503    6.3890 H         1 RES1    0.0000
     47 H19        2.7451    4.5330    5.3714 H         1 RES1    0.0000
     48 C21        0.9024    2.6529    5.9285 C.2       1 RES1    0.0000
     49 C22       -0.1833    1.7822    5.3973 C.ar      1 RES1    0.0000
     50 C23       -1.2679    1.4739    6.2076 C.ar      1 RES1    0.0000
     51 H20        0.5794    1.4210    3.5309 H         1 RES1    0.0000
     52 H21       -1.2230    0.0725    2.7848 H         1 RES1    0.0000
     53 H22       -3.0744    0.4750    6.2689 H         1 RES1    0.0000
     54 H23       -1.3600    1.8169    7.0846 H         1 RES1    0.0000
     55 C24       -2.2750    0.6753    5.7036 C.ar      1 RES1    0.0000
     56 C25       -1.2103    0.4568    3.6998 C.ar      1 RES1    0.0000
     57 C26       -0.1644    1.2606    4.1067 C.ar      1 RES1    0.0000
@<TRIPOS>BOND
     1    1    3 2
     2    2    3 1
     3    3    8 2
     4    4   15 1
     5    5    6 1
     6    6   10 ar
     7    7   55 ar
     8    9   10 1
     9   10    2 ar
    10   11   16 1
    11   12   48 2
    12   13   15 ar
    13   14   45 1
    14   15    6 ar
    15   16    4 1
    16   17   16 1
    17   18   17 1
    18   19   13 1
    19   20   19 1
    20   21    2 ar
    21   22   21 1
    22   23   32 1
    23   24   25 1
    24   26   24 1
    25   27   24 1
    26   28   29 1
    27   30   28 1
    28   31   28 1
    29   32   16 1
    30   33   23 ar
    31   34   33 1
    32   35   33 ar
    33   36   35 1
    34   37   11 1
    35   38   37 1
    36   39   37 1
    37   40   11 1
    38   41   40 ar
    39   42   41 1
    40   43   35 ar
    41   44   43 1
    42   45   37 1
    43   46   45 1
    44   47   45 1
    45   48   14 1
    46   49   48 1
    47   50   49 ar
    48   51   57 1
    49   52   56 1
    50   53   55 1
    51   54   50 1
    52   55   50 ar
    53   56    7 ar
    54   57   49 ar
    55   13   21 ar
    56   17   19 2
    57   23   40 ar
    58   24   32 1
    59   28   32 1
    60   41   43 ar
    61   56   57 ar
@<TRIPOS>SUBSTRUCTURE
     1 RES1 1

@<TRIPOS>CRYSIN
  22.4072    8.3342   12.0143  90.0000  90.4520  90.0000  14 1

