# MOL2 file generated by ConQuest
# Please check atom types

@<TRIPOS>MOLECULE
IFUXAL
    45    48     1
SMALL
NO_CHARGES
****
Generated from CSD

@<TRIPOS>ATOM
      1 O1         2.1101   -0.4930    5.3749 O.3       1 RES1    0.0000
      2 O2         2.5818    8.8332    9.7451 O.2       1 RES1    0.0000
      3 O3         4.2885    7.9140   10.5980 O.2       1 RES1    0.0000
      4 N1         3.2232    4.4175    3.0245 N.pl3     1 RES1    0.0000
      5 N2         4.3454    5.1623    4.9797 N.pl3     1 RES1    0.0000
      6 H1         4.8666    4.4811    5.0474 H         1 RES1    0.0000
      7 N3         4.8937    8.8257    3.5066 N.1       1 RES1    0.0000
      8 N4         3.5105    8.0584    9.6815 N.pl3     1 RES1    0.0000
      9 C1         3.8183    5.4288    3.7421 C.2       1 RES1    0.0000
     10 C2         3.7899    6.5791    2.9788 C.2       1 RES1    0.0000
     11 C3         3.1247    6.2790    1.7560 C.ar      1 RES1    0.0000
     12 C4         2.7569    7.0324    0.6460 C.ar      1 RES1    0.0000
     13 H2         2.9722    7.9361    0.5933 H         1 RES1    0.0000
     14 C5         2.0686    6.4146   -0.3745 C.ar      1 RES1    0.0000
     15 H3         1.8058    6.9086   -1.1167 H         1 RES1    0.0000
     16 C6         1.7590    5.0571   -0.3067 C.ar      1 RES1    0.0000
     17 H4         1.2996    4.6595   -1.0112 H         1 RES1    0.0000
     18 C7         2.1172    4.2961    0.7704 C.ar      1 RES1    0.0000
     19 H5         1.9150    3.3890    0.8067 H         1 RES1    0.0000
     20 C8         2.7873    4.9189    1.8041 C.ar      1 RES1    0.0000
     21 C9         2.9216    3.1269    3.5683 C.ar      1 RES1    0.0000
     22 C10        2.1267    3.0403    4.7006 C.ar      1 RES1    0.0000
     23 H6         1.7611    3.8114    5.0704 H         1 RES1    0.0000
     24 C11        1.8767    1.8171    5.2784 C.ar      1 RES1    0.0000
     25 H7         1.3517    1.7625    6.0438 H         1 RES1    0.0000
     26 C12        2.4061    0.6693    4.7214 C.ar      1 RES1    0.0000
     27 C13        3.1874    0.7522    3.5815 C.ar      1 RES1    0.0000
     28 H8         3.5347   -0.0206    3.1982 H         1 RES1    0.0000
     29 C14        3.4488    1.9766    3.0168 C.ar      1 RES1    0.0000
     30 H9         3.9850    2.0310    2.2587 H         1 RES1    0.0000
     31 C15        4.1084    5.8897    6.1383 C.ar      1 RES1    0.0000
     32 C16        3.1716    6.9181    6.1785 C.ar      1 RES1    0.0000
     33 H10        2.6770    7.1315    5.4204 H         1 RES1    0.0000
     34 C17        2.9833    7.6151    7.3468 C.ar      1 RES1    0.0000
     35 H11        2.3621    8.3065    7.3787 H         1 RES1    0.0000
     36 C18        3.7058    7.2974    8.4630 C.ar      1 RES1    0.0000
     37 C19        4.6238    6.2614    8.4427 C.ar      1 RES1    0.0000
     38 H12        5.1087    6.0476    9.2070 H         1 RES1    0.0000
     39 C20        4.8093    5.5544    7.2863 C.ar      1 RES1    0.0000
     40 H13        5.4099    4.8443    7.2701 H         1 RES1    0.0000
     41 C21        4.4093    7.8173    3.3022 C.1       1 RES1    0.0000
     42 C22        2.9469   -1.6175    5.1255 C.3       1 RES1    0.0000
     43 H14        2.6986   -2.3364    5.7113 H         1 RES1    0.0000
     44 H15        3.8623   -1.3759    5.2861 H         1 RES1    0.0000
     45 H16        2.8443   -1.8967    4.2136 H         1 RES1    0.0000
@<TRIPOS>BOND
     1    1   26 1
     2    2    8 2
     3    3    8 2
     4    4    9 1
     5    5    6 1
     6    7   41 3
     7    8   36 1
     8    9    5 1
     9   10    9 2
    10   11   10 1
    11   12   11 ar
    12   13   12 1
    13   14   12 ar
    14   15   14 1
    15   16   14 ar
    16   17   16 1
    17   18   16 ar
    18   19   18 1
    19   20    4 1
    20   21    4 1
    21   22   21 ar
    22   23   22 1
    23   24   22 ar
    24   25   24 1
    25   26   24 ar
    26   27   26 ar
    27   28   27 1
    28   29   21 ar
    29   30   29 1
    30   31    5 1
    31   32   31 ar
    32   33   32 1
    33   34   32 ar
    34   35   34 1
    35   36   34 ar
    36   37   36 ar
    37   38   37 1
    38   39   31 ar
    39   40   39 1
    40   41   10 1
    41   42    1 1
    42   43   42 1
    43   44   42 1
    44   45   42 1
    45   11   20 ar
    46   18   20 ar
    47   27   29 ar
    48   37   39 ar
@<TRIPOS>SUBSTRUCTURE
     1 RES1 1

@<TRIPOS>CRYSIN
   8.4804   12.5579   18.2886  90.0000 102.7990  90.0000 231 1

