# MOL2 file generated by ConQuest
# Please check atom types

@<TRIPOS>MOLECULE
IGAFOM01
    40    42     1
SMALL
NO_CHARGES
****
Generated from CSD

@<TRIPOS>ATOM
      1 O1         9.4808    9.2201   -0.6539 O.2       1 RES1    0.0000
      2 O2        10.0300    7.7243   -2.1052 O.2       1 RES1    0.0000
      3 N1         9.6186    8.0452   -1.0032 N.pl3     1 RES1    0.0000
      4 C1         9.2499    6.9894   -0.0633 C.ar      1 RES1    0.0000
      5 C2         8.8718    7.3495    1.2201 C.ar      1 RES1    0.0000
      6 H1         8.8584    8.2614    1.4848 H         1 RES1    0.0000
      7 C3         8.5150    6.3515    2.1050 C.ar      1 RES1    0.0000
      8 H2         8.2682    6.5849    2.9915 H         1 RES1    0.0000
      9 C4         8.5093    5.0038    1.7250 C.ar      1 RES1    0.0000
     10 C5         8.1335    3.9378    2.7618 C.3       1 RES1    0.0000
     11 C6         8.0361    2.5485    2.1623 C.ar      1 RES1    0.0000
     12 C7         9.0772    1.6868    1.8102 C.ar      1 RES1    0.0000
     13 H3         9.9819    1.9457    1.9427 H         1 RES1    0.0000
     14 C8         8.7731    0.4498    1.2660 C.ar      1 RES1    0.0000
     15 H4         9.4738   -0.1415    1.0188 H         1 RES1    0.0000
     16 C9         7.4562    0.0689    1.0803 C.ar      1 RES1    0.0000
     17 H5         7.2624   -0.7801    0.7019 H         1 RES1    0.0000
     18 C10        6.4162    0.9130    1.4399 C.ar      1 RES1    0.0000
     19 H6         5.5134    0.6432    1.3194 H         1 RES1    0.0000
     20 C11        6.7124    2.1635    1.9811 C.ar      1 RES1    0.0000
     21 C12        5.7537    3.2498    2.4378 C.3       1 RES1    0.0000
     22 C13        4.5883    2.6847    3.2565 C.3       1 RES1    0.0000
     23 H7         4.0290    2.1217    2.6816 H         1 RES1    0.0000
     24 H8         4.0516    3.4231    3.6137 H         1 RES1    0.0000
     25 H9         4.9392    2.1482    3.9976 H         1 RES1    0.0000
     26 C14        6.6823    4.1340    3.3025 C.3       1 RES1    0.0000
     27 H10        6.6293    3.8614    4.2532 H         1 RES1    0.0000
     28 H11        6.4153    5.0845    3.2321 H         1 RES1    0.0000
     29 C15        5.2083    4.0255    1.2333 C.3       1 RES1    0.0000
     30 H12        5.9544    4.4103    0.7274 H         1 RES1    0.0000
     31 H13        4.6211    4.7451    1.5461 H         1 RES1    0.0000
     32 H14        4.7015    3.4173    0.6557 H         1 RES1    0.0000
     33 C16        9.1646    3.9974    3.8994 C.3       1 RES1    0.0000
     34 H15        9.0015    3.2631    4.5272 H         1 RES1    0.0000
     35 H16        9.0833    4.8533    4.3699 H         1 RES1    0.0000
     36 H17       10.0673    3.9144    3.5269 H         1 RES1    0.0000
     37 C17        8.8848    4.6901    0.4184 C.ar      1 RES1    0.0000
     38 H18        8.8799    3.7821    0.1399 H         1 RES1    0.0000
     39 C18        9.2640    5.6735   -0.4826 C.ar      1 RES1    0.0000
     40 H19        9.5269    5.4481   -1.3668 H         1 RES1    0.0000
@<TRIPOS>BOND
     1    1    3 2
     2    2    3 2
     3    3    4 1
     4    4    5 ar
     5    5    6 1
     6    7    5 ar
     7    8    7 1
     8    9    7 ar
     9   10    9 1
    10   11   10 1
    11   12   11 ar
    12   13   12 1
    13   14   12 ar
    14   15   14 1
    15   16   14 ar
    16   17   16 1
    17   18   16 ar
    18   19   18 1
    19   20   11 ar
    20   21   20 1
    21   22   21 1
    22   23   22 1
    23   24   22 1
    24   25   22 1
    25   26   10 1
    26   27   26 1
    27   28   26 1
    28   29   21 1
    29   30   29 1
    30   31   29 1
    31   32   29 1
    32   33   10 1
    33   34   33 1
    34   35   33 1
    35   36   33 1
    36   37    9 ar
    37   38   37 1
    38   39    4 ar
    39   40   39 1
    40   18   20 ar
    41   21   26 1
    42   37   39 ar
@<TRIPOS>SUBSTRUCTURE
     1 RES1 1

@<TRIPOS>CRYSIN
  11.1208   11.5061   11.8471  90.0000 102.5560  90.0000  14 1

