# MOL2 file generated by ConQuest
# Please check atom types

@<TRIPOS>MOLECULE
IGAFED
    73    76     1
SMALL
USER_CHARGES
****
Generated from CSD

@<TRIPOS>ATOM
      1 O1         6.7557   13.6190   21.5799 O.3       1 RES1    0.0000
      2 O2         4.8278   13.9501   22.6688 O.2       1 RES1    0.0000
      3 O3        13.2262   14.5195   27.3349 O.3       1 RES1    0.0000
      4 H1        13.6749   14.8507   27.9371 H         1 RES1    0.0000
      5 O4        11.7215   14.4535   28.8637 O.2       1 RES1    0.0000
      6 N1         8.1923   14.1482   23.7039 N.2       1 RES1   -1.0000
      7 N2        12.0541   14.4443   27.6915 N.pl3     1 RES1    1.0000
      8 C1         6.7517   13.9465   19.1488 C.3       1 RES1    0.0000
      9 H2         7.6700   13.6055   19.1058 H         1 RES1    0.0000
     10 C2         6.0110   13.8104   22.6660 C.2       1 RES1    0.0000
     11 C3         6.8227   13.7193   23.9416 C.3       1 RES1    0.0000
     12 H3         6.4217   14.3106   24.6108 H         1 RES1    0.0000
     13 C4         6.0734   13.2745   20.3271 C.3       1 RES1    0.0000
     14 H4         5.1422   13.5766   20.3767 H         1 RES1    0.0000
     15 C5         9.1062   14.2204   24.7053 C.ar      1 RES1    0.0000
     16 C6         9.7343   14.3286   27.0227 C.ar      1 RES1    0.0000
     17 H5         9.4961   14.3559   27.9208 H         1 RES1    0.0000
     18 C7        11.0432   14.3697   26.6733 C.ar      1 RES1    0.0000
     19 C8         6.0145   13.4371   17.8991 C.3       1 RES1    0.0000
     20 H6         5.0919   13.7361   17.9326 H         1 RES1    0.0000
     21 H7         6.4243   13.8240   17.1086 H         1 RES1    0.0000
     22 C9        10.4585   14.2861   24.3724 C.ar      1 RES1    0.0000
     23 H8        10.7114   14.2886   23.4772 H         1 RES1    0.0000
     24 C10        8.7615   14.2476   26.0642 C.ar      1 RES1    0.0000
     25 H9         7.8666   14.2102   26.3146 H         1 RES1    0.0000
     26 C11        6.8375   15.5089   19.2536 C.3       1 RES1    0.0000
     27 C12       11.4157   14.3475   25.3426 C.ar      1 RES1    0.0000
     28 H10       12.3158   14.3738   25.1089 H         1 RES1    0.0000
     29 C13        6.0985   11.7743   20.2466 C.3       1 RES1    0.0000
     30 H11        5.6455   11.4078   21.0215 H         1 RES1    0.0000
     31 H12        7.0203   11.4710   20.2696 H         1 RES1    0.0000
     32 C14        7.9783   15.9331   20.1819 C.ar      1 RES1    0.0000
     33 C15        6.4251    9.6192   25.2763 C.ar      1 RES1    0.0000
     34 C16        6.0422   11.9313   17.7820 C.3       1 RES1    0.0000
     35 H13        5.5615   11.6675   16.9829 H         1 RES1    0.0000
     36 H14        6.9622   11.6387   17.6859 H         1 RES1    0.0000
     37 C17        7.4387   11.2593   23.8422 C.ar      1 RES1    0.0000
     38 H15        8.0381   11.4572   23.1606 H         1 RES1    0.0000
     39 C18        5.5008   16.1057   19.6828 C.3       1 RES1    0.0000
     40 H16        5.5450   17.0635   19.6272 H         1 RES1    0.0000
     41 H17        5.3094   15.8458   20.5862 H         1 RES1    0.0000
     42 H18        4.8061   15.7840   19.1034 H         1 RES1    0.0000
     43 C19        5.8612   11.9592   25.4643 C.ar      1 RES1    0.0000
     44 H19        5.3735   12.6283   25.8887 H         1 RES1    0.0000
     45 C20        6.7153   12.2827   24.4348 C.ar      1 RES1    0.0000
     46 C21        5.4280   11.2413   18.9752 C.3       1 RES1    0.0000
     47 H20        4.4795   11.4861   19.0103 H         1 RES1    0.0000
     48 C22        7.2810    9.9630   24.2481 C.ar      1 RES1    0.0000
     49 H21        7.7644    9.2939   23.8194 H         1 RES1    0.0000
     50 C23        5.7243   10.6423   25.8710 C.ar      1 RES1    0.0000
     51 H22        5.1404   10.4443   26.5684 H         1 RES1    0.0000
     52 C24        7.8008   16.7212   21.3024 C.ar      1 RES1    0.0000
     53 H23        6.9362   16.9618   21.5475 H         1 RES1    0.0000
     54 C25        6.2553    8.1902   25.7357 C.3       1 RES1    0.0000
     55 H24        5.3709    7.8865   25.5186 H         1 RES1    0.0000
     56 H25        6.3844    8.1407   26.6848 H         1 RES1    0.0000
     57 H26        6.9024    7.6336   25.2951 H         1 RES1    0.0000
     58 C26        5.5181    9.7241   18.9040 C.3       1 RES1    0.0000
     59 H27        6.4407    9.4588   18.8963 H         1 RES1    0.0000
     60 H28        5.0902    9.4148   18.1025 H         1 RES1    0.0000
     61 H29        5.0807    9.3420   19.6691 H         1 RES1    0.0000
     62 C27       10.1206   16.8340   21.7342 C.ar      1 RES1    0.0000
     63 H30       10.8362   17.1433   22.2412 H         1 RES1    0.0000
     64 C28        7.1718   16.1097   17.8518 C.3       1 RES1    0.0000
     65 H31        7.3226   17.0539   17.9373 H         1 RES1    0.0000
     66 H32        6.4364   15.9558   17.2552 H         1 RES1    0.0000
     67 H33        7.9610   15.6891   17.5020 H         1 RES1    0.0000
     68 C29        9.2855   15.5908   19.8709 C.ar      1 RES1    0.0000
     69 H34        9.4536   15.0514   19.1337 H         1 RES1    0.0000
     70 C30        8.8507   17.1639   22.0701 C.ar      1 RES1    0.0000
     71 H35        8.6896   17.6917   22.8208 H         1 RES1    0.0000
     72 C31       10.3398   16.0382   20.6397 C.ar      1 RES1    0.0000
     73 H36       11.2095   15.7977   20.4116 H         1 RES1    0.0000
@<TRIPOS>BOND
     1    1   10 1
     2    2   10 2
     3    3    4 1
     4    5    7 2
     5    6   11 1
     6    7    3 1
     7    8    9 1
     8   10   11 1
     9   11   12 1
    10   13    1 1
    11   14   13 1
    12   15    6 1
    13   16   17 1
    14   18    7 1
    15   19    8 1
    16   20   19 1
    17   21   19 1
    18   22   15 ar
    19   23   22 1
    20   24   15 ar
    21   25   24 1
    22   26    8 1
    23   27   18 ar
    24   28   27 1
    25   29   13 1
    26   30   29 1
    27   31   29 1
    28   32   26 1
    29   33   48 ar
    30   34   19 1
    31   35   34 1
    32   36   34 1
    33   37   38 1
    34   39   26 1
    35   40   39 1
    36   41   39 1
    37   42   39 1
    38   43   44 1
    39   45   11 1
    40   46   29 1
    41   47   46 1
    42   48   37 ar
    43   49   48 1
    44   50   33 ar
    45   51   50 1
    46   52   32 ar
    47   53   52 1
    48   54   33 1
    49   55   54 1
    50   56   54 1
    51   57   54 1
    52   58   46 1
    53   59   58 1
    54   60   58 1
    55   61   58 1
    56   62   63 1
    57   64   26 1
    58   65   64 1
    59   66   64 1
    60   67   64 1
    61   68   32 ar
    62   69   68 1
    63   70   52 ar
    64   71   70 1
    65   72   62 ar
    66   73   72 1
    67    8   13 1
    68   16   18 ar
    69   16   24 ar
    70   22   27 ar
    71   34   46 1
    72   37   45 ar
    73   43   45 ar
    74   43   50 ar
    75   62   70 ar
    76   68   72 ar
@<TRIPOS>SUBSTRUCTURE
     1 RES1 1

@<TRIPOS>CRYSIN
   8.6627   13.7443   23.2770  90.0000  90.0000  90.0000  19 1

