# MOL2 file generated by ConQuest
# Please check atom types

@<TRIPOS>MOLECULE
IGAPAH
    80    85     1
SMALL
NO_CHARGES
****
Generated from CSD

@<TRIPOS>ATOM
      1 O1         1.5124   11.6994    3.5305 O.3       1 RES1    0.0000
      2 O2         1.8499   15.6794    4.8308 O.3       1 RES1    0.0000
      3 O3         2.9791    9.3788   -2.6556 O.2       1 RES1    0.0000
      4 O4         4.6758    9.0312   -3.3122 O.2       1 RES1    0.0000
      5 O5         7.4662   16.2024    6.5358 O.2       1 RES1    0.0000
      6 O6         6.4494   17.3285    5.1932 O.2       1 RES1    0.0000
      7 N1         2.4162   14.3320    0.8230 N.ar      1 RES1    0.0000
      8 N2         1.9821   11.3429    0.8776 N.3       1 RES1    0.0000
      9 N3         3.4376   16.2633    2.6363 N.3       1 RES1    0.0000
     10 N4         4.0727    9.3075   -2.4330 N.pl3     1 RES1    0.0000
     11 N5         6.7113   16.2663    5.6248 N.pl3     1 RES1    0.0000
     12 C1         2.9009   15.4997    0.3642 C.ar      1 RES1    0.0000
     13 C2         2.5493   16.0063   -0.8662 C.ar      1 RES1    0.0000
     14 H1         2.8915   16.8219   -1.1518 H         1 RES1    0.0000
     15 C3         1.5548   13.6545    0.0386 C.ar      1 RES1    0.0000
     16 C4         0.9805   12.3977    0.6284 C.3       1 RES1    0.0000
     17 H2         0.5439   12.6175    1.4653 H         1 RES1    0.0000
     18 H3         0.3050   12.0500    0.0250 H         1 RES1    0.0000
     19 C5         1.4162   10.2732    1.6545 C.ar      1 RES1    0.0000
     20 C6         1.6924   15.2991   -1.6686 C.ar      1 RES1    0.0000
     21 H4         1.4517   15.6245   -2.5057 H         1 RES1    0.0000
     22 C7         1.1965   14.1017   -1.2145 C.ar      1 RES1    0.0000
     23 H5         0.6242   13.5981   -1.7470 H         1 RES1    0.0000
     24 C8         1.1142    9.0342    1.1154 C.ar      1 RES1    0.0000
     25 H6         1.2768    8.8841    0.2135 H         1 RES1    0.0000
     26 C9         0.5792    8.0165    1.8787 C.ar      1 RES1    0.0000
     27 H7         0.4043    7.1860    1.4971 H         1 RES1    0.0000
     28 C10        0.3087    8.2349    3.1986 C.ar      1 RES1    0.0000
     29 H8        -0.0637    7.5575    3.7143 H         1 RES1    0.0000
     30 C11        0.5888    9.4606    3.7643 C.ar      1 RES1    0.0000
     31 H9         0.3932    9.6076    4.6616 H         1 RES1    0.0000
     32 C12        1.1594   10.4752    3.0100 C.ar      1 RES1    0.0000
     33 C13        1.1264   11.9921    4.8726 C.3       1 RES1    0.0000
     34 H10        1.4602   11.3072    5.4703 H         1 RES1    0.0000
     35 H11        0.1592   12.0159    4.9433 H         1 RES1    0.0000
     36 C14        1.7012   13.3292    5.2497 C.3       1 RES1    0.0000
     37 H12        1.4546   13.5282    6.1677 H         1 RES1    0.0000
     38 H13        2.6690   13.2757    5.2113 H         1 RES1    0.0000
     39 C15        1.2488   14.4523    4.3776 C.3       1 RES1    0.0000
     40 H14        1.5068   14.2800    3.4598 H         1 RES1    0.0000
     41 H15        0.2830   14.5281    4.4140 H         1 RES1    0.0000
     42 C16        1.5129   16.7565    4.0321 C.ar      1 RES1    0.0000
     43 C17        0.4357   17.5573    4.3867 C.ar      1 RES1    0.0000
     44 H16       -0.0439   17.3716    5.1614 H         1 RES1    0.0000
     45 C18        0.0747   18.6240    3.5939 C.ar      1 RES1    0.0000
     46 H17       -0.6599   19.1484    3.8165 H         1 RES1    0.0000
     47 C19        0.8150   18.9063    2.4626 C.ar      1 RES1    0.0000
     48 H18        0.5792   19.6283    1.9264 H         1 RES1    0.0000
     49 C20        1.9089   18.1248    2.1195 C.ar      1 RES1    0.0000
     50 H19        2.3893   18.3179    1.3471 H         1 RES1    0.0000
     51 C21        2.2896   17.0611    2.9151 C.ar      1 RES1    0.0000
     52 C22        3.8932   16.1890    1.2615 C.3       1 RES1    0.0000
     53 H20        4.7356   15.7092    1.2313 H         1 RES1    0.0000
     54 H21        4.0507   17.0863    0.9291 H         1 RES1    0.0000
     55 C23        2.6491   10.9373   -0.3635 C.3       1 RES1    0.0000
     56 H22        2.8736   11.7306   -0.8746 H         1 RES1    0.0000
     57 H23        2.0351   10.4054   -0.8951 H         1 RES1    0.0000
     58 C24        3.9083   10.1380   -0.1122 C.ar      1 RES1    0.0000
     59 C25        4.5661    9.3937   -1.0782 C.ar      1 RES1    0.0000
     60 C26        5.7443    8.7266   -0.8405 C.ar      1 RES1    0.0000
     61 H24        6.1490    8.2349   -1.5198 H         1 RES1    0.0000
     62 C27        6.3210    8.7890    0.4021 C.ar      1 RES1    0.0000
     63 H25        7.1191    8.3434    0.5747 H         1 RES1    0.0000
     64 C28        5.7100    9.5126    1.3812 C.ar      1 RES1    0.0000
     65 H26        6.0963    9.5616    2.2263 H         1 RES1    0.0000
     66 C29        4.5161   10.1751    1.1336 C.ar      1 RES1    0.0000
     67 H27        4.1140   10.6580    1.8197 H         1 RES1    0.0000
     68 C30        4.5231   16.4431    3.5961 C.3       1 RES1    0.0000
     69 H28        4.1789   16.9096    4.3731 H         1 RES1    0.0000
     70 H29        5.2063   17.0031    3.1940 H         1 RES1    0.0000
     71 C31        5.1584   15.1416    4.0478 C.ar      1 RES1    0.0000
     72 C32        6.1835   15.0718    4.9985 C.ar      1 RES1    0.0000
     73 C33        6.7362   13.8714    5.4090 C.ar      1 RES1    0.0000
     74 H30        7.4240   13.8610    6.0360 H         1 RES1    0.0000
     75 C34        6.2658   12.7097    4.8865 C.ar      1 RES1    0.0000
     76 H31        6.6330   11.8970    5.1500 H         1 RES1    0.0000
     77 C35        5.2485   12.7438    3.9733 C.ar      1 RES1    0.0000
     78 H32        4.9194   11.9431    3.6348 H         1 RES1    0.0000
     79 C36        4.6967   13.9279    3.5434 C.ar      1 RES1    0.0000
     80 H33        4.0128   13.9190    2.9124 H         1 RES1    0.0000
@<TRIPOS>BOND
     1    1   32 1
     2    2   39 1
     3    3   10 2
     4    4   10 2
     5    5   11 2
     6    6   11 2
     7    7   12 ar
     8    8   16 1
     9    9   51 1
    10   10   59 1
    11   11   72 1
    12   12   13 ar
    13   13   14 1
    14   15    7 ar
    15   16   15 1
    16   17   16 1
    17   18   16 1
    18   19    8 1
    19   20   13 ar
    20   21   20 1
    21   22   15 ar
    22   23   22 1
    23   24   19 ar
    24   25   24 1
    25   26   24 ar
    26   27   26 1
    27   28   26 ar
    28   29   28 1
    29   30   28 ar
    30   31   30 1
    31   32   19 ar
    32   33    1 1
    33   34   33 1
    34   35   33 1
    35   36   33 1
    36   37   36 1
    37   38   36 1
    38   39   36 1
    39   40   39 1
    40   41   39 1
    41   42    2 1
    42   43   42 ar
    43   44   43 1
    44   45   43 ar
    45   46   45 1
    46   47   45 ar
    47   48   47 1
    48   49   47 ar
    49   50   49 1
    50   51   42 ar
    51   52    9 1
    52   53   52 1
    53   54   52 1
    54   55    8 1
    55   56   55 1
    56   57   55 1
    57   58   55 1
    58   59   58 ar
    59   60   59 ar
    60   61   60 1
    61   62   60 ar
    62   63   62 1
    63   64   62 ar
    64   65   64 1
    65   66   58 ar
    66   67   66 1
    67   68    9 1
    68   69   68 1
    69   70   68 1
    70   71   68 1
    71   72   71 ar
    72   73   72 ar
    73   74   73 1
    74   75   73 ar
    75   76   75 1
    76   77   75 ar
    77   78   77 1
    78   79   71 ar
    79   80   79 1
    80   12   52 1
    81   20   22 ar
    82   30   32 ar
    83   49   51 ar
    84   64   66 ar
    85   77   79 ar
@<TRIPOS>SUBSTRUCTURE
     1 RES1 1

@<TRIPOS>CRYSIN
   9.4728   14.8564   22.7360  90.0000  92.3260  90.0000 231 1

