# MOL2 file generated by ConQuest
# Please check atom types

@<TRIPOS>MOLECULE
IGAQUD
    53    54     1
SMALL
NO_CHARGES
****
Generated from CSD

@<TRIPOS>ATOM
      1 N1         2.2647    3.4751    4.9877 N.2       1 RES1    0.0000
      2 O1         2.8107    2.7634    6.0613 O.3       1 RES1    0.0000
      3 O2         0.3363    4.2614    3.5116 O.3       1 RES1    0.0000
      4 H1         0.6980    3.7829    4.0714 H         1 RES1    0.0000
      5 C1         1.7733    1.9991    6.6786 C.3       1 RES1    0.0000
      6 H2         2.1740    1.3499    7.2774 H         1 RES1    0.0000
      7 H3         1.2921    1.5105    5.9934 H         1 RES1    0.0000
      8 C2         0.7969    2.8388    7.4544 C.3       1 RES1    0.0000
      9 H4         1.2844    3.3753    8.0986 H         1 RES1    0.0000
     10 H5         0.3460    3.4438    6.8440 H         1 RES1    0.0000
     11 C3        -0.2313    2.0198    8.1787 C.3       1 RES1    0.0000
     12 H6        -0.6827    1.4475    7.5392 H         1 RES1    0.0000
     13 H7         0.2201    1.4475    8.8183 H         1 RES1    0.0000
     14 C4         4.5439    4.2771    4.7862 C.3       1 RES1    0.0000
     15 H8         4.6860    3.6974    5.5386 H         1 RES1    0.0000
     16 H9         4.7678    5.1780    5.0299 H         1 RES1    0.0000
     17 H10        5.1001    3.9950    4.0566 H         1 RES1    0.0000
     18 C5         3.1134    4.2150    4.3730 C.2       1 RES1    0.0000
     19 C6         2.6096    4.9976    3.2478 C.ar      1 RES1    0.0000
     20 C7         1.2713    5.0008    2.8773 C.ar      1 RES1    0.0000
     21 C8         0.8328    5.7706    1.8271 C.ar      1 RES1    0.0000
     22 H11       -0.0670    5.7669    1.5899 H         1 RES1    0.0000
     23 C9         1.7149    6.5376    1.1336 C.ar      1 RES1    0.0000
     24 H12        1.4120    7.0570    0.4237 H         1 RES1    0.0000
     25 C10        3.0221    6.5573    1.4574 C.ar      1 RES1    0.0000
     26 H13        3.6155    7.0819    0.9716 H         1 RES1    0.0000
     27 C11        3.4734    5.7986    2.5109 C.ar      1 RES1    0.0000
     28 H14        4.3763    5.8221    2.7333 H         1 RES1    0.0000
     29 N1A       -2.7273    3.4751   11.3697 N.2       1 RES1    0.0000
     30 O1A       -3.2733    2.7634   10.2962 O.3       1 RES1    0.0000
     31 O2A       -0.7989    4.2614   12.8458 O.3       1 RES1    0.0000
     32 H1A       -1.1606    3.7829   12.2861 H         1 RES1    0.0000
     33 C1A       -2.2359    1.9991    9.6789 C.3       1 RES1    0.0000
     34 H2A       -2.6366    1.3499    9.0800 H         1 RES1    0.0000
     35 H3A       -1.7547    1.5105   10.3641 H         1 RES1    0.0000
     36 C2A       -1.2595    2.8388    8.9030 C.3       1 RES1    0.0000
     37 H4A       -1.7471    3.3753    8.2589 H         1 RES1    0.0000
     38 H5A       -0.8086    3.4438    9.5135 H         1 RES1    0.0000
     39 C4A       -5.0065    4.2771   11.5713 C.3       1 RES1    0.0000
     40 H8A       -5.1486    3.6974   10.8188 H         1 RES1    0.0000
     41 H9A       -5.2304    5.1780   11.3275 H         1 RES1    0.0000
     42 H10A      -5.5627    3.9950   12.3008 H         1 RES1    0.0000
     43 C5A       -3.5760    4.2150   11.9845 C.2       1 RES1    0.0000
     44 C6A       -3.0722    4.9976   13.1097 C.ar      1 RES1    0.0000
     45 C7A       -1.7339    5.0008   13.4802 C.ar      1 RES1    0.0000
     46 C8A       -1.2954    5.7706   14.5303 C.ar      1 RES1    0.0000
     47 H11A      -0.3956    5.7669   14.7675 H         1 RES1    0.0000
     48 C9A       -2.1775    6.5376   15.2239 C.ar      1 RES1    0.0000
     49 H12A      -1.8746    7.0570   15.9338 H         1 RES1    0.0000
     50 C10A      -3.4847    6.5573   14.9000 C.ar      1 RES1    0.0000
     51 H13A      -4.0781    7.0819   15.3858 H         1 RES1    0.0000
     52 C11A      -3.9360    5.7986   13.8466 C.ar      1 RES1    0.0000
     53 H14A      -4.8389    5.8221   13.6241 H         1 RES1    0.0000
@<TRIPOS>BOND
     1    1    2 1
     2    2    5 1
     3    3    4 1
     4    5    6 1
     5    7    5 1
     6    8    5 1
     7    9    8 1
     8   10    8 1
     9   11    8 1
    10   12   11 1
    11   13   11 1
    12   14   15 1
    13   16   14 1
    14   17   14 1
    15   18    1 2
    16   19   18 1
    17   20    3 1
    18   21   20 ar
    19   22   21 1
    20   23   21 ar
    21   24   23 1
    22   25   23 ar
    23   26   25 1
    24   27   19 ar
    25   28   27 1
    26   29   30 1
    27   30   33 1
    28   31   32 1
    29   33   34 1
    30   35   33 1
    31   36   11 1
    32   37   36 1
    33   38   36 1
    34   39   40 1
    35   41   39 1
    36   42   39 1
    37   43   29 2
    38   44   43 1
    39   45   31 1
    40   46   45 ar
    41   47   46 1
    42   48   46 ar
    43   49   48 1
    44   50   48 ar
    45   51   50 1
    46   52   44 ar
    47   53   52 1
    48   14   18 1
    49   19   20 ar
    50   25   27 ar
    51   33   36 1
    52   39   43 1
    53   44   45 ar
    54   50   52 ar
@<TRIPOS>SUBSTRUCTURE
     1 RES1 1

@<TRIPOS>CRYSIN
  12.9690    4.6010   16.3640  90.0000  91.6200  90.0000   5 1

