# MOL2 file generated by ConQuest
# Please check atom types

@<TRIPOS>MOLECULE
IGAQIR
    55    58     1
SMALL
NO_CHARGES
****
Generated from CSD

@<TRIPOS>ATOM
      1 N1        13.6912    2.3307    7.0160 N.pl3     1 RES1    0.0000
      2 N2         5.7277    2.1354    0.0115 N.2       1 RES1    0.0000
      3 N3         4.6260   -0.5195   -2.0980 N.3       1 RES1    0.0000
      4 N4         4.0049    0.5551   -2.7544 N.am      1 RES1    0.0000
      5 O1        14.7938    2.8282    6.8214 O.2       1 RES1    0.0000
      6 O2        13.4903    1.3783    7.7235 O.2       1 RES1    0.0000
      7 O3         8.6783    4.1321    3.5571 O.3       1 RES1    0.0000
      8 O4         3.6680    2.7923   -2.2673 O.2       1 RES1    0.0000
      9 C1        10.2049    3.1073    6.0550 C.ar      1 RES1    0.0000
     10 H1         9.3472    2.8068    6.2508 H         1 RES1    0.0000
     11 C2        11.2930    2.4753    6.6214 C.ar      1 RES1    0.0000
     12 H2        11.1803    1.7444    7.1846 H         1 RES1    0.0000
     13 C3        12.5417    2.9520    6.3314 C.ar      1 RES1    0.0000
     14 C4        12.7352    3.9811    5.4669 C.ar      1 RES1    0.0000
     15 H3        13.5952    4.2712    5.2652 H         1 RES1    0.0000
     16 C5        11.6497    4.5843    4.8992 C.ar      1 RES1    0.0000
     17 H4        11.7758    5.2806    4.2955 H         1 RES1    0.0000
     18 C6        10.3712    4.1774    5.2048 C.ar      1 RES1    0.0000
     19 C7         9.1970    4.8969    4.6374 C.3       1 RES1    0.0000
     20 H5         8.5172    5.0109    5.3200 H         1 RES1    0.0000
     21 H6         9.4664    5.7739    4.3243 H         1 RES1    0.0000
     22 C8         7.5861    4.6382    2.8908 C.ar      1 RES1    0.0000
     23 C9         7.0681    3.8324    1.9032 C.ar      1 RES1    0.0000
     24 H7         7.4763    3.0179    1.7162 H         1 RES1    0.0000
     25 C10        5.9520    4.2161    1.1852 C.ar      1 RES1    0.0000
     26 C11        5.3711    5.4381    1.4604 C.ar      1 RES1    0.0000
     27 H8         4.6224    5.7144    0.9827 H         1 RES1    0.0000
     28 C12        5.8961    6.2470    2.4368 C.ar      1 RES1    0.0000
     29 H9         5.4996    7.0706    2.6096 H         1 RES1    0.0000
     30 C13        7.0017    5.8611    3.1675 C.ar      1 RES1    0.0000
     31 H10        7.3467    6.4129    3.8329 H         1 RES1    0.0000
     32 C14        5.3812    3.3578    0.1447 C.2       1 RES1    0.0000
     33 H11        4.7479    3.7133   -0.4366 H         1 RES1    0.0000
     34 C15        5.1624    1.3502   -0.9921 C.2       1 RES1    0.0000
     35 C16        5.3934    0.0159   -1.1078 C.2       1 RES1    0.0000
     36 C17        4.2302    1.7296   -2.0283 C.2       1 RES1    0.0000
     37 C18        6.2995   -0.8417   -0.3053 C.3       1 RES1    0.0000
     38 H12        5.8380   -1.6443   -0.0504 H         1 RES1    0.0000
     39 H13        6.5742   -0.3667    0.4827 H         1 RES1    0.0000
     40 H14        7.0721   -1.0680   -0.8285 H         1 RES1    0.0000
     41 C19        5.0595   -1.6249   -2.9381 C.3       1 RES1    0.0000
     42 H15        5.7228   -1.3136   -3.5591 H         1 RES1    0.0000
     43 H16        4.3076   -1.9742   -3.4208 H         1 RES1    0.0000
     44 H17        5.4357   -2.3161   -2.3876 H         1 RES1    0.0000
     45 C20        2.8355    0.3294   -3.5375 C.ar      1 RES1    0.0000
     46 C21        1.9687   -0.6903   -3.2452 C.ar      1 RES1    0.0000
     47 H18        2.1392   -1.2642   -2.5332 H         1 RES1    0.0000
     48 C22        0.8385   -0.8532   -4.0202 C.ar      1 RES1    0.0000
     49 H19        0.2675   -1.5683   -3.8516 H         1 RES1    0.0000
     50 C23        0.5440    0.0150   -5.0329 C.ar      1 RES1    0.0000
     51 H20       -0.2358   -0.0851   -5.5304 H         1 RES1    0.0000
     52 C24        1.4137    1.0352   -5.3030 C.ar      1 RES1    0.0000
     53 H21        1.2201    1.6343   -5.9871 H         1 RES1    0.0000
     54 C25        2.5663    1.1848   -4.5782 C.ar      1 RES1    0.0000
     55 H22        3.1657    1.8634   -4.7897 H         1 RES1    0.0000
@<TRIPOS>BOND
     1    1    5 2
     2    2   32 2
     3    3    4 1
     4    4   36 1
     5    6    1 2
     6    7   19 1
     7    8   36 2
     8    9   10 1
     9   11    9 ar
    10   12   11 1
    11   13    1 1
    12   14   13 ar
    13   15   14 1
    14   16   14 ar
    15   17   16 1
    16   18    9 ar
    17   19   18 1
    18   20   19 1
    19   21   19 1
    20   22    7 1
    21   23   22 ar
    22   24   23 1
    23   25   23 ar
    24   26   25 ar
    25   27   26 1
    26   28   26 ar
    27   29   28 1
    28   30   22 ar
    29   31   30 1
    30   32   25 1
    31   33   32 1
    32   34    2 1
    33   35    3 1
    34   36   34 1
    35   37   35 1
    36   38   37 1
    37   39   37 1
    38   40   37 1
    39   41    3 1
    40   42   41 1
    41   43   41 1
    42   44   41 1
    43   45    4 1
    44   46   45 ar
    45   47   46 1
    46   48   46 ar
    47   49   48 1
    48   50   48 ar
    49   51   50 1
    50   52   50 ar
    51   53   52 1
    52   54   45 ar
    53   55   54 1
    54   11   13 ar
    55   16   18 ar
    56   28   30 ar
    57   34   35 2
    58   52   54 ar
@<TRIPOS>SUBSTRUCTURE
     1 RES1 1

@<TRIPOS>CRYSIN
   8.0030    9.7980   14.4250  90.8440  92.3100 101.2020   2 1

