# MOL2 file generated by ConQuest
# Please check atom types

@<TRIPOS>MOLECULE
IGASAL
    31    32     1
SMALL
NO_CHARGES
****
Generated from CSD

@<TRIPOS>ATOM
      1 O1         4.7379   -2.8929    2.4401 O.2       1 RES1    0.0000
      2 O2         4.1384   -0.9116    3.0261 O.2       1 RES1    0.0000
      3 O3         8.8301   -3.7737    0.2631 O.2       1 RES1    0.0000
      4 O4        10.2128   -2.1781   -0.1453 O.2       1 RES1    0.0000
      5 N1         4.9528   -1.7026    2.5345 N.pl3     1 RES1    0.0000
      6 N2         9.1659   -2.6049    0.3221 N.pl3     1 RES1    0.0000
      7 N3         5.7327    1.1204    2.6822 N.pl3     1 RES1    0.0000
      8 H1         4.9401    0.9085    2.9397 H         1 RES1    0.0000
      9 N4         6.1855    2.4251    2.8009 N.2       1 RES1    0.0000
     10 C1         6.5537    0.1918    2.1568 C.ar      1 RES1    0.0000
     11 C2         6.2169   -1.1754    2.0438 C.ar      1 RES1    0.0000
     12 C3         7.0724   -2.0851    1.4553 C.ar      1 RES1    0.0000
     13 H2         6.8318   -2.9812    1.3883 H         1 RES1    0.0000
     14 C4         8.2755   -1.6550    0.9718 C.ar      1 RES1    0.0000
     15 C5         8.6527   -0.3269    1.0840 C.ar      1 RES1    0.0000
     16 H3         9.4806   -0.0502    0.7628 H         1 RES1    0.0000
     17 C6         7.8164    0.5672    1.6612 C.ar      1 RES1    0.0000
     18 H4         8.0836    1.4545    1.7314 H         1 RES1    0.0000
     19 C7         5.3095    3.2769    3.1690 C.2       1 RES1    0.0000
     20 C8         3.8635    3.0875    3.4660 C.3       1 RES1    0.0000
     21 H5         3.7381    2.4832    4.2143 H         1 RES1    0.0000
     22 H6         3.3924    2.7366    2.6944 H         1 RES1    0.0000
     23 C9         3.3835    4.4803    3.8074 C.3       1 RES1    0.0000
     24 H7         2.7711    4.7917    3.1230 H         1 RES1    0.0000
     25 H8         2.9099    4.4641    4.6534 H         1 RES1    0.0000
     26 C10        4.4539    5.3309    3.8930 C.3       1 RES1    0.0000
     27 H9         4.5968    5.5736    4.8205 H         1 RES1    0.0000
     28 H10        4.2588    6.1414    3.3974 H         1 RES1    0.0000
     29 C11        5.6804    4.7163    3.3562 C.3       1 RES1    0.0000
     30 H11        6.4157    4.8070    3.9818 H         1 RES1    0.0000
     31 H12        5.9315    5.1237    2.5127 H         1 RES1    0.0000
@<TRIPOS>BOND
     1    1    5 2
     2    2    5 2
     3    3    6 2
     4    4    6 2
     5    5   11 1
     6    6   14 1
     7    7    8 1
     8    9    7 1
     9   10    7 1
    10   11   10 ar
    11   12   11 ar
    12   13   12 1
    13   14   12 ar
    14   15   14 ar
    15   16   15 1
    16   17   10 ar
    17   18   17 1
    18   19    9 2
    19   20   19 1
    20   21   20 1
    21   22   20 1
    22   23   20 1
    23   24   23 1
    24   25   23 1
    25   26   23 1
    26   27   26 1
    27   28   26 1
    28   29   19 1
    29   30   29 1
    30   31   29 1
    31   15   17 ar
    32   26   29 1
@<TRIPOS>SUBSTRUCTURE
     1 RES1 1

@<TRIPOS>CRYSIN
   6.9620   21.8400    8.1620  90.0000  98.5280  90.0000 231 1

