# MOL2 file generated by ConQuest
# Please check atom types

@<TRIPOS>MOLECULE
IGEDAB
    36    38     1
SMALL
USER_CHARGES
****
Generated from CSD

@<TRIPOS>ATOM
      1 O1        -1.7698    2.3650    9.3988 O.2       1 RES1   -1.0000
      2 O2        -0.5850    3.8964   13.6281 O.2       1 RES1    0.0000
      3 N1        -0.8626    3.2934    9.5949 N.pl3     1 RES1    1.0000
      4 N2        -1.7642    3.5477   11.7106 N.am      1 RES1    0.0000
      5 H1        -2.5064    3.2471   11.3964 H         1 RES1    0.0000
      6 C1         0.0150    3.5981    8.6041 C.ar      1 RES1    0.0000
      7 H2        -0.0463    3.1559    7.7886 H         1 RES1    0.0000
      8 C2         0.9838    4.5400    8.7844 C.ar      1 RES1    0.0000
      9 H3         1.5796    4.7382    8.0974 H         1 RES1    0.0000
     10 C3         1.0736    5.1981    9.9942 C.ar      1 RES1    0.0000
     11 H4         1.7343    5.8386   10.1286 H         1 RES1    0.0000
     12 C4         0.1808    4.9014   11.0021 C.ar      1 RES1    0.0000
     13 H5         0.2330    5.3476   11.8166 H         1 RES1    0.0000
     14 C5        -0.7949    3.9369   10.8005 C.ar      1 RES1    0.0000
     15 C6        -1.6314    3.6045   13.0778 C.2       1 RES1    0.0000
     16 C7        -2.9048    3.2968   13.8199 C.3       1 RES1    0.0000
     17 H6        -3.5180    2.7134   13.3263 H         1 RES1    0.0000
     18 C8        -2.6989    2.8782   15.2923 C.3       1 RES1    0.0000
     19 H7        -3.3675    2.2551   15.6177 H         1 RES1    0.0000
     20 H8        -1.8042    2.5567   15.4841 H         1 RES1    0.0000
     21 C9        -2.9410    4.3338   15.7360 C.3       1 RES1    0.0000
     22 H9        -2.1262    4.8345   15.8972 H         1 RES1    0.0000
     23 H10       -3.5546    4.4178   16.4825 H         1 RES1    0.0000
     24 C10       -3.5858    4.6209   14.3660 C.3       1 RES1    0.0000
     25 H11       -4.5507    4.4664   14.4391 H         1 RES1    0.0000
     26 C11       -3.3652    5.9189   13.6443 C.ar      1 RES1    0.0000
     27 C12       -2.6225    6.9615   14.1844 C.ar      1 RES1    0.0000
     28 H12       -2.2343    6.8623   15.0234 H         1 RES1    0.0000
     29 C13       -2.4546    8.1485   13.4876 C.ar      1 RES1    0.0000
     30 H13       -1.9605    8.8403   13.8650 H         1 RES1    0.0000
     31 C14       -3.0167    8.3094   12.2323 C.ar      1 RES1    0.0000
     32 H14       -2.8957    9.1020   11.7619 H         1 RES1    0.0000
     33 C15       -3.7590    7.2829   11.6867 C.ar      1 RES1    0.0000
     34 H15       -4.1446    7.3871   10.8465 H         1 RES1    0.0000
     35 C16       -3.9327    6.0974   12.3818 C.ar      1 RES1    0.0000
     36 H16       -4.4334    5.4119   12.0029 H         1 RES1    0.0000
@<TRIPOS>BOND
     1    1    3 1
     2    2   15 2
     3    3    6 ar
     4    4    5 1
     5    6    7 1
     6    8    6 ar
     7    9    8 1
     8   10    8 ar
     9   11   10 1
    10   12   10 ar
    11   13   12 1
    12   14    3 ar
    13   15    4 1
    14   16   15 1
    15   17   16 1
    16   18   16 1
    17   19   18 1
    18   20   18 1
    19   21   18 1
    20   22   21 1
    21   23   21 1
    22   24   16 1
    23   25   24 1
    24   26   24 1
    25   27   26 ar
    26   28   27 1
    27   29   27 ar
    28   30   29 1
    29   31   29 ar
    30   32   31 1
    31   33   31 ar
    32   34   33 1
    33   35   26 ar
    34   36   35 1
    35    4   14 1
    36   12   14 ar
    37   21   24 1
    38   33   35 ar
@<TRIPOS>SUBSTRUCTURE
     1 RES1 1

@<TRIPOS>CRYSIN
   7.7983    8.4361   10.6779  97.9180 106.5300  90.6090   2 1

