# MOL2 file generated by ConQuest
# Please check atom types

@<TRIPOS>MOLECULE
IGEDIJ
    50    52     1
SMALL
NO_CHARGES
****
Generated from CSD

@<TRIPOS>ATOM
      1 O1         0.1317    3.7814    4.5526 O.3       1 RES1    0.0000
      2 O2         4.9932    5.2262    5.6192 O.2       1 RES1    0.0000
      3 O3         4.9853    7.0816    4.5185 O.2       1 RES1    0.0000
      4 O4        -0.3424   -1.0176    7.8421 O.2       1 RES1    0.0000
      5 O5         1.4072   -0.7590    6.4060 O.3       1 RES1    0.0000
      6 N1        -0.1203    0.8351    6.5514 N.am      1 RES1    0.0000
      7 N2         4.3928    6.1221    5.0194 N.pl3     1 RES1    0.0000
      8 C1        -1.4695    1.3798    6.8219 C.3       1 RES1    0.0000
      9 H1        -1.5143    1.7103    7.7432 H         1 RES1    0.0000
     10 C2        -1.5152    2.5633    5.8434 C.3       1 RES1    0.0000
     11 H2        -1.8365    2.2785    4.9730 H         1 RES1    0.0000
     12 H3        -2.0954    3.2643    6.1788 H         1 RES1    0.0000
     13 C3        -0.1097    3.0348    5.7599 C.3       1 RES1    0.0000
     14 H4         0.0904    3.5989    6.5359 H         1 RES1    0.0000
     15 C4         0.8866    4.9344    4.7180 C.ar      1 RES1    0.0000
     16 C5         0.2265    6.1304    4.7937 C.ar      1 RES1    0.0000
     17 H5        -0.7023    6.1456    4.7396 H         1 RES1    0.0000
     18 C6         0.9174    7.3111    4.9514 C.ar      1 RES1    0.0000
     19 H6         0.4591    8.1185    5.0179 H         1 RES1    0.0000
     20 C7         2.2982    7.2848    5.0101 C.ar      1 RES1    0.0000
     21 H7         2.7837    8.0715    5.1122 H         1 RES1    0.0000
     22 C8         2.9417    6.0723    4.9143 C.ar      1 RES1    0.0000
     23 C9         2.2868    4.8473    4.7582 C.ar      1 RES1    0.0000
     24 C10        2.9434    3.4924    4.6175 C.3       1 RES1    0.0000
     25 H8         2.4343    2.9532    3.9930 H         1 RES1    0.0000
     26 H9         3.8362    3.6058    4.2558 H         1 RES1    0.0000
     27 C11        3.0338    2.7693    5.9346 C.2       1 RES1    0.0000
     28 H10        3.8204    2.8716    6.4200 H         1 RES1    0.0000
     29 C12        2.0972    2.0006    6.4679 C.2       1 RES1    0.0000
     30 H11        2.2736    1.5872    7.2810 H         1 RES1    0.0000
     31 C13        0.7550    1.7614    5.8171 C.3       1 RES1    0.0000
     32 H12        0.8919    1.4227    4.9081 H         1 RES1    0.0000
     33 C14       -2.5791    0.3788    6.5807 C.3       1 RES1    0.0000
     34 H13       -2.4659   -0.0235    5.7166 H         1 RES1    0.0000
     35 H14       -3.4280    0.8268    6.6178 H         1 RES1    0.0000
     36 H15       -2.5475   -0.3014    7.2578 H         1 RES1    0.0000
     37 C15        0.2704   -0.3747    7.0136 C.2       1 RES1    0.0000
     38 C16        2.1481   -1.9370    6.8713 C.3       1 RES1    0.0000
     39 C17        1.3308   -3.1730    6.6673 C.3       1 RES1    0.0000
     40 H16        0.5469   -3.1343    7.2207 H         1 RES1    0.0000
     41 H17        1.8514   -3.9445    6.9038 H         1 RES1    0.0000
     42 H18        1.0692   -3.2339    5.7444 H         1 RES1    0.0000
     43 C18        2.5677   -1.7351    8.3044 C.3       1 RES1    0.0000
     44 H19        1.7908   -1.7282    8.8686 H         1 RES1    0.0000
     45 H20        3.0312   -0.8987    8.3878 H         1 RES1    0.0000
     46 H21        3.1497   -2.4513    8.5718 H         1 RES1    0.0000
     47 C19        3.3209   -1.9702    5.9454 C.3       1 RES1    0.0000
     48 H22        3.9494   -2.6297    6.2484 H         1 RES1    0.0000
     49 H23        3.7432   -1.1074    5.9315 H         1 RES1    0.0000
     50 H24        3.0242   -2.1955    5.0611 H         1 RES1    0.0000
@<TRIPOS>BOND
     1    1   13 1
     2    2    7 2
     3    3    7 2
     4    4   37 2
     5    5   37 1
     6    6    8 1
     7    7   22 1
     8    8    9 1
     9   10    8 1
    10   11   10 1
    11   12   10 1
    12   13   10 1
    13   14   13 1
    14   15    1 1
    15   16   15 ar
    16   17   16 1
    17   18   16 ar
    18   19   18 1
    19   20   18 ar
    20   21   20 1
    21   22   20 ar
    22   23   15 ar
    23   24   23 1
    24   25   24 1
    25   26   24 1
    26   27   24 1
    27   28   27 1
    28   29   27 2
    29   30   29 1
    30   31    6 1
    31   32   31 1
    32   33    8 1
    33   34   33 1
    34   35   33 1
    35   36   33 1
    36   37    6 1
    37   38    5 1
    38   39   38 1
    39   40   39 1
    40   41   39 1
    41   42   39 1
    42   43   38 1
    43   44   43 1
    44   45   43 1
    45   46   43 1
    46   47   38 1
    47   48   47 1
    48   49   47 1
    49   50   47 1
    50   13   31 1
    51   22   23 ar
    52   29   31 1
@<TRIPOS>SUBSTRUCTURE
     1 RES1 1

@<TRIPOS>CRYSIN
   8.7785   13.8258   15.4586  90.0000  90.0000  90.0000  19 1

