# MOL2 file generated by ConQuest
# Please check atom types

@<TRIPOS>MOLECULE
IGEKOW
    41    43     1
SMALL
NO_CHARGES
****
Generated from CSD

@<TRIPOS>ATOM
      1 O1         6.7553    4.9152   11.6551 O.3       1 RES1    0.0000
      2 O2         2.7748    6.7418   14.5367 O.2       1 RES1    0.0000
      3 O3         3.0990    5.3452   16.1193 O.2       1 RES1    0.0000
      4 O4         2.6903    6.2434    8.4171 O.2       1 RES1    0.0000
      5 O5         4.1657    7.1942    7.0273 O.3       1 RES1    0.0000
      6 N1         4.9216    6.0823    8.7926 N.am      1 RES1    0.0000
      7 N2         3.4537    5.9420   15.1261 N.pl3     1 RES1    0.0000
      8 C1         6.3077    6.1733    8.2548 C.3       1 RES1    0.0000
      9 H1         6.5322    7.1107    8.0787 H         1 RES1    0.0000
     10 C2         7.1616    5.6490    9.3946 C.3       1 RES1    0.0000
     11 H2         7.4120    4.7249    9.2408 H         1 RES1    0.0000
     12 H3         7.9670    6.1800    9.4943 H         1 RES1    0.0000
     13 C3         6.2809    5.7717   10.6187 C.3       1 RES1    0.0000
     14 H4         6.2785    6.7000   10.9321 H         1 RES1    0.0000
     15 C4         6.3850    5.2684   12.9300 C.ar      1 RES1    0.0000
     16 C5         7.4128    5.4078   13.8531 C.ar      1 RES1    0.0000
     17 H5         8.2959    5.3310   13.5725 H         1 RES1    0.0000
     18 C6         7.1407    5.6574   15.1776 C.ar      1 RES1    0.0000
     19 H6         7.8351    5.7300   15.7919 H         1 RES1    0.0000
     20 C7         5.8315    5.7993   15.5912 C.ar      1 RES1    0.0000
     21 H7         5.6290    5.9671   16.4824 H         1 RES1    0.0000
     22 C8         4.8303    5.6874   14.6465 C.ar      1 RES1    0.0000
     23 C9         5.0413    5.3936   13.3022 C.ar      1 RES1    0.0000
     24 C10        3.9219    5.0713   12.3596 C.2       1 RES1    0.0000
     25 C11        3.7888    5.8268   11.0597 C.3       1 RES1    0.0000
     26 H8         3.8526    6.7793   11.2275 H         1 RES1    0.0000
     27 H9         2.9216    5.6465   10.6650 H         1 RES1    0.0000
     28 C12        4.8915    5.4011   10.0918 C.3       1 RES1    0.0000
     29 H10        4.8445    4.4327    9.9510 H         1 RES1    0.0000
     30 C13        3.0845    4.0913   12.6677 C.2       1 RES1    0.0000
     31 H11        3.1974    3.6146   13.4580 H         1 RES1    0.0000
     32 H12        2.3855    3.8793   12.0929 H         1 RES1    0.0000
     33 C14        3.8273    6.4796    8.1181 C.2       1 RES1    0.0000
     34 C15        3.0773    7.6250    6.1978 C.3       1 RES1    0.0000
     35 H13        2.5658    6.8611    5.9196 H         1 RES1    0.0000
     36 H14        3.4231    8.0774    5.4260 H         1 RES1    0.0000
     37 H15        2.5143    8.2227    6.6951 H         1 RES1    0.0000
     38 C16        6.5050    5.3560    6.9943 C.3       1 RES1    0.0000
     39 H16        6.2374    4.4486    7.1568 H         1 RES1    0.0000
     40 H17        7.4307    5.3760    6.7407 H         1 RES1    0.0000
     41 H18        5.9714    5.7250    6.2865 H         1 RES1    0.0000
@<TRIPOS>BOND
     1    1   13 1
     2    2    7 2
     3    3    7 2
     4    4   33 2
     5    5   33 1
     6    6    8 1
     7    7   22 1
     8    8    9 1
     9   10    8 1
    10   11   10 1
    11   12   10 1
    12   13   10 1
    13   14   13 1
    14   15    1 1
    15   16   15 ar
    16   17   16 1
    17   18   16 ar
    18   19   18 1
    19   20   18 ar
    20   21   20 1
    21   22   20 ar
    22   23   15 ar
    23   24   23 1
    24   25   24 1
    25   26   25 1
    26   27   25 1
    27   28    6 1
    28   29   28 1
    29   30   24 2
    30   31   30 1
    31   32   30 1
    32   33    6 1
    33   34    5 1
    34   35   34 1
    35   36   34 1
    36   37   34 1
    37   38    8 1
    38   39   38 1
    39   40   38 1
    40   41   38 1
    41   13   28 1
    42   22   23 ar
    43   25   28 1
@<TRIPOS>SUBSTRUCTURE
     1 RES1 1

@<TRIPOS>CRYSIN
   7.5978    8.3479   12.4229  90.0000  97.7471  90.0000   4 1

