# MOL2 file generated by ConQuest
# Please check atom types

@<TRIPOS>MOLECULE
IGIYUS
    28    30     1
SMALL
NO_CHARGES
****
Generated from CSD

@<TRIPOS>ATOM
      1 O1        11.0845    0.3383    1.8090 O.3       1 RES1    0.0000
      2 O2        11.9244   -0.1732   -0.1596 O.3       1 RES1    0.0000
      3 N1        12.6863    0.9185    0.3975 N.2       1 RES1    0.0000
      4 N2        10.0582   -1.3464    0.6823 N.2       1 RES1    0.0000
      5 C1        11.8884    2.2852    3.7041 C.ar      1 RES1    0.0000
      6 C2        12.2733    3.2762    4.5820 C.ar      1 RES1    0.0000
      7 C3        13.2809    4.1431    4.2643 C.ar      1 RES1    0.0000
      8 C4        13.9237    4.0285    3.0468 C.ar      1 RES1    0.0000
      9 C5        13.5633    3.0540    2.1611 C.ar      1 RES1    0.0000
     10 C6        12.5374    2.1808    2.4804 C.ar      1 RES1    0.0000
     11 C7        12.1412    1.1599    1.5226 C.2       1 RES1    0.0000
     12 C8        10.9427   -0.5014    0.7152 C.2       1 RES1    0.0000
     13 C9         9.8490   -2.2505   -0.4100 C.ar      1 RES1    0.0000
     14 C10        8.7901   -3.1355   -0.2441 C.ar      1 RES1    0.0000
     15 C11        8.5008   -4.0599   -1.2050 C.ar      1 RES1    0.0000
     16 C12        9.2565   -4.1489   -2.3505 C.ar      1 RES1    0.0000
     17 C13       10.3006   -3.2703   -2.5242 C.ar      1 RES1    0.0000
     18 C14       10.6091   -2.3278   -1.5743 C.ar      1 RES1    0.0000
     19 H1        11.1680    1.6623    3.9279 H         1 RES1    0.0000
     20 H2        11.8491    3.3300    5.4458 H         1 RES1    0.0000
     21 H3        13.5370    4.8378    4.8981 H         1 RES1    0.0000
     22 H4        14.6292    4.6460    2.8168 H         1 RES1    0.0000
     23 H5        14.0042    2.9624    1.2989 H         1 RES1    0.0000
     24 H6         8.2643   -3.0583    0.5634 H         1 RES1    0.0000
     25 H7         7.7623   -4.6886   -1.0798 H         1 RES1    0.0000
     26 H8         9.0666   -4.8325   -3.0202 H         1 RES1    0.0000
     27 H9        10.8168   -3.2874   -3.3176 H         1 RES1    0.0000
     28 H10       11.3495   -1.7263   -1.7057 H         1 RES1    0.0000
@<TRIPOS>BOND
     1    1   11 1
     2    2    3 1
     3    3   11 2
     4    4   12 2
     5    5    6 ar
     6    6    7 ar
     7    7    8 ar
     8    8    9 ar
     9    9   10 ar
    10   10    5 ar
    11   11   10 1
    12   12    1 1
    13   13    4 1
    14   14   13 ar
    15   15   14 ar
    16   16   15 ar
    17   17   16 ar
    18   18   13 ar
    19   19    5 1
    20   20    6 1
    21   21    7 1
    22   22    8 1
    23   23    9 1
    24   24   14 1
    25   25   15 1
    26   26   16 1
    27   27   17 1
    28   28   18 1
    29    2   12 1
    30   17   18 ar
@<TRIPOS>SUBSTRUCTURE
     1 RES1 1

@<TRIPOS>CRYSIN
  14.0190    5.3280   15.7080  90.0000  94.9700  90.0000 231 1

