# MOL2 file generated by ConQuest
# Please check atom types

@<TRIPOS>MOLECULE
IGOTII
    40    41     1
SMALL
NO_CHARGES
****
Generated from CSD

@<TRIPOS>ATOM
      1 O1        11.7914   -0.6271    7.1526 O.2       1 RES1    0.0000
      2 O2        12.3190    1.1248    6.0580 O.2       1 RES1    0.0000
      3 O3         9.8272    2.9107   10.3176 O.3       1 RES1    0.0000
      4 H1         9.7437    2.9757   11.1305 H         1 RES1    0.0000
      5 O4         8.8379   -0.0284   11.1443 O.2       1 RES1    0.0000
      6 N1        11.5772    0.5116    6.7928 N.pl3     1 RES1    0.0000
      7 C1        10.2685    1.2030    7.2504 C.3       1 RES1    0.0000
      8 C2         9.7507    0.5141    8.5183 C.3       1 RES1    0.0000
      9 H2         9.6473   -0.4328    8.3366 H         1 RES1    0.0000
     10 H3         8.8738    0.8706    8.7285 H         1 RES1    0.0000
     11 C3        10.6547    0.6819    9.7452 C.3       1 RES1    0.0000
     12 H4        11.4866    0.1905    9.5789 H         1 RES1    0.0000
     13 C4        11.0192    2.1733   10.0181 C.3       1 RES1    0.0000
     14 C5        11.5758    2.7726    8.7416 C.3       1 RES1    0.0000
     15 H5        12.4067    2.3234    8.5196 H         1 RES1    0.0000
     16 H6        11.7783    3.7088    8.8954 H         1 RES1    0.0000
     17 C6        10.6227    2.6622    7.5573 C.3       1 RES1    0.0000
     18 H7        11.0343    3.0634    6.7752 H         1 RES1    0.0000
     19 H8         9.8105    3.1549    7.7535 H         1 RES1    0.0000
     20 C7         9.2719    1.0415    6.0949 C.2       1 RES1    0.0000
     21 C8         9.4668    0.2258    5.0711 C.2       1 RES1    0.0000
     22 H9         8.8163    0.1438    4.4104 H         1 RES1    0.0000
     23 H10       10.2540   -0.2662    5.0113 H         1 RES1    0.0000
     24 C9         7.9999    1.8288    6.1817 C.ar      1 RES1    0.0000
     25 C10        7.9226    3.1139    5.6636 C.ar      1 RES1    0.0000
     26 H11        8.6817    3.5088    5.2996 H         1 RES1    0.0000
     27 C11        6.7258    3.8147    5.6833 C.ar      1 RES1    0.0000
     28 H12        6.6900    4.6759    5.3337 H         1 RES1    0.0000
     29 C12        5.6039    3.2527    6.2091 C.ar      1 RES1    0.0000
     30 H13        4.8041    3.7271    6.2196 H         1 RES1    0.0000
     31 C13        5.6577    1.9821    6.7232 C.ar      1 RES1    0.0000
     32 H14        4.8913    1.5954    7.0797 H         1 RES1    0.0000
     33 C14        6.8476    1.2693    6.7144 C.ar      1 RES1    0.0000
     34 H15        6.8739    0.4101    7.0683 H         1 RES1    0.0000
     35 C15        9.9930    0.0852   10.9639 C.2       1 RES1    0.0000
     36 H16       10.5554   -0.2221   11.6375 H         1 RES1    0.0000
     37 C16       12.0408    2.3058   11.1495 C.3       1 RES1    0.0000
     38 H17       12.2776    3.2293   11.2601 H         1 RES1    0.0000
     39 H18       12.8268    1.7986   10.9329 H         1 RES1    0.0000
     40 H19       11.6600    1.9720   11.9647 H         1 RES1    0.0000
@<TRIPOS>BOND
     1    1    6 2
     2    2    6 2
     3    3    4 1
     4    5   35 2
     5    6    7 1
     6    7    8 1
     7    8    9 1
     8   10    8 1
     9   11    8 1
    10   12   11 1
    11   13    3 1
    12   14   13 1
    13   15   14 1
    14   16   14 1
    15   17    7 1
    16   18   17 1
    17   19   17 1
    18   20    7 1
    19   21   20 2
    20   22   21 1
    21   23   21 1
    22   24   20 1
    23   25   24 ar
    24   26   25 1
    25   27   25 ar
    26   28   27 1
    27   29   27 ar
    28   30   29 1
    29   31   29 ar
    30   32   31 1
    31   33   24 ar
    32   34   33 1
    33   35   11 1
    34   36   35 1
    35   37   13 1
    36   38   37 1
    37   39   37 1
    38   40   37 1
    39   11   13 1
    40   14   17 1
    41   31   33 ar
@<TRIPOS>SUBSTRUCTURE
     1 RES1 1

@<TRIPOS>CRYSIN
  14.4068    6.3085   16.3698  90.0000  98.3340  90.0000 231 1

