# MOL2 file generated by ConQuest
# Please check atom types

@<TRIPOS>MOLECULE
IGOTEE
    44    36     2
SMALL
NO_CHARGES
****
Generated from CSD

@<TRIPOS>ATOM
      1 O1        -1.3985    2.0752    9.9002 O.2       1 RES1    0.0000
      2 O2         0.3826    3.1897    9.5759 O.2       1 RES1    0.0000
      3 O3        -0.7417    1.4550    4.7642 O.3       1 RES1    0.0000
      4 H1        -1.4236    1.0705    4.5207 H         1 RES1    0.0000
      5 O4        -2.9718   -0.1092    5.3545 O.2       1 RES1    0.0000
      6 N1        -0.6881    2.7647    9.2045 N.pl3     1 RES1    0.0000
      7 C1        -1.1977    3.1845    7.7869 C.3       1 RES1    0.0000
      8 C2         0.0175    3.2713    6.8672 C.3       1 RES1    0.0000
      9 H2        -0.2546    3.6611    6.0217 H         1 RES1    0.0000
     10 H3         0.6741    3.8626    7.2677 H         1 RES1    0.0000
     11 C3         0.6647    1.9211    6.6025 C.3       1 RES1    0.0000
     12 H4         1.0217    1.5729    7.4348 H         1 RES1    0.0000
     13 H5         1.4060    2.0409    5.9885 H         1 RES1    0.0000
     14 C4        -0.3068    0.9079    6.0163 C.3       1 RES1    0.0000
     15 C5        -1.4886    0.7693    6.9969 C.3       1 RES1    0.0000
     16 H6        -1.1422    0.4115    7.8413 H         1 RES1    0.0000
     17 C6        -2.1620    2.1168    7.2920 C.3       1 RES1    0.0000
     18 H7        -2.5941    2.4349    6.4839 H         1 RES1    0.0000
     19 H8        -2.8513    1.9823    7.9615 H         1 RES1    0.0000
     20 C7        -1.8398    4.5297    8.0241 C.2       1 RES1    0.0000
     21 C8        -1.3842    5.6973    7.6332 C.2       1 RES1    0.0000
     22 H9        -0.5867    5.7504    7.1572 H         1 RES1    0.0000
     23 H10       -1.8594    6.4718    7.8315 H         1 RES1    0.0000
     24 C9        -3.1691    4.6029    8.7550 C.3       1 RES1    0.0000
     25 H11       -3.1624    3.9898    9.4938 H         1 RES1    0.0000
     26 H12       -3.8793    4.3704    8.1521 H         1 RES1    0.0000
     27 H13       -3.3060    5.4955    9.0804 H         1 RES1    0.0000
     28 C10        0.3685   -0.4331    5.7960 C.3       1 RES1    0.0000
     29 H14       -0.2353   -1.0255    5.3416 H         1 RES1    0.0000
     30 H15        0.6108   -0.8132    6.6442 H         1 RES1    0.0000
     31 H16        1.1584   -0.3113    5.2643 H         1 RES1    0.0000
     32 C11       -2.5517   -0.1874    6.4821 C.2       1 RES1    0.0000
     33 C12       -3.0773   -1.2051    7.4240 C.3       1 RES1    0.0000
     34 H17       -3.7402   -1.7394    6.9804 H         1 RES1    0.0000
     35 H18       -3.4751   -0.7657    8.1794 H         1 RES1    0.0000
     36 H19       -2.3586   -1.7677    7.7221 H         1 RES1    0.0000
     37 C13       -1.9243    4.5323    8.0534 Du        2 SUP2    0.0000
     38 C14       -3.2031    4.4955    8.3622 Du        2 SUP2    0.0000
     39 C15       -1.0023    5.7117    7.9009 Du        2 SUP2    0.0000
     40 H20       -3.6648    5.2863    8.5224 Du        2 SUP2    0.0000
     41 H21       -3.6438    3.6790    8.4189 Du        2 SUP2    0.0000
     42 H22       -0.7413    5.7972    6.9813 Du        2 SUP2    0.0000
     43 H23       -0.2223    5.5804    8.4443 Du        2 SUP2    0.0000
     44 H24       -1.4564    6.5102    8.1804 Du        2 SUP2    0.0000
@<TRIPOS>BOND
     1    1    6 2
     2    2    6 2
     3    3    4 1
     4    5   32 2
     5    6    7 1
     6    7    8 1
     7    8    9 1
     8   10    8 1
     9   11    8 1
    10   12   11 1
    11   13   11 1
    12   14    3 1
    13   15   14 1
    14   16   15 1
    15   17    7 1
    16   18   17 1
    17   19   17 1
    18   20    7 1
    19   21   20 2
    20   22   21 1
    21   23   21 1
    22   24   20 1
    23   25   24 1
    24   26   24 1
    25   27   24 1
    26   28   14 1
    27   29   28 1
    28   30   28 1
    29   31   28 1
    30   32   15 1
    31   33   32 1
    32   34   33 1
    33   35   33 1
    34   36   33 1
    35   11   14 1
    36   15   17 1
@<TRIPOS>SUBSTRUCTURE
     1 RES1 1
     2 SUP2 37

@<TRIPOS>CRYSIN
   6.8860    9.8204   10.8548 107.8710 103.9420 101.5690   2 1

