# MOL2 file generated by ConQuest
# Please check atom types

@<TRIPOS>MOLECULE
IGOTOO
    43    44     1
SMALL
NO_CHARGES
****
Generated from CSD

@<TRIPOS>ATOM
      1 O1         3.7486    6.7337    2.6946 O.2       1 RES1    0.0000
      2 O2         2.2112    5.2837    2.9651 O.2       1 RES1    0.0000
      3 O3         2.0195    9.1143   -0.9400 O.3       1 RES1    0.0000
      4 H1         2.3831    9.8467   -1.0044 H         1 RES1    0.0000
      5 O4         2.4607   11.5770    0.4782 O.2       1 RES1    0.0000
      6 N1         2.5849    6.3873    2.6433 N.pl3     1 RES1    0.0000
      7 C1         1.5174    7.3927    2.1067 C.3       1 RES1    0.0000
      8 C2         2.1671    8.7628    1.9564 C.3       1 RES1    0.0000
      9 H2         2.9710    8.6882    1.4184 H         1 RES1    0.0000
     10 H3         2.4168    9.1051    2.8289 H         1 RES1    0.0000
     11 C3         1.1791    9.7246    1.2832 C.3       1 RES1    0.0000
     12 H4         0.3509    9.7164    1.8074 H         1 RES1    0.0000
     13 C4         0.8334    9.2393   -0.1538 C.3       1 RES1    0.0000
     14 C5         0.2486    7.8458   -0.0408 C.3       1 RES1    0.0000
     15 H5         0.0848    7.5013   -0.9327 H         1 RES1    0.0000
     16 H6        -0.6053    7.9010    0.4163 H         1 RES1    0.0000
     17 C6         1.1519    6.8591    0.7125 C.3       1 RES1    0.0000
     18 H7         1.9624    6.7104    0.2013 H         1 RES1    0.0000
     19 H8         0.6948    6.0082    0.8030 H         1 RES1    0.0000
     20 C7         0.3758    7.4079    3.1246 C.2       1 RES1    0.0000
     21 C8        -0.7609    6.7519    2.9233 C.2       1 RES1    0.0000
     22 H9        -1.4466    6.8088    3.5489 H         1 RES1    0.0000
     23 H10       -0.8714    6.2357    2.1578 H         1 RES1    0.0000
     24 C9         0.5456    8.2347    4.3572 C.ar      1 RES1    0.0000
     25 C10       -0.3718    9.2259    4.6522 C.ar      1 RES1    0.0000
     26 H11       -1.0945    9.3634    4.0823 H         1 RES1    0.0000
     27 C11       -0.2347   10.0189    5.7794 C.ar      1 RES1    0.0000
     28 H12       -0.8586   10.6855    5.9569 H         1 RES1    0.0000
     29 C12        0.8238    9.8221    6.6416 C.ar      1 RES1    0.0000
     30 H13        0.9202   10.3559    7.3969 H         1 RES1    0.0000
     31 C13        1.7310    8.8357    6.3732 C.ar      1 RES1    0.0000
     32 H14        2.4377    8.6906    6.9601 H         1 RES1    0.0000
     33 C14        1.6132    8.0460    5.2363 C.ar      1 RES1    0.0000
     34 H15        2.2483    7.3894    5.0606 H         1 RES1    0.0000
     35 C15        1.7576   11.1295    1.3563 C.2       1 RES1    0.0000
     36 C16        1.4509   11.9263    2.5763 C.3       1 RES1    0.0000
     37 H16        1.9787   12.7284    2.5763 H         1 RES1    0.0000
     38 H17        1.6569   11.4075    3.3578 H         1 RES1    0.0000
     39 H18        0.5194   12.1565    2.5820 H         1 RES1    0.0000
     40 C17       -0.1624   10.1825   -0.8247 C.3       1 RES1    0.0000
     41 H19        0.2394   11.0484   -0.9304 H         1 RES1    0.0000
     42 H20       -0.9481   10.2600   -0.2775 H         1 RES1    0.0000
     43 H21       -0.4043    9.8332   -1.6846 H         1 RES1    0.0000
@<TRIPOS>BOND
     1    1    6 2
     2    2    6 2
     3    3    4 1
     4    5   35 2
     5    6    7 1
     6    7    8 1
     7    8    9 1
     8   10    8 1
     9   11    8 1
    10   12   11 1
    11   13    3 1
    12   14   13 1
    13   15   14 1
    14   16   14 1
    15   17    7 1
    16   18   17 1
    17   19   17 1
    18   20    7 1
    19   21   20 2
    20   22   21 1
    21   23   21 1
    22   24   20 1
    23   25   24 ar
    24   26   25 1
    25   27   25 ar
    26   28   27 1
    27   29   27 ar
    28   30   29 1
    29   31   29 ar
    30   32   31 1
    31   33   24 ar
    32   34   33 1
    33   35   11 1
    34   36   35 1
    35   37   36 1
    36   38   36 1
    37   39   36 1
    38   40   13 1
    39   41   40 1
    40   42   40 1
    41   43   40 1
    42   11   13 1
    43   14   17 1
    44   31   33 ar
@<TRIPOS>SUBSTRUCTURE
     1 RES1 1

@<TRIPOS>CRYSIN
  11.6190   12.2992   11.3746  90.0000  90.0000  90.0000  33 1

