# MOL2 file generated by ConQuest
# Please check atom types

@<TRIPOS>MOLECULE
IHAJEI
    42    44     1
SMALL
NO_CHARGES
****
Generated from CSD

@<TRIPOS>ATOM
      1 C1         2.5161   -0.4891    9.4615 C.ar      1 RES1    0.0000
      2 H1         2.9909   -1.1346    9.9346 H         1 RES1    0.0000
      3 C2         1.3266   -0.0131    9.9497 C.ar      1 RES1    0.0000
      4 H2         0.9929   -0.3360   10.7551 H         1 RES1    0.0000
      5 C3         0.6160    0.9514    9.2424 C.ar      1 RES1    0.0000
      6 H3        -0.1860    1.2770    9.5832 H         1 RES1    0.0000
      7 N1         1.0838    3.5859    6.7645 N.3       1 RES1    0.0000
      8 O1        -1.5731    0.0610    6.7857 O.2       1 RES1    0.0000
      9 O2        -2.7154    1.8216    6.3228 O.2       1 RES1    0.0000
     10 O3         2.5699    4.4553    4.0170 O.3       1 RES1    0.0000
     11 O4         2.1541    2.2699    4.2967 O.2       1 RES1    0.0000
     12 C4         0.2772    2.4478    7.2611 C.3       1 RES1    0.0000
     13 H4        -0.4259    2.7950    7.8487 H         1 RES1    0.0000
     14 C5        -0.3845    1.8862    5.9754 C.3       1 RES1    0.0000
     15 H5         0.2162    1.2466    5.5387 H         1 RES1    0.0000
     16 C6        -0.5809    3.1080    5.0879 C.3       1 RES1    0.0000
     17 H6        -1.3160    3.6289    5.4726 H         1 RES1    0.0000
     18 C7        -0.9174    2.8729    3.6256 C.ar      1 RES1    0.0000
     19 C8        -0.6217    3.8555    2.6881 C.ar      1 RES1    0.0000
     20 H7        -0.1942    4.6345    2.9628 H         1 RES1    0.0000
     21 C9         0.7202    3.8880    5.3629 C.3       1 RES1    0.0000
     22 H8         0.5719    4.8499    5.2486 H         1 RES1    0.0000
     23 N2        -1.6671    1.2053    6.3716 N.pl3     1 RES1    0.0000
     24 C10        3.0097   -0.0055    8.2617 C.ar      1 RES1    0.0000
     25 H9         3.8199   -0.3226    7.9341 H         1 RES1    0.0000
     26 C11        1.0933    1.4312    8.0320 C.ar      1 RES1    0.0000
     27 C12       -0.9546    3.6951    1.3481 C.ar      1 RES1    0.0000
     28 H10       -0.7375    4.3569    0.7318 H         1 RES1    0.0000
     29 C13       -1.6064    2.5542    0.9353 C.ar      1 RES1    0.0000
     30 H11       -1.8447    2.4505    0.0419 H         1 RES1    0.0000
     31 C14       -1.5523    1.7212    3.1838 C.ar      1 RES1    0.0000
     32 H12       -1.7459    1.0421    3.7881 H         1 RES1    0.0000
     33 C15       -1.9034    1.5705    1.8460 C.ar      1 RES1    0.0000
     34 H13       -2.3407    0.7986    1.5668 H         1 RES1    0.0000
     35 C16        1.8784    3.4234    4.4914 C.2       1 RES1    0.0000
     36 C17        3.7277    4.1244    3.2070 C.3       1 RES1    0.0000
     37 H14        4.3338    3.5851    3.7204 H         1 RES1    0.0000
     38 H15        4.1699    4.9327    2.9354 H         1 RES1    0.0000
     39 H16        3.4462    3.6362    2.4292 H         1 RES1    0.0000
     40 C18        2.3016    0.9490    7.5464 C.ar      1 RES1    0.0000
     41 H17        2.6369    1.2673    6.7396 H         1 RES1    0.0000
     42 H18        0.9464    4.2680    7.2603 H         1 RES1    0.0000
@<TRIPOS>BOND
     1    1    2 1
     2    3    1 ar
     3    4    3 1
     4    5    3 ar
     5    6    5 1
     6    7   12 1
     7    8   23 2
     8    9   23 2
     9   10   35 1
    10   11   35 2
    11   12   13 1
    12   14   12 1
    13   15   14 1
    14   16   14 1
    15   17   16 1
    16   18   16 1
    17   19   18 ar
    18   20   19 1
    19   21    7 1
    20   22   21 1
    21   23   14 1
    22   24    1 ar
    23   25   24 1
    24   26    5 ar
    25   27   19 ar
    26   28   27 1
    27   29   27 ar
    28   30   29 1
    29   31   18 ar
    30   32   31 1
    31   33   29 ar
    32   34   33 1
    33   35   21 1
    34   36   10 1
    35   37   36 1
    36   38   36 1
    37   39   36 1
    38   40   24 ar
    39   41   40 1
    40   42    7 1
    41   12   26 1
    42   16   21 1
    43   26   40 ar
    44   31   33 ar
@<TRIPOS>SUBSTRUCTURE
     1 RES1 1

@<TRIPOS>CRYSIN
   8.1586   12.1735   16.1197  90.0000  90.0000  90.0000  19 1

