# MOL2 file generated by ConQuest
# Please check atom types

@<TRIPOS>MOLECULE
IHANOV
    18    17     1
SMALL
NO_CHARGES
****
Generated from CSD

@<TRIPOS>ATOM
      1 O1         1.7519    3.4407    5.5493 O.3       1 RES1    0.0000
      2 O2         1.0790    5.4314    4.6874 O.2       1 RES1    0.0000
      3 O3         3.7761    5.1504    5.9265 O.2       1 RES1    0.0000
      4 O4         2.3919    3.3137    3.3400 O.3       1 RES1    0.0000
      5 N1         2.8680    3.4709    4.6489 N.am      1 RES1    0.0000
      6 N2         4.2542    5.0879    3.7022 N.am      1 RES1    0.0000
      7 C1         0.8926    4.5204    5.4370 C.2       1 RES1    0.0000
      8 C2         3.6396    4.6850    4.7941 C.2       1 RES1    0.0000
      9 C3         2.6561    1.9637    2.9021 C.3       1 RES1    0.0000
     10 H1         2.3293    1.8477    1.9854 H         1 RES1    0.0000
     11 H2         2.1968    1.3326    3.4948 H         1 RES1    0.0000
     12 H3         3.6212    1.7941    2.9292 H         1 RES1    0.0000
     13 C4        -0.2517    4.3408    6.3812 C.3       1 RES1    0.0000
     14 H4        -0.9436    5.0062    6.1855 H         1 RES1    0.0000
     15 H5         0.0630    4.4580    7.3019 H         1 RES1    0.0000
     16 H6        -0.6246    3.4410    6.2753 H         1 RES1    0.0000
     17 H7         4.8322    5.6934    3.7423 H         1 RES1    0.0000
     18 H8         4.1216    4.7019    2.9082 H         1 RES1    0.0000
@<TRIPOS>BOND
     1    1    5 1
     2    2    7 2
     3    3    8 2
     4    4    5 1
     5    5    8 1
     6    6    8 1
     7    7    1 1
     8    9    4 1
     9   10    9 1
    10   11    9 1
    11   12    9 1
    12   13    7 1
    13   14   13 1
    14   15   13 1
    15   16   13 1
    16   17    6 1
    17   18    6 1
@<TRIPOS>SUBSTRUCTURE
     1 RES1 1

@<TRIPOS>CRYSIN
  11.1338    6.2359   10.0614  90.0000  97.4400  90.0000  14 1

