# MOL2 file generated by ConQuest
# Please check atom types

@<TRIPOS>MOLECULE
IHATAO
    52    54     1
SMALL
NO_CHARGES
****
Generated from CSD

@<TRIPOS>ATOM
      1 O1        -6.8566   -7.6445   -8.5322 O.3       1 RES1    0.0000
      2 O2        -8.3372   -5.1129   -5.3300 O.2       1 RES1    0.0000
      3 N1        -6.2346   -4.7933   -4.4268 N.am      1 RES1    0.0000
      4 N2        -6.9912   -7.5702   -6.3493 N.am      1 RES1    0.0000
      5 H1        -7.3957   -8.3260   -6.4267 H         1 RES1    0.0000
      6 O3        -5.9591   -5.8791   -7.4155 O.2       1 RES1    0.0000
      7 N3        -7.7338   -7.2638   -2.7365 N.pl3     1 RES1    0.0000
      8 O4        -6.7627   -7.4189   -2.0504 O.2       1 RES1    0.0000
      9 C1        -6.1375   -2.9405   -2.7647 C.ar      1 RES1    0.0000
     10 C2        -6.6750   -7.1040   -9.8870 C.3       1 RES1    0.0000
     11 C3        -6.7869   -6.9940   -5.0449 C.3       1 RES1    0.0000
     12 C4        -7.2453   -5.5106   -4.9839 C.2       1 RES1    0.0000
     13 C5        -5.3484   -6.8971   -4.6156 C.ar      1 RES1    0.0000
     14 C6        -5.0721   -5.5830   -4.2825 C.ar      1 RES1    0.0000
     15 O5        -8.7070   -6.6640   -2.3788 O.2       1 RES1    0.0000
     16 C7        -4.3482   -7.8400   -4.5605 C.ar      1 RES1    0.0000
     17 H2        -4.5184   -8.7246   -4.7892 H         1 RES1    0.0000
     18 C8        -6.5506   -6.9272   -7.4530 C.2       1 RES1    0.0000
     19 C9        -3.0723   -7.4443   -4.1547 C.ar      1 RES1    0.0000
     20 H3        -2.3893   -8.0731   -4.1007 H         1 RES1    0.0000
     21 C10       -7.7108   -7.8165   -4.1101 C.3       1 RES1    0.0000
     22 H4        -8.6119   -7.8165   -4.4690 H         1 RES1    0.0000
     23 H5        -7.4002   -8.7349   -4.0796 H         1 RES1    0.0000
     24 C11       -6.2367   -3.7903   -1.6938 C.ar      1 RES1    0.0000
     25 H6        -6.3677   -4.6993   -1.8439 H         1 RES1    0.0000
     26 C12       -5.9160   -1.5887   -2.4926 C.ar      1 RES1    0.0000
     27 H7        -5.8354   -0.9842   -3.1952 H         1 RES1    0.0000
     28 C13       -6.2850   -3.3607   -4.2086 C.3       1 RES1    0.0000
     29 H8        -7.1311   -3.0251   -4.5441 H         1 RES1    0.0000
     30 H9        -5.5782   -2.9433   -4.7259 H         1 RES1    0.0000
     31 C14       -3.8148   -5.1675   -3.8919 C.ar      1 RES1    0.0000
     32 H10       -3.6440   -4.2791   -3.6749 H         1 RES1    0.0000
     33 C15       -2.8177   -6.1263   -3.8344 C.ar      1 RES1    0.0000
     34 H11       -1.9597   -5.8781   -3.5752 H         1 RES1    0.0000
     35 C16       -5.8164   -1.1422   -1.1964 C.ar      1 RES1    0.0000
     36 H12       -5.6627   -0.2397   -1.0346 H         1 RES1    0.0000
     37 C17       -5.9406   -2.0098   -0.1349 C.ar      1 RES1    0.0000
     38 H13       -5.8868   -1.7006    0.7413 H         1 RES1    0.0000
     39 C18       -6.1448   -3.3297   -0.3965 C.ar      1 RES1    0.0000
     40 H14       -6.2249   -3.9294    0.3097 H         1 RES1    0.0000
     41 C19       -5.2289   -6.8501  -10.1673 C.3       1 RES1    0.0000
     42 H15       -4.7375   -7.6699  -10.0817 H         1 RES1    0.0000
     43 H16       -4.8903   -6.2062   -9.5409 H         1 RES1    0.0000
     44 H17       -5.1308   -6.5108  -11.0599 H         1 RES1    0.0000
     45 C20       -7.1853   -8.2499  -10.7456 C.3       1 RES1    0.0000
     46 H18       -8.0837   -8.4680  -10.4863 H         1 RES1    0.0000
     47 H19       -6.6220   -9.0170  -10.6224 H         1 RES1    0.0000
     48 H20       -7.1730   -7.9876  -11.6687 H         1 RES1    0.0000
     49 C21       -7.5125   -5.8941  -10.0606 C.3       1 RES1    0.0000
     50 H21       -7.1236   -5.1637   -9.5738 H         1 RES1    0.0000
     51 H22       -8.3962   -6.0661   -9.7286 H         1 RES1    0.0000
     52 H23       -7.5591   -5.6685  -10.9919 H         1 RES1    0.0000
@<TRIPOS>BOND
     1    1   10 1
     2    2   12 2
     3    3   12 1
     4    4    5 1
     5    6   18 2
     6    7    8 2
     7    9   24 ar
     8   10   41 1
     9   11    4 1
    10   12   11 1
    11   13   11 1
    12   14    3 1
    13   15    7 2
    14   16   13 ar
    15   17   16 1
    16   18    1 1
    17   19   16 ar
    18   20   19 1
    19   21    7 1
    20   22   21 1
    21   23   21 1
    22   24   25 1
    23   26    9 ar
    24   27   26 1
    25   28    3 1
    26   29   28 1
    27   30   28 1
    28   31   14 ar
    29   32   31 1
    30   33   19 ar
    31   34   33 1
    32   35   26 ar
    33   36   35 1
    34   37   35 ar
    35   38   37 1
    36   39   24 ar
    37   40   39 1
    38   41   42 1
    39   43   41 1
    40   44   41 1
    41   45   10 1
    42   46   45 1
    43   47   45 1
    44   48   45 1
    45   49   10 1
    46   50   49 1
    47   51   49 1
    48   52   49 1
    49    4   18 1
    50    9   28 1
    51   11   21 1
    52   13   14 ar
    53   31   33 ar
    54   37   39 ar
@<TRIPOS>SUBSTRUCTURE
     1 RES1 1

@<TRIPOS>CRYSIN
   9.3627    9.4005   11.8314  90.0000  97.5180  90.0000   4 1

