# MOL2 file generated by ConQuest
# Please check atom types

@<TRIPOS>MOLECULE
IHEGOR
    30    29     2
SMALL
NO_CHARGES
****
Generated from CSD

@<TRIPOS>ATOM
      1 O1        -8.5644   -0.3583   -1.8741 O.3       1 RES1    0.0000
      2 O2       -10.6935    0.4134   -2.3963 O.3       1 RES1    0.0000
      3 O3        -7.6996    1.3150   -5.6656 O.2       1 RES1    0.0000
      4 O4        -8.6626   -0.5797   -5.4237 O.2       1 RES1    0.0000
      5 O5       -10.7722    1.4797   -5.0265 O.3       1 RES1    0.0000
      6 H1       -11.2541    2.1177   -5.3419 H         1 RES1    0.0000
      7 N1        -9.4455   -0.1118   -2.9400 N.3       1 RES1    0.0000
      8 N2        -8.3679    0.5209   -5.0339 N.pl3     1 RES1    0.0000
      9 C1        -7.7053    1.5599   -2.8522 C.3       1 RES1    0.0000
     10 H2        -6.8206    1.2674   -3.2784 H         1 RES1    0.0000
     11 H3        -7.7637    2.4760   -2.7684 H         1 RES1    0.0000
     12 C2        -7.8174    0.8326   -1.5263 C.3       1 RES1    0.0000
     13 C3       -10.7624    1.8278   -2.6462 C.3       1 RES1    0.0000
     14 H4       -10.3231    2.3583   -1.8942 H         1 RES1    0.0000
     15 H5       -11.6443    2.0161   -2.7830 H         1 RES1    0.0000
     16 C4       -10.0279    1.9856   -3.9419 C.3       1 RES1    0.0000
     17 H6        -9.7203    2.8289   -4.1016 H         1 RES1    0.0000
     18 C5        -8.8647    1.0284   -3.6885 C.3       1 RES1    0.0000
     19 C6        -6.5173    0.4957   -0.7923 C.3       1 RES1    0.0000
     20 H7        -5.7152    0.6353   -1.3205 H         1 RES1    0.0000
     21 H8        -6.5145   -0.3770   -0.3697 H         1 RES1    0.0000
     22 C7        -6.8565    1.6546    0.1585 C.3       1 RES1    0.0000
     23 H9        -6.7375    1.4348    1.0946 H         1 RES1    0.0000
     24 H10       -6.4015    2.4824   -0.0637 H         1 RES1    0.0000
     25 C8        -6.9384    1.2514    0.4207 Du        2 SUP2    0.0000
     26 H11       -6.3778    2.0161    0.6174 Du        2 SUP2    0.0000
     27 H12       -7.0503    0.6920    1.2057 Du        2 SUP2    0.0000
     28 C9        -8.2912    1.6209   -0.2889 C.3       1 RES1    0.0000
     29 H13       -8.6623    2.4931   -0.4936 H         1 RES1    0.0000
     30 H14       -8.8768    1.1187    0.2987 H         1 RES1    0.0000
@<TRIPOS>BOND
     1    1    7 1
     2    2    7 1
     3    3    8 2
     4    4    8 2
     5    5    6 1
     6    7   18 1
     7    8   18 1
     8    9   10 1
     9   11    9 1
    10   12    1 1
    11   13    2 1
    12   14   13 1
    13   15   13 1
    14   16    5 1
    15   17   16 1
    16   18    9 1
    17   19   12 1
    18   20   19 1
    19   21   19 1
    20   22   19 1
    21   23   22 1
    22   24   22 1
    23   28   12 1
    24   29   28 1
    25   30   28 1
    26    9   12 1
    27   13   16 1
    28   16   18 1
    29   22   28 1
@<TRIPOS>SUBSTRUCTURE
     1 RES1 1
     2 SUP2 25

@<TRIPOS>CRYSIN
  10.0880    5.3477   18.6780  90.0000 102.8100  90.0000 231 1

