# MOL2 file generated by ConQuest
# Please check atom types

@<TRIPOS>MOLECULE
IHEHUA
    47    48     1
SMALL
NO_CHARGES
****
Generated from CSD

@<TRIPOS>ATOM
      1 O1         6.0469   14.1803    1.9405 O.3       1 RES1    0.0000
      2 O2         2.4263   12.1590    3.2101 O.3       1 RES1    0.0000
      3 O3         5.0011   17.5910    5.6573 O.3       1 RES1    0.0000
      4 C1         2.8913   11.0611    8.1206 C.ar      1 RES1    0.0000
      5 H1         2.5559   10.6370    8.8768 H         1 RES1    0.0000
      6 C2         4.1026   10.6831    7.5905 C.ar      1 RES1    0.0000
      7 H2         4.6031   10.0176    8.0047 H         1 RES1    0.0000
      8 C3         4.5717   11.2901    6.4581 C.ar      1 RES1    0.0000
      9 H3         5.3897   11.0196    6.1066 H         1 RES1    0.0000
     10 C4         3.8720   12.2799    5.8286 C.ar      1 RES1    0.0000
     11 C5         4.3765   12.8544    4.5349 C.3       1 RES1    0.0000
     12 H4         5.3548   12.7978    4.5258 H         1 RES1    0.0000
     13 N1         3.9802   14.2908    4.4200 N.3       1 RES1    0.0000
     14 O4         3.9997   14.6918    3.0176 O.3       1 RES1    0.0000
     15 C6         5.3306   15.1467    2.6731 C.3       1 RES1    0.0000
     16 H5         5.2744   15.9793    2.1584 H         1 RES1    0.0000
     17 C7         5.8553   14.1319    0.5073 C.3       1 RES1    0.0000
     18 C8         4.3889   14.0827    0.1235 C.3       1 RES1    0.0000
     19 H6         3.9607   13.3604    0.5890 H         1 RES1    0.0000
     20 H7         4.3103   13.9444   -0.8227 H         1 RES1    0.0000
     21 H8         3.9678   14.9126    0.3629 H         1 RES1    0.0000
     22 C9         6.5124   15.3384   -0.1501 C.3       1 RES1    0.0000
     23 H9         6.0386   16.1360    0.0969 H         1 RES1    0.0000
     24 H10        6.4888   15.2354   -1.1039 H         1 RES1    0.0000
     25 H11        7.4245   15.4044    0.1406 H         1 RES1    0.0000
     26 C10        2.1927   12.0524    7.5297 C.ar      1 RES1    0.0000
     27 H12        1.3877   12.3337    7.9021 H         1 RES1    0.0000
     28 C11        2.6641   12.6534    6.3789 C.ar      1 RES1    0.0000
     29 H13        2.1596   13.3189    5.9698 H         1 RES1    0.0000
     30 C12        3.8341   12.0540    3.3698 C.3       1 RES1    0.0000
     31 H14        4.2653   12.3568    2.5555 H         1 RES1    0.0000
     32 H15        4.0660   11.1211    3.4960 H         1 RES1    0.0000
     33 C13        4.9077   15.2670    5.0289 C.3       1 RES1    0.0000
     34 C14        4.1251   16.5833    5.1832 C.3       1 RES1    0.0000
     35 H16        3.7525   16.8461    4.3263 H         1 RES1    0.0000
     36 H17        3.3940   16.4603    5.8083 H         1 RES1    0.0000
     37 C15        5.4424   14.8419    6.4009 C.3       1 RES1    0.0000
     38 H18        4.7083   14.7251    7.0091 H         1 RES1    0.0000
     39 H19        6.0333   15.5182    6.7374 H         1 RES1    0.0000
     40 H20        5.9209   14.0135    6.3156 H         1 RES1    0.0000
     41 C16        6.0262   15.4025    3.9864 C.3       1 RES1    0.0000
     42 H21        6.4142   16.2912    4.0071 H         1 RES1    0.0000
     43 H22        6.7265   14.7497    4.1420 H         1 RES1    0.0000
     44 C17        6.5556   12.8486    0.0969 C.3       1 RES1    0.0000
     45 H23        7.4902   12.9116    0.3078 H         1 RES1    0.0000
     46 H24        6.4491   12.7133   -0.8474 H         1 RES1    0.0000
     47 H25        6.1705   12.1078    0.5719 H         1 RES1    0.0000
@<TRIPOS>BOND
     1    1   15 1
     2    2   30 1
     3    3   34 1
     4    4    5 1
     5    6    4 ar
     6    7    6 1
     7    8    6 ar
     8    9    8 1
     9   10    8 ar
    10   11   10 1
    11   12   11 1
    12   13   11 1
    13   14   13 1
    14   15   14 1
    15   16   15 1
    16   17    1 1
    17   18   17 1
    18   19   18 1
    19   20   18 1
    20   21   18 1
    21   22   17 1
    22   23   22 1
    23   24   22 1
    24   25   22 1
    25   26    4 ar
    26   27   26 1
    27   28   10 ar
    28   29   28 1
    29   30   11 1
    30   31   30 1
    31   32   30 1
    32   33   13 1
    33   34   33 1
    34   35   34 1
    35   36   34 1
    36   37   33 1
    37   38   37 1
    38   39   37 1
    39   40   37 1
    40   41   15 1
    41   42   41 1
    42   43   41 1
    43   44   17 1
    44   45   44 1
    45   46   44 1
    46   47   44 1
    47   26   28 ar
    48   33   41 1
@<TRIPOS>SUBSTRUCTURE
     1 RES1 1

@<TRIPOS>CRYSIN
   5.9150   15.3691   19.0000  90.0000  90.0000  90.0000  19 1

