# MOL2 file generated by ConQuest
# Please check atom types

@<TRIPOS>MOLECULE
IHEJAI
    41    43     1
SMALL
NO_CHARGES
****
Generated from CSD

@<TRIPOS>ATOM
      1 O1         9.1163    3.8258    5.6337 O.3       1 RES1    0.0000
      2 O2         4.2805    2.4093    1.5303 O.2       1 RES1    0.0000
      3 C1         9.6694    5.1092    6.1381 C.3       1 RES1    0.0000
      4 H1         9.5852    5.7830    5.4595 H         1 RES1    0.0000
      5 H2        10.5965    4.9931    6.3601 H         1 RES1    0.0000
      6 H3         9.1847    5.3808    6.9214 H         1 RES1    0.0000
      7 C2         7.8130    3.8212    5.3206 C.2       1 RES1    0.0000
      8 C3         7.3099    2.4132    4.8800 C.3       1 RES1    0.0000
      9 O3         8.2893    1.7853    3.9566 O.3       1 RES1    0.0000
     10 N1         7.8170    1.9716    2.5641 N.3       1 RES1    0.0000
     11 C4         8.1782    3.3495    2.0836 C.3       1 RES1    0.0000
     12 H4         7.7600    4.0220    2.6597 H         1 RES1    0.0000
     13 C5         9.6913    3.5844    2.0301 C.ar      1 RES1    0.0000
     14 C6        10.5720    2.5628    1.5883 C.ar      1 RES1    0.0000
     15 H5        10.2395    1.7230    1.3663 H         1 RES1    0.0000
     16 C7        11.9520    2.8233    1.4859 C.ar      1 RES1    0.0000
     17 H6        12.5295    2.1567    1.1910 H         1 RES1    0.0000
     18 C8        12.4655    4.0981    1.8308 C.ar      1 RES1    0.0000
     19 H7        13.3785    4.2628    1.7773 H         1 RES1    0.0000
     20 O4         7.0752    4.7969    5.4333 O.2       1 RES1    0.0000
     21 C9         7.2617    1.5334    6.1620 C.3       1 RES1    0.0000
     22 H8         6.9698    0.6489    5.9320 H         1 RES1    0.0000
     23 H9         6.6494    1.9192    6.7916 H         1 RES1    0.0000
     24 H10        8.1374    1.4894    6.5525 H         1 RES1    0.0000
     25 C10        5.9773    2.4860    4.0716 C.3       1 RES1    0.0000
     26 H11        5.6976    3.4072    3.9475 H         1 RES1    0.0000
     27 H12        5.2703    2.0018    4.5259 H         1 RES1    0.0000
     28 C11        6.3240    1.8115    2.6916 C.3       1 RES1    0.0000
     29 C12        5.9929    0.2867    2.6757 C.3       1 RES1    0.0000
     30 H13        6.2673   -0.0919    1.8365 H         1 RES1    0.0000
     31 H14        5.0467    0.1634    2.7873 H         1 RES1    0.0000
     32 H15        6.4600   -0.1496    3.3918 H         1 RES1    0.0000
     33 C13        5.4899    2.5221    1.5747 C.2       1 RES1    0.0000
     34 O5         6.1008    3.3331    0.6695 O.3       1 RES1    0.0000
     35 C14        7.5737    3.4295    0.6581 C.3       1 RES1    0.0000
     36 H16        7.8340    4.2694    0.2493 H         1 RES1    0.0000
     37 H17        7.9348    2.7098    0.1184 H         1 RES1    0.0000
     38 C15       11.6021    5.1000    2.2498 C.ar      1 RES1    0.0000
     39 H18       11.9399    5.9405    2.4605 H         1 RES1    0.0000
     40 C16       10.2105    4.8546    2.3580 C.ar      1 RES1    0.0000
     41 H19        9.6402    5.5304    2.6461 H         1 RES1    0.0000
@<TRIPOS>BOND
     1    1    3 1
     2    2   33 2
     3    3    4 1
     4    5    3 1
     5    6    3 1
     6    7    1 1
     7    8    7 1
     8    9    8 1
     9   10    9 1
    10   11   10 1
    11   12   11 1
    12   13   11 1
    13   14   13 ar
    14   15   14 1
    15   16   14 ar
    16   17   16 1
    17   18   16 ar
    18   19   18 1
    19   20    7 2
    20   21    8 1
    21   22   21 1
    22   23   21 1
    23   24   21 1
    24   25    8 1
    25   26   25 1
    26   27   25 1
    27   28   10 1
    28   29   28 1
    29   30   29 1
    30   31   29 1
    31   32   29 1
    32   33   28 1
    33   34   33 1
    34   35   11 1
    35   36   35 1
    36   37   35 1
    37   38   18 ar
    38   39   38 1
    39   40   13 ar
    40   41   40 1
    41   25   28 1
    42   34   35 1
    43   38   40 ar
@<TRIPOS>SUBSTRUCTURE
     1 RES1 1

@<TRIPOS>CRYSIN
  11.1130    6.5612   11.4170  90.0000  94.2350  90.0000   4 1

