# MOL2 file generated by ConQuest
# Please check atom types

@<TRIPOS>MOLECULE
IHELIS
    27    29     1
SMALL
NO_CHARGES
****
Generated from CSD

@<TRIPOS>ATOM
      1 N1         7.7443    2.5652    3.0523 N.2       1 RES1    0.0000
      2 N2         7.2356    2.0975    0.9310 N.2       1 RES1    0.0000
      3 N3        10.9923    6.5576    3.5016 N.ar      1 RES1    0.0000
      4 O1         8.1811    3.1617    1.0007 O.3       1 RES1    0.0000
      5 H1         8.5286    3.2999    4.6825 H         1 RES1    0.0000
      6 O2         8.9938    3.9721    5.0073 O.3       1 RES1    0.0000
      7 C1         7.0182    1.7923    2.1684 C.2       1 RES1    0.0000
      8 C2         8.4215    3.3668    2.2845 C.2       1 RES1    0.0000
      9 C3         9.3440    4.4257    2.6845 C.ar      1 RES1    0.0000
     10 C4        10.0134    5.2361    1.7703 C.ar      1 RES1    0.0000
     11 H2         9.9224    5.0758    0.8381 H         1 RES1    0.0000
     12 C5        10.8133    6.2778    2.2208 C.ar      1 RES1    0.0000
     13 H3        11.2552    6.8176    1.5760 H         1 RES1    0.0000
     14 C6        10.3812    5.7692    4.3682 C.ar      1 RES1    0.0000
     15 H4        10.5126    5.9454    5.2929 H         1 RES1    0.0000
     16 C7         9.5487    4.6855    4.0204 C.ar      1 RES1    0.0000
     17 C8         6.0722    0.7372    2.5663 C.ar      1 RES1    0.0000
     18 C9         5.7644    0.5683    3.8911 C.ar      1 RES1    0.0000
     19 H5         6.1758    1.1123    4.5527 H         1 RES1    0.0000
     20 C10        4.8403   -0.4100    4.2605 C.ar      1 RES1    0.0000
     21 H6         4.6197   -0.5180    5.1790 H         1 RES1    0.0000
     22 C11        4.2375   -1.2275    3.3199 C.ar      1 RES1    0.0000
     23 H7         3.6126   -1.8911    3.5870 H         1 RES1    0.0000
     24 C12        4.5533   -1.0654    2.0046 C.ar      1 RES1    0.0000
     25 H8         4.1501   -1.6226    1.3483 H         1 RES1    0.0000
     26 C13        5.4655   -0.0868    1.6172 C.ar      1 RES1    0.0000
     27 H9         5.6771    0.0207    0.6969 H         1 RES1    0.0000
@<TRIPOS>BOND
     1    1    7 1
     2    2    4 1
     3    3   12 ar
     4    4    8 1
     5    5    6 1
     6    6   16 1
     7    7    2 2
     8    8    1 2
     9    9    8 1
    10   10    9 ar
    11   11   10 1
    12   12   10 ar
    13   13   12 1
    14   14    3 ar
    15   15   14 1
    16   16    9 ar
    17   17    7 1
    18   18   17 ar
    19   19   18 1
    20   20   18 ar
    21   21   20 1
    22   22   20 ar
    23   23   22 1
    24   24   22 ar
    25   25   24 1
    26   26   17 ar
    27   27   26 1
    28   14   16 ar
    29   24   26 ar
@<TRIPOS>SUBSTRUCTURE
     1 RES1 1

@<TRIPOS>CRYSIN
   9.0870    5.1641   22.8970  90.0000  95.9220  90.0000  14 1

