# MOL2 file generated by ConQuest
# Please check atom types

@<TRIPOS>MOLECULE
IHETAQ
    50    52     1
SMALL
NO_CHARGES
****
Generated from CSD

@<TRIPOS>ATOM
      1 C1         7.0119    1.5973    0.4498 C.ar      1 RES1    0.0000
      2 C2         8.3290    1.8420    0.4636 C.ar      1 RES1    0.0000
      3 C3         9.3203    0.8123    0.3944 C.ar      1 RES1    0.0000
      4 C4         8.8235   -0.4986    0.2837 C.ar      1 RES1    0.0000
      5 C5         7.4471   -0.7902    0.2560 C.ar      1 RES1    0.0000
      6 C6         6.5356    0.1940    0.3252 C.ar      1 RES1    0.0000
      7 C7         5.8634    2.4903    0.4844 C.2       1 RES1    0.0000
      8 N1         8.8691    3.2649    0.5744 N.pl3     1 RES1    0.0000
      9 O1         8.0373    4.1176    0.7266 O.2       1 RES1    0.0000
     10 O2        10.0290    3.4263    0.4083 O.2       1 RES1    0.0000
     11 N2         9.7578   -1.6338    0.2076 N.pl3     1 RES1    0.0000
     12 O3        10.8995   -1.3265    0.2906 O.2       1 RES1    0.0000
     13 O4         9.3750   -2.7702    0.0138 O.2       1 RES1    0.0000
     14 N3         5.1273    0.1510    0.3114 N.2       1 RES1    0.0000
     15 N4         4.5781   -0.8865    0.7058 N.2       1 RES1    0.0000
     16 C8         3.1766   -0.9750    0.5121 C.ar      1 RES1    0.0000
     17 C9         2.5750   -2.2586    0.6505 C.ar      1 RES1    0.0000
     18 C10        1.2032   -2.3497    0.4567 C.ar      1 RES1    0.0000
     19 C11        0.4421   -1.2315    0.1522 C.ar      1 RES1    0.0000
     20 C12        1.0300    0.0273    0.0346 C.ar      1 RES1    0.0000
     21 C13        2.3927    0.1523    0.2214 C.ar      1 RES1    0.0000
     22 N5         5.5033    3.1217   -0.6782 N.am      1 RES1    0.0000
     23 C14        4.3912    3.9731   -0.8096 C.ar      1 RES1    0.0000
     24 C15        3.3020    3.9015    0.0830 C.ar      1 RES1    0.0000
     25 C16        2.1922    4.7307   -0.0277 C.ar      1 RES1    0.0000
     26 C17        2.1307    5.6524   -1.0588 C.ar      1 RES1    0.0000
     27 C18        3.1675    5.7253   -1.9860 C.ar      1 RES1    0.0000
     28 C19        4.2955    4.9026   -1.8753 C.ar      1 RES1    0.0000
     29 O5         5.3483    4.9963   -2.8026 O.3       1 RES1    0.0000
     30 O6         3.3772   -3.3352    0.9411 O.3       1 RES1    0.0000
     31 C20        4.9815    5.6863   -3.9721 C.3       1 RES1    0.0000
     32 O7         5.3802    2.7273    1.6241 O.2       1 RES1    0.0000
     33 C21        2.7300   -4.5823    0.8166 C.3       1 RES1    0.0000
     34 H1         7.1737   -1.6949    0.1875 H         1 RES1    0.0000
     35 H2        10.2273    0.9959    0.4145 H         1 RES1    0.0000
     36 H3         0.7839   -3.1803    0.5315 H         1 RES1    0.0000
     37 H4        -0.4763   -1.3239    0.0367 H         1 RES1    0.0000
     38 H5         0.5105    0.7746   -0.1592 H         1 RES1    0.0000
     39 H6         2.7984    0.9855    0.1377 H         1 RES1    0.0000
     40 H7         6.1277    3.1660   -1.2802 H         1 RES1    0.0000
     41 H8         3.3612    3.3001    0.7903 H         1 RES1    0.0000
     42 H9         1.4972    4.6591    0.5854 H         1 RES1    0.0000
     43 H10        1.3787    6.1914   -1.1515 H         1 RES1    0.0000
     44 H11        3.1151    6.3359   -2.6767 H         1 RES1    0.0000
     45 H12        5.6924    5.6524   -4.6108 H         1 RES1    0.0000
     46 H13        4.7855    6.6027   -3.7479 H         1 RES1    0.0000
     47 H14        4.1884    5.2840   -4.3465 H         1 RES1    0.0000
     48 H15        3.3430   -5.2840    1.0484 H         1 RES1    0.0000
     49 H16        2.4429   -4.6995   -0.0941 H         1 RES1    0.0000
     50 H17        1.9689   -4.6097    1.3965 H         1 RES1    0.0000
@<TRIPOS>BOND
     1    1    2 ar
     2    2    3 ar
     3    3    4 ar
     4    4    5 ar
     5    5    6 ar
     6    6    1 ar
     7    7    1 1
     8    8    2 1
     9    9    8 2
    10   10    8 2
    11   11    4 1
    12   12   11 2
    13   13   11 2
    14   14    6 1
    15   15   14 2
    16   16   15 1
    17   17   16 ar
    18   18   17 ar
    19   19   18 ar
    20   20   19 ar
    21   21   16 ar
    22   22    7 1
    23   23   22 1
    24   24   23 ar
    25   25   24 ar
    26   26   25 ar
    27   27   26 ar
    28   28   23 ar
    29   29   28 1
    30   30   17 1
    31   31   29 1
    32   32    7 2
    33   33   30 1
    34   34    5 1
    35   35    3 1
    36   36   18 1
    37   37   19 1
    38   38   20 1
    39   39   21 1
    40   40   22 1
    41   41   24 1
    42   42   25 1
    43   43   26 1
    44   44   27 1
    45   45   31 1
    46   46   31 1
    47   47   31 1
    48   48   33 1
    49   49   33 1
    50   50   33 1
    51   20   21 ar
    52   27   28 ar
@<TRIPOS>SUBSTRUCTURE
     1 RES1 1

@<TRIPOS>CRYSIN
  22.7880   13.0180    6.9200  90.0000  90.0000  90.0000  19 1

