# MOL2 file generated by ConQuest
# Please check atom types

@<TRIPOS>MOLECULE
IHOQUT
    48    53     1
SMALL
NO_CHARGES
****
Generated from CSD

@<TRIPOS>ATOM
      1 N1         2.3630    4.8398    3.0168 N.2       1 RES1    0.0000
      2 O1         5.4531    6.3701    3.1870 O.3       1 RES1    0.0000
      3 C1         0.5176    3.6275    3.8783 C.2       1 RES1    0.0000
      4 H1         0.2343    3.0793    4.6961 H         1 RES1    0.0000
      5 N2         4.3648    6.0070    2.4265 N.2       1 RES1    0.0000
      6 C2         3.5618    5.4230    3.2855 C.2       1 RES1    0.0000
      7 N3         5.3166    6.0093    4.5194 N.2       1 RES1    0.0000
      8 C3         4.1528    5.4323    4.5602 C.2       1 RES1    0.0000
      9 N4         3.5261    4.9541    5.6727 N.2       1 RES1    0.0000
     10 C4        -0.1664    3.6423    2.7350 C.2       1 RES1    0.0000
     11 H2         0.2129    4.1135    1.9953 H         1 RES1    0.0000
     12 N5        -5.0892    1.1516    1.8217 N.3       1 RES1    0.0000
     13 C5         2.3298    4.4766    5.4462 C.2       1 RES1    0.0000
     14 C6         1.7611    4.3569    4.0768 C.2       1 RES1    0.0000
     15 C7        -3.8563    1.7636    1.8639 C.ar      1 RES1    0.0000
     16 C8        -3.1182    2.3344    0.8344 C.ar      1 RES1    0.0000
     17 H3        -3.4194    2.3141   -0.0450 H         1 RES1    0.0000
     18 C9        -1.9325    2.9277    1.1661 C.ar      1 RES1    0.0000
     19 H4        -1.4345    3.3266    0.4876 H         1 RES1    0.0000
     20 C10       -1.4250    2.9673    2.4774 C.ar      1 RES1    0.0000
     21 C11       -2.1779    2.3709    3.4896 C.ar      1 RES1    0.0000
     22 H5        -1.8167    2.4106    4.3641 H         1 RES1    0.0000
     23 C12       -3.3963    1.7784    3.1991 C.ar      1 RES1    0.0000
     24 C13       -4.4211    1.1532    3.9969 C.ar      1 RES1    0.0000
     25 C14       -4.5832    0.9028    5.3448 C.ar      1 RES1    0.0000
     26 H6        -3.9102    1.1252    5.9479 H         1 RES1    0.0000
     27 C15       -5.7478    0.3227    5.7906 C.ar      1 RES1    0.0000
     28 H7        -5.8656    0.1649    6.6983 H         1 RES1    0.0000
     29 C16       -6.7473   -0.0288    4.8956 C.ar      1 RES1    0.0000
     30 H8        -7.5274   -0.4160    5.2217 H         1 RES1    0.0000
     31 C17       -6.6204    0.1773    3.5459 C.ar      1 RES1    0.0000
     32 H9        -7.2891   -0.0793    2.9532 H         1 RES1    0.0000
     33 C18       -5.4497    0.7862    3.1002 C.ar      1 RES1    0.0000
     34 C19       -5.8921    0.9207    0.6259 C.3       1 RES1    0.0000
     35 H10       -6.7089    0.4782    0.8680 H         1 RES1    0.0000
     36 H11       -5.4011    0.3701    0.0104 H         1 RES1    0.0000
     37 H12       -6.0963    1.7613    0.2109 H         1 RES1    0.0000
     38 C20        1.5708    4.0847    6.6610 C.ar      1 RES1    0.0000
     39 C21        0.2283    4.4277    6.8183 C.ar      1 RES1    0.0000
     40 H13       -0.2229    4.8662    6.1347 H         1 RES1    0.0000
     41 C22       -0.4336    4.1143    7.9948 C.ar      1 RES1    0.0000
     42 H14       -1.3283    4.3468    8.0989 H         1 RES1    0.0000
     43 C23        0.2168    3.4681    9.0011 C.ar      1 RES1    0.0000
     44 H15       -0.2348    3.2589    9.7864 H         1 RES1    0.0000
     45 C24        1.5239    3.1267    8.8593 C.ar      1 RES1    0.0000
     46 H16        1.9610    2.6812    9.5478 H         1 RES1    0.0000
     47 C25        2.2162    3.4370    7.6950 C.ar      1 RES1    0.0000
     48 H17        3.1141    3.2084    7.6113 H         1 RES1    0.0000
@<TRIPOS>BOND
     1    1    6 1
     2    2    5 1
     3    3    4 1
     4    5    6 2
     5    6    8 1
     6    7    2 1
     7    8    7 2
     8    9    8 1
     9   10    3 2
    10   11   10 1
    11   12   15 1
    12   13    9 2
    13   14    1 2
    14   15   16 ar
    15   16   17 1
    16   18   16 ar
    17   19   18 1
    18   20   10 1
    19   21   20 ar
    20   22   21 1
    21   23   15 ar
    22   24   23 1
    23   25   24 ar
    24   26   25 1
    25   27   25 ar
    26   28   27 1
    27   29   27 ar
    28   30   29 1
    29   31   29 ar
    30   32   31 1
    31   33   12 1
    32   34   12 1
    33   35   34 1
    34   36   34 1
    35   37   34 1
    36   38   13 1
    37   39   38 ar
    38   40   39 1
    39   41   39 ar
    40   42   41 1
    41   43   41 ar
    42   44   43 1
    43   45   43 ar
    44   46   45 1
    45   47   38 ar
    46   48   47 1
    47    3   14 1
    48   13   14 1
    49   18   20 ar
    50   21   23 ar
    51   24   33 ar
    52   31   33 ar
    53   45   47 ar
@<TRIPOS>SUBSTRUCTURE
     1 RES1 1

@<TRIPOS>CRYSIN
   7.5252    7.7760   34.7560  90.0000  95.7520  90.0000  14 1

