# MOL2 file generated by ConQuest
# Please check atom types

@<TRIPOS>MOLECULE
IHOXOS
    60    61     1
SMALL
NO_CHARGES
****
Generated from CSD

@<TRIPOS>ATOM
      1 C1         3.6627    5.9006    1.3402 C.3       1 RES1    0.0000
      2 H1         2.9884    6.1803    0.7008 H         1 RES1    0.0000
      3 H2         4.4586    5.6631    0.8405 H         1 RES1    0.0000
      4 C2         3.1592    4.6669    2.0636 C.3       1 RES1    0.0000
      5 H3         2.3029    4.8598    2.4763 H         1 RES1    0.0000
      6 H4         3.0310    3.9471    1.4263 H         1 RES1    0.0000
      7 C3         4.1497    4.2336    3.1266 C.3       1 RES1    0.0000
      8 H5         5.0039    4.0295    2.7160 H         1 RES1    0.0000
      9 H6         3.8266    3.4339    3.5705 H         1 RES1    0.0000
     10 C4         4.3182    5.3545    4.1387 C.3       1 RES1    0.0000
     11 H7         4.9655    5.0792    4.8065 H         1 RES1    0.0000
     12 H8         3.4718    5.4987    4.5904 H         1 RES1    0.0000
     13 C5         4.7772    6.6712    3.5224 C.3       1 RES1    0.0000
     14 O1         6.1246    6.6622    3.1647 O.3       1 RES1    0.0000
     15 H9         6.5717    6.3794    3.7908 H         1 RES1    0.0000
     16 N1         4.4206    7.7877    4.4449 N.am      1 RES1    0.0000
     17 C6         5.2138    8.0865    5.5371 C.2       1 RES1    0.0000
     18 O2         6.1577    7.3976    5.8390 O.2       1 RES1    0.0000
     19 O3         4.7999    9.1705    6.1578 O.3       1 RES1    0.0000
     20 C7         5.6501    9.8951    7.1313 C.3       1 RES1    0.0000
     21 C8         5.9476    9.0355    8.3382 C.3       1 RES1    0.0000
     22 H10        5.1230    8.7658    8.7499 H         1 RES1    0.0000
     23 H11        6.4706    9.5369    8.9670 H         1 RES1    0.0000
     24 H12        6.4366    8.2570    8.0631 H         1 RES1    0.0000
     25 C9         6.9088   10.3507    6.4262 C.3       1 RES1    0.0000
     26 H13        6.6743   10.8969    5.6728 H         1 RES1    0.0000
     27 H14        7.4018    9.5842    6.1242 H         1 RES1    0.0000
     28 H15        7.4496   10.8605    7.0345 H         1 RES1    0.0000
     29 C10        4.7341   11.0438    7.5171 C.3       1 RES1    0.0000
     30 H16        4.5548   11.5841    6.7433 H         1 RES1    0.0000
     31 H17        5.1604   11.5798    8.1899 H         1 RES1    0.0000
     32 H18        3.9093   10.6942    7.8610 H         1 RES1    0.0000
     33 C11        3.2706    8.4643    4.0040 C.2       1 RES1    0.0000
     34 O4         2.7195    9.3965    4.5065 O.2       1 RES1    0.0000
     35 N2         2.8228    7.7419    2.8715 N.am      1 RES1    0.0000
     36 O5         2.1664    8.5872    1.9352 O.3       1 RES1    0.0000
     37 C12        0.7058    8.4037    1.8549 C.3       1 RES1    0.0000
     38 C13        0.0395    8.8229    3.1352 C.3       1 RES1    0.0000
     39 H19        0.2943    9.7247    3.3480 H         1 RES1    0.0000
     40 H20        0.3132    8.2376    3.8445 H         1 RES1    0.0000
     41 H21       -0.9135    8.7760    3.0298 H         1 RES1    0.0000
     42 C14        0.3690    9.3640    0.7319 C.3       1 RES1    0.0000
     43 H22        0.6036   10.2577    0.9942 H         1 RES1    0.0000
     44 H23       -0.5727    9.3212    0.5460 H         1 RES1    0.0000
     45 H24        0.8613    9.1216   -0.0548 H         1 RES1    0.0000
     46 C15        0.3525    6.9923    1.4789 C.3       1 RES1    0.0000
     47 H25        0.8018    6.7563    0.6642 H         1 RES1    0.0000
     48 H26       -0.5965    6.9228    1.3532 H         1 RES1    0.0000
     49 H27        0.6270    6.3972    2.1808 H         1 RES1    0.0000
     50 C16        3.9921    7.0821    2.2481 C.3       1 RES1    0.0000
     51 C17        4.7798    8.1389    1.4286 C.2       1 RES1    0.0000
     52 O6         5.1683    7.9677    0.3108 O.2       1 RES1    0.0000
     53 O7         4.9345    9.2668    2.1147 O.3       1 RES1    0.0000
     54 C18        5.4717   10.4055    1.4080 C.3       1 RES1    0.0000
     55 H28        4.8053   10.7588    0.7986 H         1 RES1    0.0000
     56 H29        6.2461   10.1363    0.8889 H         1 RES1    0.0000
     57 C19        5.8545   11.4310    2.3753 C.3       1 RES1    0.0000
     58 H30        6.2071   12.1935    1.9110 H         1 RES1    0.0000
     59 H31        6.5234   11.0799    2.9675 H         1 RES1    0.0000
     60 H32        5.0843   11.6955    2.8837 H         1 RES1    0.0000
@<TRIPOS>BOND
     1    1    2 1
     2    3    1 1
     3    4    1 1
     4    5    4 1
     5    6    4 1
     6    7    4 1
     7    8    7 1
     8    9    7 1
     9   10    7 1
    10   11   10 1
    11   12   10 1
    12   13   10 1
    13   14   13 1
    14   15   14 1
    15   16   13 1
    16   17   16 1
    17   18   17 2
    18   19   17 1
    19   20   19 1
    20   21   20 1
    21   22   21 1
    22   23   21 1
    23   24   21 1
    24   25   20 1
    25   26   25 1
    26   27   25 1
    27   28   25 1
    28   29   20 1
    29   30   29 1
    30   31   29 1
    31   32   29 1
    32   33   16 1
    33   34   33 2
    34   35   33 1
    35   36   35 1
    36   37   36 1
    37   38   37 1
    38   39   38 1
    39   40   38 1
    40   41   38 1
    41   42   37 1
    42   43   42 1
    43   44   42 1
    44   45   42 1
    45   46   37 1
    46   47   46 1
    47   48   46 1
    48   49   46 1
    49   50    1 1
    50   51   50 1
    51   52   51 2
    52   53   51 1
    53   54   53 1
    54   55   54 1
    55   56   54 1
    56   57   54 1
    57   58   57 1
    58   59   57 1
    59   60   57 1
    60   13   50 1
    61   35   50 1
@<TRIPOS>SUBSTRUCTURE
     1 RES1 1

@<TRIPOS>CRYSIN
   8.9860   11.2672   11.3425  80.3900  72.8190  80.9090   2 1

