# MOL2 file generated by ConQuest
# Please check atom types

@<TRIPOS>MOLECULE
IHULIH
    47    49     1
SMALL
NO_CHARGES
****
Generated from CSD

@<TRIPOS>ATOM
      1 N1         6.0199    6.5687    0.5131 N.pl3     1 RES1    0.0000
      2 N2         7.2287    5.1996    1.7837 N.2       1 RES1    0.0000
      3 N3         1.6422   -1.1781    1.5336 N.pl3     1 RES1    0.0000
      4 O1         4.1328    4.8684    3.8446 O.2       1 RES1    0.0000
      5 O2         5.6581    3.3983    4.5458 O.3       1 RES1    0.0000
      6 O3         0.4731   -0.9855    1.2834 O.2       1 RES1    0.0000
      7 O4         2.1268   -2.2863    1.6020 O.2       1 RES1    0.0000
      8 O5         1.7268    8.7676   -2.2661 O.3       1 RES1    0.0000
      9 C1         7.2288    7.1981    0.7525 C.2       1 RES1    0.0000
     10 H1         7.4953    8.0376    0.4504 H         1 RES1    0.0000
     11 C2         7.9384    6.3462    1.5129 C.2       1 RES1    0.0000
     12 H2         8.8016    6.5116    1.8179 H         1 RES1    0.0000
     13 C3         6.0773    5.3662    1.1630 C.2       1 RES1    0.0000
     14 C4         4.9452    4.3784    1.1537 C.3       1 RES1    0.0000
     15 H3         4.9185    3.9256    0.2965 H         1 RES1    0.0000
     16 H4         4.1045    4.8497    1.2706 H         1 RES1    0.0000
     17 C5         5.1087    3.3459    2.2697 C.3       1 RES1    0.0000
     18 H5         6.0271    3.0054    2.2312 H         1 RES1    0.0000
     19 C6         4.9054    3.9757    3.6244 C.2       1 RES1    0.0000
     20 C7         5.5096    3.8654    5.9026 C.3       1 RES1    0.0000
     21 H6         5.5258    4.8264    5.9140 H         1 RES1    0.0000
     22 H7         6.2305    3.5257    6.4385 H         1 RES1    0.0000
     23 H8         4.6735    3.5567    6.2582 H         1 RES1    0.0000
     24 C8         4.1666    2.1628    2.1086 C.ar      1 RES1    0.0000
     25 C9         4.6620    0.8744    2.1493 C.ar      1 RES1    0.0000
     26 H9         5.5708    0.7455    2.2975 H         1 RES1    0.0000
     27 C10        3.8428   -0.2275    1.9747 C.ar      1 RES1    0.0000
     28 H10        4.1883   -1.0911    2.0082 H         1 RES1    0.0000
     29 C11        2.5187   -0.0144    1.7538 C.ar      1 RES1    0.0000
     30 C12        1.9743    1.2449    1.7082 C.ar      1 RES1    0.0000
     31 H11        1.0668    1.3668    1.5435 H         1 RES1    0.0000
     32 C13        2.8087    2.3356    1.9120 C.ar      1 RES1    0.0000
     33 H12        2.4498    3.1917    1.9170 H         1 RES1    0.0000
     34 C14        4.9339    7.1162   -0.2352 C.ar      1 RES1    0.0000
     35 C15        4.4154    6.4499   -1.3269 C.ar      1 RES1    0.0000
     36 H13        4.7916    5.6419   -1.5899 H         1 RES1    0.0000
     37 C16        3.3511    6.9617   -2.0324 C.ar      1 RES1    0.0000
     38 H14        3.0024    6.4961   -2.7571 H         1 RES1    0.0000
     39 C17        2.7981    8.1852   -1.6526 C.ar      1 RES1    0.0000
     40 C18        3.3360    8.8716   -0.5822 C.ar      1 RES1    0.0000
     41 H15        2.9871    9.6995   -0.3442 H         1 RES1    0.0000
     42 C19        4.3827    8.3420    0.1361 C.ar      1 RES1    0.0000
     43 H16        4.7228    8.8025    0.8694 H         1 RES1    0.0000
     44 C20        1.0375    8.0236   -3.2460 C.3       1 RES1    0.0000
     45 H17        1.6315    7.8202   -3.9714 H         1 RES1    0.0000
     46 H18        0.2947    8.5385   -3.5731 H         1 RES1    0.0000
     47 H19        0.7150    7.2067   -2.8590 H         1 RES1    0.0000
@<TRIPOS>BOND
     1    1    9 1
     2    2   11 1
     3    3    6 2
     4    4   19 2
     5    5   19 1
     6    7    3 2
     7    8   39 1
     8    9   10 1
     9   11    9 2
    10   12   11 1
    11   13    1 1
    12   14   13 1
    13   15   14 1
    14   16   14 1
    15   17   14 1
    16   18   17 1
    17   19   17 1
    18   20    5 1
    19   21   20 1
    20   22   20 1
    21   23   20 1
    22   24   17 1
    23   25   24 ar
    24   26   25 1
    25   27   25 ar
    26   28   27 1
    27   29    3 1
    28   30   29 ar
    29   31   30 1
    30   32   24 ar
    31   33   32 1
    32   34    1 1
    33   35   34 ar
    34   36   35 1
    35   37   35 ar
    36   38   37 1
    37   39   37 ar
    38   40   39 ar
    39   41   40 1
    40   42   34 ar
    41   43   42 1
    42   44    8 1
    43   45   44 1
    44   46   44 1
    45   47   44 1
    46    2   13 2
    47   27   29 ar
    48   30   32 ar
    49   40   42 ar
@<TRIPOS>SUBSTRUCTURE
     1 RES1 1

@<TRIPOS>CRYSIN
   6.7751   38.8290    7.5838  90.0000 110.0050  90.0000  14 1

