# MOL2 file generated by ConQuest
# Please check atom types

@<TRIPOS>MOLECULE
IJESAR
    34    31     2
SMALL
NO_CHARGES
****
Generated from CSD

@<TRIPOS>ATOM
      1 N1         1.8045    1.6688   -1.1453 N.pl3     1 RES1    0.0000
      2 C1         2.9433    1.6687   -2.0529 C.3       1 RES1    0.0000
      3 H1         2.6284    1.6687   -2.9595 H         1 RES1    0.0000
      4 H2         3.4756    0.8851   -1.8990 H         1 RES1    0.0000
      5 H3         3.7578    1.6687   -1.5448 Du        2 SUP2    0.0000
      6 H4         2.9110    2.4524   -2.6063 Du        2 SUP2    0.0000
      7 C2         1.8498    1.6688    0.2151 C.2       1 RES1    0.0000
      8 C3         3.1110    1.6688    0.9875 C.3       1 RES1    0.0000
      9 H5         3.8577    1.6688    0.3837 H         1 RES1    0.0000
     10 H6         3.1468    0.8851    1.5409 H         1 RES1    0.0000
     11 H7         2.9102    1.6688    1.9266 Du        2 SUP2    0.0000
     12 H8         3.6210    2.4524    0.7695 Du        2 SUP2    0.0000
     13 N2         0.6515    1.6688    0.7344 N.2       1 RES1    0.0000
     14 C4        -0.1837    1.6688   -0.3364 C.2       1 RES1    0.0000
     15 N3        -1.5845    1.6688   -0.1243 N.pl3     1 RES1    0.0000
     16 O1        -2.3180    1.6688   -1.1078 O.2       1 RES1    0.0000
     17 O2        -2.0057    1.6688    1.0240 O.2       1 RES1    0.0000
     18 C5         0.4870    1.6687   -1.5320 C.2       1 RES1    0.0000
     19 N4         0.1786    1.6687   -2.8875 N.3       1 RES1    0.0000
     20 C6        -0.4449    0.4612   -3.4172 C.3       1 RES1    0.0000
     21 H9        -1.3667    0.4065   -3.1203 H         1 RES1    0.0000
     22 H10        0.0271   -0.3237   -3.0966 H         1 RES1    0.0000
     23 C7        -0.3936    0.5120   -4.9127 C.3       1 RES1    0.0000
     24 H11        0.5332    0.4886   -5.2008 H         1 RES1    0.0000
     25 H12       -0.8370   -0.2717   -5.2738 H         1 RES1    0.0000
     26 O3        -1.0077    1.6687   -5.4257 O.3       1 RES1    0.0000
     27 H2A        3.4756    2.4524   -1.8990 H         1 RES1    0.0000
     28 H6A        3.1468    2.4524    1.5409 H         1 RES1    0.0000
     29 C7A       -0.3936    2.8255   -4.9127 C.3       1 RES1    0.0000
     30 C6A       -0.4449    2.8763   -3.4172 C.3       1 RES1    0.0000
     31 H9A       -1.3667    2.9310   -3.1203 H         1 RES1    0.0000
     32 H10A       0.0271    3.6612   -3.0966 H         1 RES1    0.0000
     33 H11A       0.5332    2.8489   -5.2008 H         1 RES1    0.0000
     34 H12A      -0.8370    3.6092   -5.2738 H         1 RES1    0.0000
@<TRIPOS>BOND
     1    1    2 1
     2    2    3 1
     3    4    2 1
     4    7    1 1
     5    8    7 1
     6    9    8 1
     7   10    8 1
     8   13    7 2
     9   14   13 1
    10   15   14 1
    11   16   15 2
    12   17   15 2
    13   18    1 1
    14   19   18 1
    15   20   19 1
    16   21   20 1
    17   22   20 1
    18   23   20 1
    19   24   23 1
    20   25   23 1
    21   26   23 1
    22   27    2 1
    23   28    8 1
    24   29   26 1
    25   30   19 1
    26   31   30 1
    27   32   30 1
    28   33   29 1
    29   34   29 1
    30   14   18 2
    31   29   30 1
@<TRIPOS>SUBSTRUCTURE
     1 RES1 1
     2 SUP2 5

@<TRIPOS>CRYSIN
   8.5890    6.6750   10.6570  90.0000 112.2300  90.0000  11 1

