# MOL2 file generated by ConQuest
# Please check atom types

@<TRIPOS>MOLECULE
IJICUB
    34    34     1
SMALL
NO_CHARGES
****
Generated from CSD

@<TRIPOS>ATOM
      1 H1         7.2806    4.6349    3.1082 H         1 RES1    0.0000
      2 H2        -1.7668    1.8780    1.1138 H         1 RES1    0.0000
      3 H3         0.9544    2.8115    4.4416 H         1 RES1    0.0000
      4 H4         0.8750    1.8125   -1.1774 H         1 RES1    0.0000
      5 H5         0.6466    1.1226   -3.4069 H         1 RES1    0.0000
      6 O1        -1.1246    2.3120    3.3011 O.2       1 RES1    0.0000
      7 O2         6.6172    4.0926    2.5860 O.3       1 RES1    0.0000
      8 N1        -1.0472    2.0270    0.6218 N.3       1 RES1    0.0000
      9 N2         1.0496    2.7817    3.5028 N.am      1 RES1    0.0000
     10 N3         2.2661    2.8791    2.8872 N.2       1 RES1    0.0000
     11 N4         5.4601    4.0686    3.3843 N.2       1 RES1    0.0000
     12 C1         0.0118    1.5341   -1.5100 C.ar      1 RES1    0.0000
     13 C2        -0.1214    1.1160   -2.8288 C.ar      1 RES1    0.0000
     14 C3        -1.3097    0.6987   -3.3244 C.ar      1 RES1    0.0000
     15 C4        -2.4129    0.6907   -2.5070 C.ar      1 RES1    0.0000
     16 C5        -2.3218    1.1117   -1.1882 C.ar      1 RES1    0.0000
     17 C6        -1.1016    1.5508   -0.6766 C.ar      1 RES1    0.0000
     18 C7         0.2086    2.1782    1.3032 C.3       1 RES1    0.0000
     19 C8        -0.0202    2.4269    2.7706 C.2       1 RES1    0.0000
     20 C9         3.2481    3.3662    3.5595 C.2       1 RES1    0.0000
     21 C10        3.1881    3.8446    4.9683 C.3       1 RES1    0.0000
     22 C11        4.5094    3.4368    2.8099 C.2       1 RES1    0.0000
     23 C12        4.5931    2.8217    1.4491 C.3       1 RES1    0.0000
     24 H6        -1.3596    0.3773   -4.2239 H         1 RES1    0.0000
     25 H7        -3.2613    0.4057   -2.8615 H         1 RES1    0.0000
     26 H8        -3.1033    1.1175   -0.6186 H         1 RES1    0.0000
     27 H9         0.6889    2.9177    0.9307 H         1 RES1    0.0000
     28 H10        0.7306    1.3894    1.1947 H         1 RES1    0.0000
     29 H11        4.0368    4.1624    5.2509 H         1 RES1    0.0000
     30 H12        2.5521    4.5601    5.0486 H         1 RES1    0.0000
     31 H13        2.9133    3.1365    5.5515 H         1 RES1    0.0000
     32 H14        3.7610    2.4044    1.2467 H         1 RES1    0.0000
     33 H15        4.8091    3.4600    0.8074 H         1 RES1    0.0000
     34 H16        5.2732    2.1361    1.4703 H         1 RES1    0.0000
@<TRIPOS>BOND
     1    1    7 1
     2    2    8 1
     3    3    9 1
     4    4   12 1
     5    5   13 1
     6    6   19 2
     7    7   11 1
     8    8   17 1
     9    9   10 1
    10   10   20 2
    11   11   22 2
    12   12   13 ar
    13   13   14 ar
    14   14   15 ar
    15   15   16 ar
    16   16   17 ar
    17   17   12 ar
    18   18    8 1
    19   19    9 1
    20   20   21 1
    21   21   29 1
    22   22   20 1
    23   23   22 1
    24   24   14 1
    25   25   15 1
    26   26   16 1
    27   27   18 1
    28   28   18 1
    29   30   21 1
    30   31   21 1
    31   32   23 1
    32   33   23 1
    33   34   23 1
    34   18   19 1
@<TRIPOS>SUBSTRUCTURE
     1 RES1 1

@<TRIPOS>CRYSIN
  19.3126    7.2705   19.3154  90.0000  93.9500  90.0000  15 1

