# MOL2 file generated by ConQuest
# Please check atom types

@<TRIPOS>MOLECULE
IJIVIG
    16    16     1
SMALL
NO_CHARGES
****
Generated from CSD

@<TRIPOS>ATOM
      1 O1         0.4798   -1.7905    2.0039 O.2       1 RES1    0.0000
      2 O2         4.7908   -0.7544    3.2583 O.2       1 RES1    0.0000
      3 O3         5.8428    0.3878    4.7842 O.2       1 RES1    0.0000
      4 N1         0.8023   -1.2771    3.1872 N.pl3     1 RES1    0.0000
      5 N2         3.6778    0.2254    4.9145 N.3       1 RES1    0.0000
      6 N3         4.8200   -0.0715    4.2783 N.pl3     1 RES1    0.0000
      7 C1         2.0573   -0.8048    3.3705 C.ar      1 RES1    0.0000
      8 C2         2.4245   -0.3210    4.6039 C.ar      1 RES1    0.0000
      9 C3         1.4933   -0.2929    5.6369 C.ar      1 RES1    0.0000
     10 C4         0.2251   -0.7688    5.3914 C.ar      1 RES1    0.0000
     11 C5        -0.1090   -1.2556    4.1650 C.ar      1 RES1    0.0000
     12 H1         3.8393    0.6302    5.7812 H         1 RES1    0.0000
     13 H2         2.5891   -0.8600    2.6251 H         1 RES1    0.0000
     14 H3         1.7811    0.0704    6.5226 H         1 RES1    0.0000
     15 H4        -0.4675   -0.9045    6.0918 H         1 RES1    0.0000
     16 H5        -0.9914   -1.6719    3.9576 H         1 RES1    0.0000
@<TRIPOS>BOND
     1    1    4 1
     2    2    6 2
     3    3    6 2
     4    4    7 ar
     5    5    6 1
     6    7    8 ar
     7    8    5 1
     8    9    8 ar
     9   10    9 ar
    10   11    4 ar
    11   12    5 1
    12   13    7 1
    13   14    9 1
    14   15   10 1
    15   16   11 1
    16   10   11 ar
@<TRIPOS>SUBSTRUCTURE
     1 RES1 1

