# MOL2 file generated by ConQuest
# Please check atom types

@<TRIPOS>MOLECULE
IJUHIG
    51    54     1
SMALL
NO_CHARGES
****
Generated from CSD

@<TRIPOS>ATOM
      1 O1         5.3911    5.0560    1.6454 O.2       1 RES1    0.0000
      2 O2         9.4762    4.6386    2.9105 O.2       1 RES1    0.0000
      3 O3         7.3679    3.6112    0.2704 O.2       1 RES1    0.0000
      4 O4         6.0273    1.9669   -0.1885 O.2       1 RES1    0.0000
      5 O5         7.7410    0.2360    4.8411 O.2       1 RES1    0.0000
      6 O6         7.2231    1.5732    6.4532 O.2       1 RES1    0.0000
      7 N1         6.0039    4.4835    3.7468 N.am      1 RES1    0.0000
      8 H1         5.7321    5.2612    4.0234 H         1 RES1    0.0000
      9 N2         6.5137    2.7886    0.5694 N.pl3     1 RES1    0.0000
     10 N3         4.1471    2.2391    3.4353 N.3       1 RES1    0.0000
     11 N4         7.2321    1.2634    5.2791 N.pl3     1 RES1    0.0000
     12 C1         6.6596    3.6203    4.7372 C.3       1 RES1    0.0000
     13 H2         6.2385    3.7566    5.6336 H         1 RES1    0.0000
     14 C2         5.8138    4.2343    2.4481 C.2       1 RES1    0.0000
     15 C3         6.0380    2.7692    2.0214 C.3       1 RES1    0.0000
     16 C4         4.6702    2.0769    2.0790 C.3       1 RES1    0.0000
     17 H3         4.0524    2.4865    1.4228 H         1 RES1    0.0000
     18 H4         4.7648    1.1159    1.8624 H         1 RES1    0.0000
     19 C5         5.0381    1.6175    4.4079 C.3       1 RES1    0.0000
     20 H5         5.0468    0.6378    4.2635 H         1 RES1    0.0000
     21 H6         4.6946    1.7872    5.3205 H         1 RES1    0.0000
     22 C6         6.4782    2.1602    4.2976 C.3       1 RES1    0.0000
     23 C7         7.0511    1.9948    2.8821 C.3       1 RES1    0.0000
     24 H7         7.0088    1.0277    2.6323 H         1 RES1    0.0000
     25 C8         8.5201    2.4595    2.8115 C.3       1 RES1    0.0000
     26 H8         9.0882    1.7828    3.2577 H         1 RES1    0.0000
     27 H9         8.7932    2.4999    1.8608 H         1 RES1    0.0000
     28 C9         8.7803    3.8035    3.4459 C.2       1 RES1    0.0000
     29 C10        8.1413    4.0241    4.7940 C.3       1 RES1    0.0000
     30 H10        8.2180    4.9775    5.0487 H         1 RES1    0.0000
     31 H11        8.6089    3.4829    5.4778 H         1 RES1    0.0000
     32 C11        2.7967    1.6713    3.5318 C.3       1 RES1    0.0000
     33 H12        2.8596    0.6847    3.4751 H         1 RES1    0.0000
     34 H13        2.2617    1.9838    2.7604 H         1 RES1    0.0000
     35 C12        2.0778    2.0408    4.8054 C.ar      1 RES1    0.0000
     36 C13        2.2416    3.2874    5.4105 C.ar      1 RES1    0.0000
     37 H14        2.8765    3.8951    5.0512 H         1 RES1    0.0000
     38 C14        1.4989    3.6639    6.5251 C.ar      1 RES1    0.0000
     39 C15        0.5673    2.7591    7.0661 C.ar      1 RES1    0.0000
     40 C16        0.4206    1.5147    6.4772 C.ar      1 RES1    0.0000
     41 H15       -0.2013    0.8970    6.8422 H         1 RES1    0.0000
     42 C17        1.1667    1.1539    5.3610 C.ar      1 RES1    0.0000
     43 H16        1.0518    0.2938    4.9757 H         1 RES1    0.0000
     44 C18        1.6892    5.0266    7.1286 C.3       1 RES1    0.0000
     45 H17        2.3819    5.5103    6.6313 H         1 RES1    0.0000
     46 H18        1.9639    4.9339    8.0647 H         1 RES1    0.0000
     47 H19        0.8464    5.5248    7.0823 H         1 RES1    0.0000
     48 C19       -0.2959    3.1556    8.2431 C.3       1 RES1    0.0000
     49 H20       -0.7618    2.3648    8.5879 H         1 RES1    0.0000
     50 H21       -0.9538    3.8225    7.9552 H         1 RES1    0.0000
     51 H22        0.2676    3.5365    8.9480 H         1 RES1    0.0000
@<TRIPOS>BOND
     1    1   14 2
     2    2   28 2
     3    3    9 2
     4    4    9 2
     5    5   11 2
     6    6   11 2
     7    7    8 1
     8    9   15 1
     9   10   16 1
    10   11   22 1
    11   12    7 1
    12   13   12 1
    13   14    7 1
    14   15   14 1
    15   16   15 1
    16   17   16 1
    17   18   16 1
    18   19   10 1
    19   20   19 1
    20   21   19 1
    21   22   12 1
    22   23   15 1
    23   24   23 1
    24   25   23 1
    25   26   25 1
    26   27   25 1
    27   28   25 1
    28   29   12 1
    29   30   29 1
    30   31   29 1
    31   32   10 1
    32   33   32 1
    33   34   32 1
    34   35   32 1
    35   36   35 ar
    36   37   36 1
    37   38   36 ar
    38   39   38 ar
    39   40   39 ar
    40   41   40 1
    41   42   35 ar
    42   43   42 1
    43   44   38 1
    44   45   44 1
    45   46   44 1
    46   47   44 1
    47   48   39 1
    48   49   48 1
    49   50   48 1
    50   51   48 1
    51   19   22 1
    52   22   23 1
    53   28   29 1
    54   40   42 ar
@<TRIPOS>SUBSTRUCTURE
     1 RES1 1

@<TRIPOS>CRYSIN
  10.0754   11.1703    8.2501  90.0000 100.5090  90.0000   7 1

