# MOL2 file generated by ConQuest
# Please check atom types

@<TRIPOS>MOLECULE
IJUKUT
    48    52     1
SMALL
NO_CHARGES
****
Generated from CSD

@<TRIPOS>ATOM
      1 N1        19.7438    1.4999    5.8582 N.am      1 RES1    0.0000
      2 C1        20.9179    0.6282    5.6864 C.3       1 RES1    0.0000
      3 H1        20.7284   -0.3016    5.9505 H         1 RES1    0.0000
      4 C2        21.5480    0.7012    4.3088 C.3       1 RES1    0.0000
      5 H2        20.8580    0.6024    3.6490 H         1 RES1    0.0000
      6 O1        22.1354    2.0225    4.0629 O.3       1 RES1    0.0000
      7 C3        23.0457    2.4443    4.9822 C.ar      1 RES1    0.0000
      8 C4        24.1448    3.1426    4.5293 C.ar      1 RES1    0.0000
      9 H3        24.2380    3.2569    3.6279 H         1 RES1    0.0000
     10 C5        25.0667    3.6289    5.4199 C.ar      1 RES1    0.0000
     11 H4        25.8387    4.0909    5.1086 H         1 RES1    0.0000
     12 C6        24.8671    3.4041    6.7655 C.ar      1 RES1    0.0000
     13 C7        23.7718    2.7146    7.2385 C.ar      1 RES1    0.0000
     14 H5        23.6390    2.5924    8.1437 H         1 RES1    0.0000
     15 C8        22.8478    2.2255    6.3427 C.ar      1 RES1    0.0000
     16 C9        21.6201    1.4917    6.7818 C.3       1 RES1    0.0000
     17 H6        21.7476    0.9963    7.6355 H         1 RES1    0.0000
     18 C10       20.3182    2.3072    6.7965 C.2       1 RES1    0.0000
     19 C11       18.4685    1.4425    5.2499 C.ar      1 RES1    0.0000
     20 C12       17.5393    2.4255    5.4839 C.ar      1 RES1    0.0000
     21 H7        17.7757    3.1673    6.0626 H         1 RES1    0.0000
     22 C13       16.3197    2.3787    4.8602 C.ar      1 RES1    0.0000
     23 H8        15.6952    3.0759    4.9878 H         1 RES1    0.0000
     24 C14       16.0184    1.3320    4.0109 C.ar      1 RES1    0.0000
     25 C15       16.9295    0.3419    3.7935 C.ar      1 RES1    0.0000
     26 H9        16.7179   -0.3717    3.1932 H         1 RES1    0.0000
     27 C16       18.1519    0.3909    4.4212 C.ar      1 RES1    0.0000
     28 H10       18.7634   -0.2857    4.2730 H         1 RES1    0.0000
     29 O2        14.7827    1.3728    3.4402 O.3       1 RES1    0.0000
     30 C17       14.5312    0.6264    2.2953 C.3       1 RES1    0.0000
     31 H11       13.6391    0.8162    2.0026 H         1 RES1    0.0000
     32 H12       14.6619   -0.3283    2.4584 H         1 RES1    0.0000
     33 H13       15.1487    0.8340    1.6178 H         1 RES1    0.0000
     34 C18       22.5560   -0.3775    4.0367 C.ar      1 RES1    0.0000
     35 C19       22.6208   -0.9411    2.7748 C.ar      1 RES1    0.0000
     36 H14       22.0279   -0.6654    2.1197 H         1 RES1    0.0000
     37 C20       23.5672   -1.9124    2.4935 C.ar      1 RES1    0.0000
     38 H15       23.5795   -2.2757    1.6464 H         1 RES1    0.0000
     39 C21       24.4334   -2.3399    3.4620 C.ar      1 RES1    0.0000
     40 H16       25.0786   -2.9916    3.2717 H         1 RES1    0.0000
     41 C22       24.3676   -1.8006    4.7223 C.ar      1 RES1    0.0000
     42 H17       24.9735   -2.0858    5.3664 H         1 RES1    0.0000
     43 C23       23.4401   -0.8348    5.0025 C.ar      1 RES1    0.0000
     44 H18       23.4044   -0.4676    5.8633 H         1 RES1    0.0000
     45 N2        25.8408    3.9295    7.7219 N.pl3     1 RES1    0.0000
     46 O3        26.7634    4.5899    7.3068 O.2       1 RES1    0.0000
     47 O4        25.6905    3.6672    8.8975 O.2       1 RES1    0.0000
     48 O5        19.9357    3.2741    7.3826 O.2       1 RES1    0.0000
@<TRIPOS>BOND
     1    1    2 1
     2    2    3 1
     3    4    2 1
     4    5    4 1
     5    6    4 1
     6    7    6 1
     7    8    7 ar
     8    9    8 1
     9   10    8 ar
    10   11   10 1
    11   12   10 ar
    12   13   12 ar
    13   14   13 1
    14   15    7 ar
    15   16    2 1
    16   17   16 1
    17   18    1 1
    18   19    1 1
    19   20   19 ar
    20   21   20 1
    21   22   20 ar
    22   23   22 1
    23   24   22 ar
    24   25   24 ar
    25   26   25 1
    26   27   19 ar
    27   28   27 1
    28   29   24 1
    29   30   29 1
    30   31   30 1
    31   32   30 1
    32   33   30 1
    33   34    4 1
    34   35   34 ar
    35   36   35 1
    36   37   35 ar
    37   38   37 1
    38   39   37 ar
    39   40   39 1
    40   41   39 ar
    41   42   41 1
    42   43   34 ar
    43   44   43 1
    44   45   12 1
    45   46   45 2
    46   47   45 2
    47   48   18 2
    48   13   15 ar
    49   15   16 1
    50   16   18 1
    51   25   27 ar
    52   41   43 ar
@<TRIPOS>SUBSTRUCTURE
     1 RES1 1

@<TRIPOS>CRYSIN
  35.0260    8.8720   12.4540  90.0000  90.0000  90.0000  56 1

