# MOL2 file generated by ConQuest
# Please check atom types

@<TRIPOS>MOLECULE
IJURIO
    62    67     1
SMALL
NO_CHARGES
****
Generated from CSD

@<TRIPOS>ATOM
      1 O1         3.8611   11.0118    8.5854 O.3       1 RES1    0.0000
      2 O2         6.7987   11.2994    5.7456 O.2       1 RES1    0.0000
      3 O3         5.7956   13.1252    4.9047 O.3       1 RES1    0.0000
      4 N1         4.7868   11.9297    9.1929 N.3       1 RES1    0.0000
      5 N2         7.3603   13.9094    7.6595 N.2       1 RES1    0.0000
      6 C1         5.9685   11.2910    9.6572 C.ar      1 RES1    0.0000
      7 C2         6.0242   10.1992   10.4803 C.ar      1 RES1    0.0000
      8 C3         7.2624    9.8197   10.9496 C.ar      1 RES1    0.0000
      9 C4         8.4058   10.5102   10.6046 C.ar      1 RES1    0.0000
     10 C5         8.3404   11.5970    9.7891 C.ar      1 RES1    0.0000
     11 C6         7.1107   11.9949    9.2678 C.ar      1 RES1    0.0000
     12 C7         6.7173   13.0483    8.3330 C.2       1 RES1    0.0000
     13 C8         5.1821   12.8945    8.1263 C.3       1 RES1    0.0000
     14 C9         4.8002   12.1621    6.8085 C.3       1 RES1    0.0000
     15 C10        4.3704   10.7727    7.2701 C.3       1 RES1    0.0000
     16 C11        5.9149   12.1136    5.7735 C.2       1 RES1    0.0000
     17 C12        6.8542   13.3225    3.9445 C.3       1 RES1    0.0000
     18 C13        6.3737   14.3173    2.9603 C.3       1 RES1    0.0000
     19 C14        4.4362   14.2287    8.2873 C.ar      1 RES1    0.0000
     20 C15        3.6148   14.4678    9.3730 C.ar      1 RES1    0.0000
     21 C16        2.9190   15.6616    9.4694 C.ar      1 RES1    0.0000
     22 C17        3.0418   16.6113    8.4992 C.ar      1 RES1    0.0000
     23 C18        3.8625   16.3923    7.4388 C.ar      1 RES1    0.0000
     24 C19        4.5611   15.2068    7.3259 C.ar      1 RES1    0.0000
     25 C20        8.7824   13.9980    7.8206 C.ar      1 RES1    0.0000
     26 C21        9.5855   13.3610    6.8884 C.ar      1 RES1    0.0000
     27 C22       10.9423   13.4997    6.9797 C.ar      1 RES1    0.0000
     28 C23       11.5227   14.2471    7.9335 C.ar      1 RES1    0.0000
     29 C24       10.7353   14.8791    8.8505 C.ar      1 RES1    0.0000
     30 C25        9.3518   14.7671    8.7845 C.ar      1 RES1    0.0000
     31 C26        3.3073   10.0788    6.4723 C.ar      1 RES1    0.0000
     32 C27        3.4524    8.7329    6.1616 C.ar      1 RES1    0.0000
     33 C28        2.4421    8.0841    5.5021 C.ar      1 RES1    0.0000
     34 C29        1.3106    8.7295    5.1419 C.ar      1 RES1    0.0000
     35 C30        1.1613   10.0487    5.4361 C.ar      1 RES1    0.0000
     36 C31        2.1528   10.7092    6.0918 C.ar      1 RES1    0.0000
     37 H1         5.2552    9.7310   10.7137 H         1 RES1    0.0000
     38 H2         7.3298    9.0806   11.5102 H         1 RES1    0.0000
     39 H3         9.2292   10.2310   10.9331 H         1 RES1    0.0000
     40 H4         9.1112   12.0718    9.5798 H         1 RES1    0.0000
     41 H5         4.0257   12.6136    6.4127 H         1 RES1    0.0000
     42 H6         5.1599   10.1942    7.3285 H         1 RES1    0.0000
     43 H7         7.0641   12.4848    3.5019 H         1 RES1    0.0000
     44 H8         7.6534   13.6452    4.3872 H         1 RES1    0.0000
     45 H9         7.0575   14.4728    2.3033 H         1 RES1    0.0000
     46 H10        6.1706   15.1400    3.4106 H         1 RES1    0.0000
     47 H11        5.5837   13.9846    2.5278 H         1 RES1    0.0000
     48 H12        3.5297   13.8258   10.0402 H         1 RES1    0.0000
     49 H13        2.3653   15.8154   10.2000 H         1 RES1    0.0000
     50 H14        2.5638   17.4055    8.5626 H         1 RES1    0.0000
     51 H15        3.9544   17.0477    6.7844 H         1 RES1    0.0000
     52 H16        5.1183   15.0681    6.5954 H         1 RES1    0.0000
     53 H17        9.2076   12.8460    6.2123 H         1 RES1    0.0000
     54 H18       11.4824   13.0617    6.3607 H         1 RES1    0.0000
     55 H19       12.4484   14.3324    7.9677 H         1 RES1    0.0000
     56 H20       11.1274   15.3874    9.5240 H         1 RES1    0.0000
     57 H21        8.8178   15.2185    9.3997 H         1 RES1    0.0000
     58 H22        4.2264    8.2781    6.4001 H         1 RES1    0.0000
     59 H23        2.5372    7.1829    5.2991 H         1 RES1    0.0000
     60 H24        0.6366    8.2714    4.6929 H         1 RES1    0.0000
     61 H25        0.3839   10.4985    5.1901 H         1 RES1    0.0000
     62 H26        2.0437   11.6120    6.2884 H         1 RES1    0.0000
@<TRIPOS>BOND
     1    1    4 1
     2    2   16 2
     3    3   16 1
     4    4    6 1
     5    5   12 2
     6    6    7 ar
     7    7    8 ar
     8    8    9 ar
     9    9   10 ar
    10   10   11 ar
    11   11    6 ar
    12   12   11 1
    13   13    4 1
    14   14   13 1
    15   15    1 1
    16   16   14 1
    17   17    3 1
    18   18   17 1
    19   19   13 1
    20   20   19 ar
    21   21   20 ar
    22   22   21 ar
    23   23   22 ar
    24   24   19 ar
    25   25    5 1
    26   26   25 ar
    27   27   26 ar
    28   28   27 ar
    29   29   28 ar
    30   30   25 ar
    31   31   15 1
    32   32   31 ar
    33   33   32 ar
    34   34   33 ar
    35   35   34 ar
    36   36   31 ar
    37   37    7 1
    38   38    8 1
    39   39    9 1
    40   40   10 1
    41   41   14 1
    42   42   15 1
    43   43   17 1
    44   44   17 1
    45   45   18 1
    46   46   18 1
    47   47   18 1
    48   48   20 1
    49   49   21 1
    50   50   22 1
    51   51   23 1
    52   52   24 1
    53   53   26 1
    54   54   27 1
    55   55   28 1
    56   56   29 1
    57   57   30 1
    58   58   32 1
    59   59   33 1
    60   60   34 1
    61   61   35 1
    62   62   36 1
    63   12   13 1
    64   14   15 1
    65   23   24 ar
    66   29   30 ar
    67   35   36 ar
@<TRIPOS>SUBSTRUCTURE
     1 RES1 1

@<TRIPOS>CRYSIN
  11.7890   16.7200   12.6880  90.0000  91.5400  90.0000 231 1

