# MOL2 file generated by ConQuest
# Please check atom types

@<TRIPOS>MOLECULE
IJUSIQ
    38    39     1
SMALL
NO_CHARGES
****
Generated from CSD

@<TRIPOS>ATOM
      1 C1         0.1691    5.9061   11.3451 C.ar      1 RES1    0.0000
      2 C2        -0.8416    6.1349   12.2622 C.ar      1 RES1    0.0000
      3 H1        -0.6821    6.0234   13.1723 H         1 RES1    0.0000
      4 C3        -2.0797    6.5270   11.8207 C.ar      1 RES1    0.0000
      5 H2        -2.7647    6.6778   12.4318 H         1 RES1    0.0000
      6 C4        -2.3041    6.6953   10.4931 C.ar      1 RES1    0.0000
      7 H3        -3.1545    6.9365   10.2016 H         1 RES1    0.0000
      8 C5        -1.3007    6.5175    9.5667 C.ar      1 RES1    0.0000
      9 H4        -1.4676    6.6712    8.6642 H         1 RES1    0.0000
     10 C6        -0.0445    6.1087    9.9769 C.ar      1 RES1    0.0000
     11 C7         0.9174    6.3550    7.7851 C.3       1 RES1    0.0000
     12 H5         0.8096    7.3169    7.7209 H         1 RES1    0.0000
     13 H6         0.1647    5.9243    7.3492 H         1 RES1    0.0000
     14 C8         2.2152    5.9178    7.1690 C.3       1 RES1    0.0000
     15 H7         2.9527    6.2996    7.6899 H         1 RES1    0.0000
     16 C9         2.3610    6.3550    5.7355 C.3       1 RES1    0.0000
     17 H8         2.5650    7.3023    5.6964 H         1 RES1    0.0000
     18 H9         3.0824    5.8668    5.3078 H         1 RES1    0.0000
     19 C10        1.0741    6.2304    3.7191 C.ar      1 RES1    0.0000
     20 C11       -0.1115    5.9251    3.0495 C.ar      1 RES1    0.0000
     21 C12       -0.2018    5.9783    1.6824 C.ar      1 RES1    0.0000
     22 H10       -0.9990    5.7531    1.2587 H         1 RES1    0.0000
     23 C13        0.8825    6.3623    0.9391 C.ar      1 RES1    0.0000
     24 H11        0.8256    6.3980    0.0113 H         1 RES1    0.0000
     25 C14        2.0586    6.6968    1.5754 C.ar      1 RES1    0.0000
     26 H12        2.7895    6.9758    1.0728 H         1 RES1    0.0000
     27 C15        2.1635    6.6217    2.9487 C.ar      1 RES1    0.0000
     28 H13        2.9687    6.8345    3.3621 H         1 RES1    0.0000
     29 N1         1.4661    5.4623   11.8506 N.pl3     1 RES1    0.0000
     30 N2        -1.3328    5.5520    3.7732 N.pl3     1 RES1    0.0000
     31 O1         1.7780    5.8158   12.9735 O.2       1 RES1    0.0000
     32 O2         2.1562    4.7293   11.1692 O.2       1 RES1    0.0000
     33 O3         1.0209    5.9440    9.1485 O.3       1 RES1    0.0000
     34 O4         2.3122    4.5136    7.2163 O.3       1 RES1    0.0000
     35 H14        2.2378    4.2607    7.9941 H         1 RES1    0.0000
     36 O5         1.1171    6.0883    5.0634 O.3       1 RES1    0.0000
     37 O6        -1.4763    5.9098    4.9324 O.2       1 RES1    0.0000
     38 O7        -2.1650    4.8939    3.1666 O.2       1 RES1    0.0000
@<TRIPOS>BOND
     1    1    2 ar
     2    2    3 1
     3    4    2 ar
     4    5    4 1
     5    6    4 ar
     6    7    6 1
     7    8    6 ar
     8    9    8 1
     9   10    1 ar
    10   11   12 1
    11   13   11 1
    12   14   11 1
    13   15   14 1
    14   16   14 1
    15   17   16 1
    16   18   16 1
    17   19   20 ar
    18   20   21 ar
    19   21   22 1
    20   23   21 ar
    21   24   23 1
    22   25   23 ar
    23   26   25 1
    24   27   19 ar
    25   28   27 1
    26   29    1 1
    27   30   20 1
    28   31   29 2
    29   32   29 2
    30   33   10 1
    31   34   14 1
    32   35   34 1
    33   36   16 1
    34   37   30 2
    35   38   30 2
    36    8   10 ar
    37   11   33 1
    38   19   36 1
    39   25   27 ar
@<TRIPOS>SUBSTRUCTURE
     1 RES1 1

@<TRIPOS>CRYSIN
   7.2870    7.2870   28.1580  90.0000  90.0000  90.0000  19 1

