# MOL2 file generated by ConQuest
# Please check atom types

@<TRIPOS>MOLECULE
IJUTIS
    47    50     1
SMALL
NO_CHARGES
****
Generated from CSD

@<TRIPOS>ATOM
      1 N1        -0.0347    1.0317   11.6019 N.3       1 RES1    0.0000
      2 C1        -0.9130    0.1559   13.7222 C.ar      1 RES1    0.0000
      3 C2        -0.7386   -1.1423   13.2665 C.ar      1 RES1    0.0000
      4 N2        -1.0743   -3.5504   13.5154 N.pl3     1 RES1    0.0000
      5 O1        -0.6941   -3.7203   12.3639 O.2       1 RES1    0.0000
      6 C3         0.5270    2.1483   10.8450 C.3       1 RES1    0.0000
      7 O2        -1.2944   -4.4715   14.2879 O.2       1 RES1    0.0000
      8 C4        -0.3185    1.3452   13.0008 C.3       1 RES1    0.0000
      9 C5        -2.1894   -0.6985   15.5927 C.ar      1 RES1    0.0000
     10 C6         0.7861    1.7540    9.4109 C.ar      1 RES1    0.0000
     11 O3         1.4983    4.1704   13.3670 O.2       1 RES1    0.0000
     12 C7        -1.6362    0.3582   14.8891 C.ar      1 RES1    0.0000
     13 C8         0.9664    1.8538   13.7077 C.3       1 RES1    0.0000
     14 C9         2.9791    1.6586   11.5818 C.3       1 RES1    0.0000
     15 C10       -1.2921   -2.1829   13.9929 C.ar      1 RES1    0.0000
     16 C11       -2.0153   -1.9828   15.1364 C.ar      1 RES1    0.0000
     17 O4         1.8576   -1.5005    6.2075 O.2       1 RES1    0.0000
     18 C12        1.8203    2.6632   11.5323 C.3       1 RES1    0.0000
     19 C13        1.1279    0.4632    9.0609 C.ar      1 RES1    0.0000
     20 C14        1.3884    0.1661    7.7330 C.ar      1 RES1    0.0000
     21 N3         1.7590   -1.2008    7.3926 N.pl3     1 RES1    0.0000
     22 C15        2.1094    0.8286   13.8010 C.3       1 RES1    0.0000
     23 C16        2.7110    0.4521   12.4609 C.3       1 RES1    0.0000
     24 C17        1.4440    3.0428   12.9311 C.2       1 RES1    0.0000
     25 C18        0.7251    2.7056    8.4010 C.ar      1 RES1    0.0000
     26 O5         1.9519   -1.9918    8.2823 O.2       1 RES1    0.0000
     27 C19        1.3099    1.1071    6.7364 C.ar      1 RES1    0.0000
     28 C20        0.9760    2.3734    7.0863 C.ar      1 RES1    0.0000
     29 H1        -0.2704   -1.3102   12.5040 H         1 RES1    0.0000
     30 H2        -0.9193    2.0584   13.0672 H         1 RES1    0.0000
     31 H3        -2.4172   -2.6949   15.5514 H         1 RES1    0.0000
     32 H4        -2.6930   -0.5007   16.4002 H         1 RES1    0.0000
     33 H5        -0.0504    2.9020   10.8287 H         1 RES1    0.0000
     34 H6         0.7110    2.1437   14.6005 H         1 RES1    0.0000
     35 H7        -1.7540    1.2099   15.2068 H         1 RES1    0.0000
     36 H8         1.1819   -0.1749    9.6417 H         1 RES1    0.0000
     37 H9         2.0648    3.4260   11.0952 H         1 RES1    0.0000
     38 H10        1.4575    0.9080    5.8124 H         1 RES1    0.0000
     39 H11        0.5015    3.5189    8.6477 H         1 RES1    0.0000
     40 H12        0.9075    2.9875    6.4522 H         1 RES1    0.0000
     41 H13        3.2202    1.3892   10.6516 H         1 RES1    0.0000
     42 H14        1.7947    0.0544   14.1889 H         1 RES1    0.0000
     43 H15        3.5493   -0.0310   12.5854 H         1 RES1    0.0000
     44 H16        3.7413    2.1003   11.9184 H         1 RES1    0.0000
     45 H17        2.1076   -0.1512   11.9966 H         1 RES1    0.0000
     46 H18        2.8002    1.2120   14.3340 H         1 RES1    0.0000
     47 H19       -0.7731    0.7796   11.2037 H         1 RES1    0.0000
@<TRIPOS>BOND
     1    1    6 1
     2    2    3 ar
     3    3   15 ar
     4    4    5 2
     5    6   10 1
     6    7    4 2
     7    8    1 1
     8    9   12 ar
     9   10   19 ar
    10   11   24 2
    11   12    2 ar
    12   13    8 1
    13   14   18 1
    14   15    4 1
    15   16    9 ar
    16   17   21 2
    17   18    6 1
    18   19   20 ar
    19   20   21 1
    20   21   26 2
    21   22   13 1
    22   23   14 1
    23   24   13 1
    24   25   10 ar
    25   27   20 ar
    26   28   25 ar
    27   29    3 1
    28   30    8 1
    29   31   16 1
    30   32    9 1
    31   33    6 1
    32   34   13 1
    33   35   12 1
    34   36   19 1
    35   37   18 1
    36   38   27 1
    37   39   25 1
    38   40   28 1
    39   41   14 1
    40   42   22 1
    41   43   23 1
    42   44   14 1
    43   45   23 1
    44   46   22 1
    45   47    1 1
    46    2    8 1
    47   15   16 ar
    48   18   24 1
    49   22   23 1
    50   27   28 ar
@<TRIPOS>SUBSTRUCTURE
     1 RES1 1

@<TRIPOS>CRYSIN
   7.2260    8.2780   16.0640  96.2000  91.3640  99.9000   2 1

