# MOL2 file generated by ConQuest
# Please check atom types

@<TRIPOS>MOLECULE
IJUVEQ
    50    53     1
SMALL
NO_CHARGES
****
Generated from CSD

@<TRIPOS>ATOM
      1 C1         5.4085   11.3811   15.4514 C.3       1 RES1    0.0000
      2 H1         5.8696   11.0288   16.2410 H         1 RES1    0.0000
      3 C2         3.0600   10.4416   17.7231 C.ar      1 RES1    0.0000
      4 H2         3.4765    9.6101   17.7184 H         1 RES1    0.0000
      5 N1         3.2741   11.3017   14.1614 N.3       1 RES1    0.0000
      6 C3         3.1691   11.2919   11.7479 C.ar      1 RES1    0.0000
      7 O1         7.0709   10.1867   14.2088 O.2       1 RES1    0.0000
      8 C4         6.0830   10.9008   14.2088 C.2       1 RES1    0.0000
      9 O2         1.7749   10.3136   21.0334 O.2       1 RES1    0.0000
     10 C5         5.6048   12.9114   12.9070 C.3       1 RES1    0.0000
     11 H3         5.1368   13.2695   12.1363 H         1 RES1    0.0000
     12 H4         6.5475   13.1192   12.8074 H         1 RES1    0.0000
     13 C6         3.9368   10.8609   15.4153 C.3       1 RES1    0.0000
     14 C7         2.3883   10.8233    9.5160 C.ar      1 RES1    0.0000
     15 C8         3.1046   10.4240   10.6495 C.ar      1 RES1    0.0000
     16 C9         5.0559   13.6054   14.2183 C.3       1 RES1    0.0000
     17 H5         5.3488   14.5297   14.2325 H         1 RES1    0.0000
     18 H6         4.0864   13.6019   14.1946 H         1 RES1    0.0000
     19 C10        3.1492   11.2625   16.6252 C.ar      1 RES1    0.0000
     20 O3         1.8346   10.3347    7.3399 O.2       1 RES1    0.0000
     21 C11        3.9636   10.8632   12.9710 C.3       1 RES1    0.0000
     22 H7         3.9958    9.8838   12.9829 H         1 RES1    0.0000
     23 C12        2.4761   12.5238   16.6892 C.ar      1 RES1    0.0000
     24 H8         2.5050   13.1122   15.9683 H         1 RES1    0.0000
     25 N2         2.2779    9.9331   19.9995 N.pl3     1 RES1    0.0000
     26 C13        1.7667   12.0587    9.4425 C.ar      1 RES1    0.0000
     27 N3         2.3437    9.9155    8.3825 N.pl3     1 RES1    0.0000
     28 C14        1.7098   12.0247   18.9206 C.ar      1 RES1    0.0000
     29 H9         1.2350   12.2631   19.6842 H         1 RES1    0.0000
     30 C15        5.5005   12.9513   15.4277 C.3       1 RES1    0.0000
     31 H10        4.9763   13.2966   16.1699 H         1 RES1    0.0000
     32 H11        6.4240   13.2026   15.5866 H         1 RES1    0.0000
     33 C16        5.4236   11.3905   12.9449 C.3       1 RES1    0.0000
     34 O4         2.8123    8.7845    8.5533 O.2       1 RES1    0.0000
     35 C17        2.3526   10.8515   18.8352 C.ar      1 RES1    0.0000
     36 C18        2.5427   12.4874   11.6478 C.ar      1 RES1    0.0000
     37 H12        2.5873   13.0605   12.3782 H         1 RES1    0.0000
     38 C19        6.1584   10.7493   11.7901 C.3       1 RES1    0.0000
     39 H13        5.7660   11.0370   10.9625 H         1 RES1    0.0000
     40 H14        6.0939    9.7945   11.8612 H         1 RES1    0.0000
     41 H15        7.0819   11.0112   11.8138 H         1 RES1    0.0000
     42 O5         2.7513    8.8421   19.8834 O.2       1 RES1    0.0000
     43 C20        1.8401   12.9184   10.5357 C.ar      1 RES1    0.0000
     44 H16        1.4305   13.7522   10.5215 H         1 RES1    0.0000
     45 C21        1.7825   12.8562   17.8369 C.ar      1 RES1    0.0000
     46 H17        1.3475   13.6771   17.8725 H         1 RES1    0.0000
     47 H18        1.3036   12.2490    8.5841 H         1 RES1    0.0000
     48 H19        4.1715    9.8767   15.4514 H         1 RES1    0.0000
     49 H20        2.4357   10.9454   14.3772 H         1 RES1    0.0000
     50 H21        3.5266    9.5596   10.6898 H         1 RES1    0.0000
@<TRIPOS>BOND
     1    1    2 1
     2    3    4 1
     3    5   13 1
     4    6   15 ar
     5    7    8 2
     6    8    1 1
     7    9   25 2
     8   10   11 1
     9   12   10 1
    10   13    1 1
    11   14   15 ar
    12   15   50 1
    13   16   10 1
    14   17   16 1
    15   18   16 1
    16   19    3 ar
    17   20   27 2
    18   21    5 1
    19   22   21 1
    20   23   19 ar
    21   24   23 1
    22   25   35 1
    23   26   14 ar
    24   27   14 1
    25   28   29 1
    26   30    1 1
    27   31   30 1
    28   32   30 1
    29   33    8 1
    30   34   27 2
    31   35    3 ar
    32   36    6 ar
    33   37   36 1
    34   38   33 1
    35   39   38 1
    36   40   38 1
    37   41   38 1
    38   42   25 2
    39   43   26 ar
    40   44   43 1
    41   45   23 ar
    42   46   45 1
    43   47   26 1
    44   48   13 1
    45   49    5 1
    46    6   21 1
    47   10   33 1
    48   13   19 1
    49   16   30 1
    50   21   33 1
    51   28   35 ar
    52   28   45 ar
    53   36   43 ar
@<TRIPOS>SUBSTRUCTURE
     1 RES1 1

@<TRIPOS>CRYSIN
   6.8610   11.7440   23.7130  90.0000  90.0000  90.0000  33 1

