# MOL2 file generated by ConQuest
# Please check atom types

@<TRIPOS>MOLECULE
IKAKOV
    33    34     1
SMALL
NO_CHARGES
****
Generated from CSD

@<TRIPOS>ATOM
      1 O1        -1.6820    8.0443   15.4849 O.3       1 RES1    0.0000
      2 H1        -1.1864    7.5216   15.0134 H         1 RES1    0.0000
      3 O2        -3.8792   12.2307   15.2384 O.3       1 RES1    0.0000
      4 H2        -4.0660   11.9981   16.0224 H         1 RES1    0.0000
      5 O3         0.8112    5.0472   14.3128 O.2       1 RES1    0.0000
      6 O4         4.4036    0.5605   10.6325 O.2       1 RES1    0.0000
      7 O5         4.4946    1.9285    8.9659 O.2       1 RES1    0.0000
      8 N1        -0.3174    7.2646   13.3119 N.2       1 RES1    0.0000
      9 N2         0.4406    6.3964   12.5377 N.am      1 RES1    0.0000
     10 H3         0.5524    6.6469   11.7178 H         1 RES1    0.0000
     11 N3         4.1512    1.6351   10.1141 N.pl3     1 RES1    0.0000
     12 C1        -1.9687    9.1479   14.7554 C.ar      1 RES1    0.0000
     13 C2        -2.7455   10.1173   15.3749 C.ar      1 RES1    0.0000
     14 H4        -3.0383    9.9911   16.2692 H         1 RES1    0.0000
     15 C3        -3.0939   11.2713   14.6853 C.ar      1 RES1    0.0000
     16 C4        -2.6587   11.4681   13.3698 C.ar      1 RES1    0.0000
     17 H5        -2.8934   12.2608   12.9008 H         1 RES1    0.0000
     18 C5        -1.8894   10.5070   12.7620 C.ar      1 RES1    0.0000
     19 H6        -1.5961   10.6471   11.8700 H         1 RES1    0.0000
     20 C6        -1.5239    9.3191   13.4261 C.ar      1 RES1    0.0000
     21 C7        -0.7256    8.3366   12.7285 C.2       1 RES1    0.0000
     22 H7        -0.4971    8.4855   11.8189 H         1 RES1    0.0000
     23 C8         0.9811    5.3124   13.1201 C.2       1 RES1    0.0000
     24 C9         1.8207    4.4070   12.2685 C.ar      1 RES1    0.0000
     25 C10        2.2900    4.7358   10.9977 C.ar      1 RES1    0.0000
     26 H8         2.0647    5.5749   10.6129 H         1 RES1    0.0000
     27 C11        3.0833    3.8451   10.2945 C.ar      1 RES1    0.0000
     28 H9         3.4211    4.0681    9.4351 H         1 RES1    0.0000
     29 C12        3.3710    2.6226   10.8748 C.ar      1 RES1    0.0000
     30 C13        2.9326    2.2717   12.1382 C.ar      1 RES1    0.0000
     31 H10        3.1576    1.4302   12.5171 H         1 RES1    0.0000
     32 C14        2.1582    3.1799   12.8341 C.ar      1 RES1    0.0000
     33 H11        1.8527    2.9646   13.7077 H         1 RES1    0.0000
@<TRIPOS>BOND
     1    1    2 1
     2    3    4 1
     3    5   23 2
     4    6   11 2
     5    7   11 2
     6    8    9 1
     7    9   10 1
     8   11   29 1
     9   12    1 1
    10   13   12 ar
    11   14   13 1
    12   15    3 1
    13   16   15 ar
    14   17   16 1
    15   18   16 ar
    16   19   18 1
    17   20   12 ar
    18   21    8 2
    19   22   21 1
    20   23    9 1
    21   24   23 1
    22   25   24 ar
    23   26   25 1
    24   27   25 ar
    25   28   27 1
    26   29   27 ar
    27   30   29 ar
    28   31   30 1
    29   32   24 ar
    30   33   32 1
    31   13   15 ar
    32   18   20 ar
    33   20   21 1
    34   30   32 ar
@<TRIPOS>SUBSTRUCTURE
     1 RES1 1

@<TRIPOS>CRYSIN
   8.0248   12.5674   12.8770  90.0000  96.7320  90.0000  14 1

