# MOL2 file generated by ConQuest
# Please check atom types

@<TRIPOS>MOLECULE
IKALIP
    49    53     1
SMALL
NO_CHARGES
****
Generated from CSD

@<TRIPOS>ATOM
      1 O1         6.7619   12.4942    9.0824 O.3       1 RES1    0.0000
      2 N1         5.5024   11.7636    9.0191 N.3       1 RES1    0.0000
      3 C1         5.8285   10.5974    8.1683 C.3       1 RES1    0.0000
      4 H1         5.3028    9.8143    8.4346 H         1 RES1    0.0000
      5 C2         7.3226   10.3377    8.3547 C.3       1 RES1    0.0000
      6 H2         7.4751    9.5108    8.8372 H         1 RES1    0.0000
      7 H3         7.7778   10.2928    7.4983 H         1 RES1    0.0000
      8 C3         7.7936   11.5396    9.1630 C.3       1 RES1    0.0000
      9 C4         4.9576   11.5947   10.3302 C.ar      1 RES1    0.0000
     10 C5         4.9753   12.6851   11.1941 C.ar      1 RES1    0.0000
     11 H4         5.4046   13.4702   10.9410 H         1 RES1    0.0000
     12 C6         4.3567   12.6047   12.4253 C.ar      1 RES1    0.0000
     13 H5         4.3810   13.3349   13.0006 H         1 RES1    0.0000
     14 C7         3.7033   11.4533   12.8120 C.ar      1 RES1    0.0000
     15 H6         3.2881   11.4028   13.6426 H         1 RES1    0.0000
     16 C8         3.6737   10.3841   11.9535 C.ar      1 RES1    0.0000
     17 H7         3.2290    9.6069   12.2056 H         1 RES1    0.0000
     18 C9         4.2971   10.4444   10.7137 C.ar      1 RES1    0.0000
     19 H8         4.2689    9.7108   10.1428 H         1 RES1    0.0000
     20 C10        5.4479   11.0543    6.7508 C.2       1 RES1    0.0000
     21 O2         6.2958   11.5546    6.0349 O.2       1 RES1    0.0000
     22 C11        4.0364   10.9393    6.3174 C.ar      1 RES1    0.0000
     23 C12        3.1113   10.0941    6.9233 C.ar      1 RES1    0.0000
     24 H9         3.3653    9.5918    7.6637 H         1 RES1    0.0000
     25 C13        1.8251    9.9919    6.4394 C.ar      1 RES1    0.0000
     26 H10        1.2210    9.4142    6.8487 H         1 RES1    0.0000
     27 C14        1.4255   10.7449    5.3482 C.ar      1 RES1    0.0000
     28 C15        2.3323   11.5847    4.7202 C.ar      1 RES1    0.0000
     29 H11        2.0767   12.0828    3.9780 H         1 RES1    0.0000
     30 C16        3.6180   11.6723    5.2105 C.ar      1 RES1    0.0000
     31 H12        4.2240   12.2379    4.7887 H         1 RES1    0.0000
     32 O3         0.1263   10.5867    4.9737 O.3       1 RES1    0.0000
     33 C17       -0.4070   11.4561    3.9727 C.3       1 RES1    0.0000
     34 H13       -1.3260   11.2310    3.8100 H         1 RES1    0.0000
     35 H14        0.0962   11.3559    3.1615 H         1 RES1    0.0000
     36 H15       -0.3487   12.3654    4.2753 H         1 RES1    0.0000
     37 O4         7.9756   11.1302   10.5565 O.3       1 RES1    0.0000
     38 C18        9.2421   11.4123   10.9765 C.2       1 RES1    0.0000
     39 C19        9.9597   12.0571    9.8781 C.ar      1 RES1    0.0000
     40 C20        9.0966   12.1719    8.8064 C.ar      1 RES1    0.0000
     41 O5         9.6037   11.1271   12.0910 O.2       1 RES1    0.0000
     42 C21       11.2715   12.5016    9.8153 C.ar      1 RES1    0.0000
     43 H16       11.8469   12.4179   10.5413 H         1 RES1    0.0000
     44 C22       11.6877   13.0731    8.6315 C.ar      1 RES1    0.0000
     45 H17       12.5674   13.3610    8.5442 H         1 RES1    0.0000
     46 C23       10.8126   13.2237    7.5694 C.ar      1 RES1    0.0000
     47 H18       11.1140   13.6329    6.7906 H         1 RES1    0.0000
     48 C24        9.5009   12.7820    7.6362 C.ar      1 RES1    0.0000
     49 H19        8.9173   12.8919    6.9209 H         1 RES1    0.0000
@<TRIPOS>BOND
     1    1    2 1
     2    2    3 1
     3    3    4 1
     4    5    3 1
     5    6    5 1
     6    7    5 1
     7    8    1 1
     8    9    2 1
     9   10    9 ar
    10   11   10 1
    11   12   10 ar
    12   13   12 1
    13   14   12 ar
    14   15   14 1
    15   16   14 ar
    16   17   16 1
    17   18    9 ar
    18   19   18 1
    19   20    3 1
    20   21   20 2
    21   22   20 1
    22   23   22 ar
    23   24   23 1
    24   25   23 ar
    25   26   25 1
    26   27   25 ar
    27   28   27 ar
    28   29   28 1
    29   30   22 ar
    30   31   30 1
    31   32   27 1
    32   33   32 1
    33   34   33 1
    34   35   33 1
    35   36   33 1
    36   37    8 1
    37   38   37 1
    38   39   38 1
    39   40    8 1
    40   41   38 2
    41   42   39 ar
    42   43   42 1
    43   44   42 ar
    44   45   44 1
    45   46   44 ar
    46   47   46 1
    47   48   40 ar
    48   49   48 1
    49    5    8 1
    50   16   18 ar
    51   28   30 ar
    52   39   40 ar
    53   46   48 ar
@<TRIPOS>SUBSTRUCTURE
     1 RES1 1

@<TRIPOS>CRYSIN
   9.7260   18.4820   11.0490  90.0000 102.8600  90.0000  14 1

