# MOL2 file generated by ConQuest
# Please check atom types

@<TRIPOS>MOLECULE
IKASUJ
    27    27     1
SMALL
NO_CHARGES
****
Generated from CSD

@<TRIPOS>ATOM
      1 N1         5.2420    8.3659   -2.0979 N.pl3     1 RES1    0.0000
      2 O1         9.3426    3.8423    0.2593 O.3       1 RES1    0.0000
      3 C1        10.1474    1.6496   -0.1594 C.3       1 RES1    0.0000
      4 H1        10.6652    1.1023   -0.7530 H         1 RES1    0.0000
      5 H2         9.2493    1.3130   -0.1146 H         1 RES1    0.0000
      6 H3        10.5400    1.6323    0.7168 H         1 RES1    0.0000
      7 O2         9.6659    5.6206   -1.0226 O.2       1 RES1    0.0000
      8 C2        10.1276    3.0289   -0.6582 C.3       1 RES1    0.0000
      9 H4        11.0318    3.3731   -0.7151 H         1 RES1    0.0000
     10 H5         9.7340    3.0549   -1.5439 H         1 RES1    0.0000
     11 O3         8.9774    8.2357    2.0105 O.3       1 RES1    0.0000
     12 H6         9.0047    8.9617    2.3899 H         1 RES1    0.0000
     13 C3         9.1464    5.0996   -0.0638 C.2       1 RES1    0.0000
     14 O4         4.8480    7.3025   -2.5691 O.2       1 RES1    0.0000
     15 C4         8.2263    5.7830    0.9003 C.3       1 RES1    0.0000
     16 H7         7.4844    5.1889    1.0959 H         1 RES1    0.0000
     17 H8         8.7050    5.9372    1.7300 H         1 RES1    0.0000
     18 C5         7.6812    7.0870    0.4144 C.ar      1 RES1    0.0000
     19 O5         4.8181    9.4390   -2.4726 O.2       1 RES1    0.0000
     20 C6         6.7372    7.1219   -0.5979 C.ar      1 RES1    0.0000
     21 H9         6.4349    6.3292   -0.9796 H         1 RES1    0.0000
     22 C7         6.2433    8.3378   -1.0416 C.ar      1 RES1    0.0000
     23 C8         6.6861    9.5343   -0.5057 C.ar      1 RES1    0.0000
     24 H10        6.3673   10.3441   -0.8340 H         1 RES1    0.0000
     25 C9         7.5992    9.5091    0.5126 C.ar      1 RES1    0.0000
     26 H11        7.8925   10.3072    0.8891 H         1 RES1    0.0000
     27 C10        8.0945    8.2932    0.9899 C.ar      1 RES1    0.0000
@<TRIPOS>BOND
     1    1   14 2
     2    2    8 1
     3    3    4 1
     4    5    3 1
     5    6    3 1
     6    7   13 2
     7    8    3 1
     8    9    8 1
     9   10    8 1
    10   11   12 1
    11   13    2 1
    12   15   13 1
    13   16   15 1
    14   17   15 1
    15   18   15 1
    16   19    1 2
    17   20   18 ar
    18   21   20 1
    19   22    1 1
    20   23   22 ar
    21   24   23 1
    22   25   23 ar
    23   26   25 1
    24   27   11 1
    25   18   27 ar
    26   20   22 ar
    27   25   27 ar
@<TRIPOS>SUBSTRUCTURE
     1 RES1 1

@<TRIPOS>CRYSIN
  11.0660   10.8600    8.6970  90.0000  97.8500  90.0000  14 1

