# MOL2 file generated by ConQuest
# Please check atom types

@<TRIPOS>MOLECULE
IKAZEA
    60    65     1
SMALL
NO_CHARGES
****
Generated from CSD

@<TRIPOS>ATOM
      1 O1         5.2266   -1.7955    6.2728 O.2       1 RES1    0.0000
      2 O2         3.3661   -1.9410    5.2272 O.2       1 RES1    0.0000
      3 O3         5.5377   10.0643    2.3524 O.3       1 RES1    0.0000
      4 O4         3.0917    7.6267    2.9134 O.2       1 RES1    0.0000
      5 N1         4.4308   -1.4091    5.4371 N.pl3     1 RES1    0.0000
      6 N2         6.9580    3.5624    2.1007 N.3       1 RES1    0.0000
      7 N3         6.3936    8.9439    2.3577 N.2       1 RES1    0.0000
      8 N4         4.0799    6.1040    1.5282 N.am      1 RES1    0.0000
      9 C1         4.7555   -0.2067    4.6432 C.ar      1 RES1    0.0000
     10 C2         5.9758    0.3684    4.7623 C.ar      1 RES1    0.0000
     11 H1         6.6140   -0.0036    5.3254 H         1 RES1    0.0000
     12 C3         6.2601    1.4971    4.0541 C.ar      1 RES1    0.0000
     13 H2         7.0996    1.8871    4.1397 H         1 RES1    0.0000
     14 C4         5.3294    2.0740    3.2121 C.ar      1 RES1    0.0000
     15 C5         4.0946    1.4486    3.0962 C.ar      1 RES1    0.0000
     16 H3         3.4554    1.8080    2.5238 H         1 RES1    0.0000
     17 C6         3.7988    0.3073    3.8097 C.ar      1 RES1    0.0000
     18 H4         2.9666   -0.1024    3.7271 H         1 RES1    0.0000
     19 C7         5.5587    3.3555    2.4381 C.3       1 RES1    0.0000
     20 H5         5.0461    3.3052    1.6035 H         1 RES1    0.0000
     21 C8         5.0733    4.5809    3.2226 C.3       1 RES1    0.0000
     22 H6         4.1413    4.4626    3.4576 H         1 RES1    0.0000
     23 H7         5.5815    4.6567    4.0457 H         1 RES1    0.0000
     24 C9         5.2324    5.8650    2.4109 C.3       1 RES1    0.0000
     25 H8         5.2702    6.6085    3.0481 H         1 RES1    0.0000
     26 C10        6.5164    5.9026    1.5941 C.ar      1 RES1    0.0000
     27 C11        7.2847    4.7261    1.4447 C.ar      1 RES1    0.0000
     28 C12        8.4205    4.7681    0.6121 C.ar      1 RES1    0.0000
     29 H9         8.9497    4.0097    0.5244 H         1 RES1    0.0000
     30 C13        8.7578    5.9130   -0.0721 C.ar      1 RES1    0.0000
     31 H10        9.4893    5.9112   -0.6456 H         1 RES1    0.0000
     32 C14        8.0075    7.0722    0.0919 C.ar      1 RES1    0.0000
     33 H11        8.2358    7.8451   -0.3729 H         1 RES1    0.0000
     34 C15        6.9269    7.0722    0.9464 C.ar      1 RES1    0.0000
     35 C16        6.1885    8.3450    1.2159 C.2       1 RES1    0.0000
     36 C17        5.2464    9.0438    0.4220 C.2       1 RES1    0.0000
     37 H12        4.9537    8.8317   -0.4356 H         1 RES1    0.0000
     38 C18        4.8705   10.0783    1.1846 C.2       1 RES1    0.0000
     39 C19        3.8725   11.1538    1.0059 C.ar      1 RES1    0.0000
     40 C20        3.0600   11.1556   -0.1065 C.ar      1 RES1    0.0000
     41 H13        3.1358   10.4744   -0.7354 H         1 RES1    0.0000
     42 C21        2.1251   12.1675   -0.2967 C.ar      1 RES1    0.0000
     43 H14        1.5720   12.1621   -1.0436 H         1 RES1    0.0000
     44 C22        2.0307   13.1721    0.6299 C.ar      1 RES1    0.0000
     45 H15        1.4257   13.8641    0.4972 H         1 RES1    0.0000
     46 C23        2.8068   13.1649    1.7309 C.ar      1 RES1    0.0000
     47 H16        2.7114   13.8407    2.3629 H         1 RES1    0.0000
     48 C24        3.7511   12.1621    1.9377 C.ar      1 RES1    0.0000
     49 H17        4.2907   12.1729    2.6940 H         1 RES1    0.0000
     50 C25        3.8642    5.4996    0.2194 C.3       1 RES1    0.0000
     51 H18        3.7117    4.5453    0.3029 H         1 RES1    0.0000
     52 H19        4.6310    5.6452   -0.3562 H         1 RES1    0.0000
     53 C26        2.6512    6.1844   -0.3301 C.3       1 RES1    0.0000
     54 H20        2.8940    6.7451   -1.0843 H         1 RES1    0.0000
     55 H21        2.0027    5.5284   -0.6288 H         1 RES1    0.0000
     56 C27        2.0857    7.0093    0.7667 C.3       1 RES1    0.0000
     57 H22        1.2431    6.6391    1.0738 H         1 RES1    0.0000
     58 H23        1.9331    7.9205    0.4659 H         1 RES1    0.0000
     59 C28        3.1171    6.9806    1.8771 C.2       1 RES1    0.0000
     60 H24        7.3227    2.8271    1.8176 H         1 RES1    0.0000
@<TRIPOS>BOND
     1    1    5 2
     2    2    5 2
     3    3    7 1
     4    4   59 2
     5    5    9 1
     6    6   19 1
     7    7   35 2
     8    8   24 1
     9    9   10 ar
    10   10   11 1
    11   12   10 ar
    12   13   12 1
    13   14   12 ar
    14   15   14 ar
    15   16   15 1
    16   17    9 ar
    17   18   17 1
    18   19   14 1
    19   20   19 1
    20   21   19 1
    21   22   21 1
    22   23   21 1
    23   24   21 1
    24   25   24 1
    25   26   24 1
    26   27    6 1
    27   28   27 ar
    28   29   28 1
    29   30   28 ar
    30   31   30 1
    31   32   30 ar
    32   33   32 1
    33   34   26 ar
    34   35   34 1
    35   36   35 1
    36   37   36 1
    37   38    3 1
    38   39   38 1
    39   40   39 ar
    40   41   40 1
    41   42   40 ar
    42   43   42 1
    43   44   42 ar
    44   45   44 1
    45   46   44 ar
    46   47   46 1
    47   48   39 ar
    48   49   48 1
    49   50    8 1
    50   51   50 1
    51   52   50 1
    52   53   50 1
    53   54   53 1
    54   55   53 1
    55   56   53 1
    56   57   56 1
    57   58   56 1
    58   59    8 1
    59   60    6 1
    60   15   17 ar
    61   26   27 ar
    62   32   34 ar
    63   36   38 2
    64   46   48 ar
    65   56   59 1
@<TRIPOS>SUBSTRUCTURE
     1 RES1 1

@<TRIPOS>CRYSIN
  20.7530   20.7530   10.4460  90.0000  90.0000 120.0000 169 1

