# MOL2 file generated by ConQuest
# Please check atom types

@<TRIPOS>MOLECULE
IKEGIO
    60    63     1
SMALL
NO_CHARGES
****
Generated from CSD

@<TRIPOS>ATOM
      1 C1         8.1346    2.8288   -1.9741 C.ar      1 RES1    0.0000
      2 C2         9.4651    2.8862   -1.5707 C.ar      1 RES1    0.0000
      3 C3        10.0914    4.0999   -1.3591 C.ar      1 RES1    0.0000
      4 C4         9.3545    5.2582   -1.5015 C.ar      1 RES1    0.0000
      5 C5         8.0338    5.2067   -1.8816 C.ar      1 RES1    0.0000
      6 C6         7.4006    4.0037   -2.1372 C.ar      1 RES1    0.0000
      7 C7         5.9727    3.9425   -2.6298 C.3       1 RES1    0.0000
      8 C8         3.7138    4.8336   -2.3693 C.3       1 RES1    0.0000
      9 C9         2.9451    5.9385   -1.6750 C.3       1 RES1    0.0000
     10 C10        3.2214    8.0637   -3.0019 C.3       1 RES1    0.0000
     11 C11        1.7162    8.2649   -3.0581 C.ar      1 RES1    0.0000
     12 C12        1.0293    8.7197   -1.9515 C.ar      1 RES1    0.0000
     13 C13       -0.3438    8.8936   -2.0007 C.ar      1 RES1    0.0000
     14 C14       -1.0245    8.6147   -3.1676 C.ar      1 RES1    0.0000
     15 C15       -0.3518    8.1677   -4.2691 C.ar      1 RES1    0.0000
     16 C16        1.0214    7.9841   -4.2149 C.ar      1 RES1    0.0000
     17 C17        3.9335    9.4145   -2.9074 C.3       1 RES1    0.0000
     18 C18        5.4668    9.3047   -2.6557 C.3       1 RES1    0.0000
     19 C19        6.2079    8.7858   -3.8705 C.ar      1 RES1    0.0000
     20 C20        6.8135    9.6565   -4.7522 C.ar      1 RES1    0.0000
     21 C21        7.4381    9.2046   -5.8847 C.ar      1 RES1    0.0000
     22 C22        7.4762    7.8519   -6.1479 C.ar      1 RES1    0.0000
     23 C23        6.9014    6.9588   -5.2771 C.ar      1 RES1    0.0000
     24 C24        6.2647    7.4311   -4.1446 C.ar      1 RES1    0.0000
     25 C25        5.5851    8.4767   -1.4286 C.2       1 RES1    0.0000
     26 C26        4.6784    7.5147   -1.1190 C.2       1 RES1    0.0000
     27 N1         5.0580    4.7131   -1.7984 N.3       1 RES1    0.0000
     28 N2         3.5755    7.2601   -1.8237 N.pl3     1 RES1    0.0000
     29 N3         3.7294   10.2007   -4.1588 N.pl3     1 RES1    0.0000
     30 N4         6.6952    8.6274   -0.5908 N.pl3     1 RES1    0.0000
     31 O1         3.9306   11.4125   -4.0982 O.2       1 RES1    0.0000
     32 O2         3.4315    9.6234   -5.1891 O.2       1 RES1    0.0000
     33 O3         7.5615    9.4670   -0.9143 O.2       1 RES1    0.0000
     34 O4         6.8003    7.9403    0.4478 O.2       1 RES1    0.0000
     35 H1         7.6764    1.9144   -2.1313 H         1 RES1    0.0000
     36 H2         4.9109    4.3438   -0.9644 H         1 RES1    0.0000
     37 H3         9.9920    2.0504   -1.5000 H         1 RES1    0.0000
     38 H4        11.0980    4.1397   -1.0602 H         1 RES1    0.0000
     39 H5         9.7170    6.0833   -1.3345 H         1 RES1    0.0000
     40 H6         7.5223    5.9958   -1.9637 H         1 RES1    0.0000
     41 H7         5.8955    4.2466   -3.6378 H         1 RES1    0.0000
     42 H8         5.7037    2.9833   -2.7104 H         1 RES1    0.0000
     43 H9         3.8430    5.0241   -3.2982 H         1 RES1    0.0000
     44 H10        3.1415    3.9648   -2.3033 H         1 RES1    0.0000
     45 H11        2.0206    5.9958   -2.1008 H         1 RES1    0.0000
     46 H12        2.9072    5.7917   -0.8186 H         1 RES1    0.0000
     47 H13        3.4976    7.6090   -3.8468 H         1 RES1    0.0000
     48 H14        1.5118    8.8723   -1.1321 H         1 RES1    0.0000
     49 H15       -0.7949    9.1249   -1.1865 H         1 RES1    0.0000
     50 H16       -1.9260    8.7265   -3.1959 H         1 RES1    0.0000
     51 H17       -0.7436    8.0171   -5.0725 H         1 RES1    0.0000
     52 H18        1.4820    7.7159   -4.9418 H         1 RES1    0.0000
     53 H19        3.5400    9.9121   -2.1400 H         1 RES1    0.0000
     54 H20        5.7831   10.2230   -2.5515 H         1 RES1    0.0000
     55 H21        6.8229   10.5243   -4.5456 H         1 RES1    0.0000
     56 H22        7.8885    9.8149   -6.4462 H         1 RES1    0.0000
     57 H23        7.9068    7.5507   -6.8794 H         1 RES1    0.0000
     58 H24        6.9447    6.0055   -5.3968 H         1 RES1    0.0000
     59 H25        5.8416    6.8413   -3.4745 H         1 RES1    0.0000
     60 H26        4.7725    6.9870   -0.4245 H         1 RES1    0.0000
@<TRIPOS>BOND
     1    1    2 ar
     2    2    3 ar
     3    3    4 ar
     4    4    5 ar
     5    5    6 ar
     6    6    1 ar
     7    7    6 1
     8    8    9 1
     9    9   28 1
    10   10   11 1
    11   11   12 ar
    12   12   13 ar
    13   13   14 ar
    14   14   15 ar
    15   15   16 ar
    16   16   11 ar
    17   17   10 1
    18   18   17 1
    19   19   18 1
    20   20   19 ar
    21   21   20 ar
    22   22   21 ar
    23   23   22 ar
    24   24   19 ar
    25   25   18 1
    26   26   25 2
    27   27    7 1
    28   28   10 1
    29   29   17 1
    30   30   25 1
    31   31   29 2
    32   32   29 2
    33   33   30 2
    34   34   30 2
    35   35    1 1
    36   36   27 1
    37   37    2 1
    38   38    3 1
    39   39    4 1
    40   40    5 1
    41   41    7 1
    42   42    7 1
    43   43    8 1
    44   44    8 1
    45   45    9 1
    46   46    9 1
    47   47   10 1
    48   48   12 1
    49   49   13 1
    50   50   14 1
    51   51   15 1
    52   52   16 1
    53   53   17 1
    54   54   18 1
    55   55   20 1
    56   56   21 1
    57   57   22 1
    58   58   23 1
    59   59   24 1
    60   60   26 1
    61    8   27 1
    62   23   24 ar
    63   26   28 1
@<TRIPOS>SUBSTRUCTURE
     1 RES1 1

@<TRIPOS>CRYSIN
  11.0348    9.7177   22.1800  90.0000 101.0310  90.0000 231 1

