# MOL2 file generated by ConQuest
# Please check atom types

@<TRIPOS>MOLECULE
IKEGUC
    58    60     1
SMALL
NO_CHARGES
****
Generated from CSD

@<TRIPOS>ATOM
      1 O1         5.2865   -0.8877    7.0215 O.3       1 RES1    0.0000
      2 H1         5.6582   -1.6699    6.8682 H         1 RES1    0.0000
      3 O2         2.6948    1.8652    7.5539 O.3       1 RES1    0.0000
      4 O3        -0.7744    1.5850    2.3354 O.3       1 RES1    0.0000
      5 O4         1.1331    0.7712    1.4670 O.2       1 RES1    0.0000
      6 N1         4.3001   -1.2286    7.9653 N.2       1 RES1    0.0000
      7 C1         2.5454   -0.5225    9.3694 C.ar      1 RES1    0.0000
      8 C2         1.9995   -1.8082    9.4551 C.ar      1 RES1    0.0000
      9 H2         2.2598   -2.4788    8.8346 H         1 RES1    0.0000
     10 C3         1.0827   -2.0963   10.4421 C.ar      1 RES1    0.0000
     11 H3         0.7186   -2.9728   10.4841 H         1 RES1    0.0000
     12 C4         0.6670   -1.1523   11.3861 C.ar      1 RES1    0.0000
     13 C5        -0.2594   -1.5942   12.5204 C.3       1 RES1    0.0000
     14 C6        -1.0267   -0.3760   13.0468 C.3       1 RES1    0.0000
     15 H4        -1.6720   -0.0756   12.3584 H         1 RES1    0.0000
     16 H5        -1.5397   -0.6376   13.8510 H         1 RES1    0.0000
     17 C7        -0.1011    0.7734   13.3976 C.3       1 RES1    0.0000
     18 H6         0.5290    0.4733   14.1000 H         1 RES1    0.0000
     19 H7        -0.6404    1.5131   13.7740 H         1 RES1    0.0000
     20 C8         0.7066    1.3058   12.1998 C.3       1 RES1    0.0000
     21 C9         1.1675    0.1599   11.2820 C.ar      1 RES1    0.0000
     22 C10        2.0848    0.4452   10.2619 C.ar      1 RES1    0.0000
     23 H8         2.4061    1.3352   10.1747 H         1 RES1    0.0000
     24 C11        3.6164   -0.2276    8.3850 C.2       1 RES1    0.0000
     25 C12        3.8904    1.1973    7.9685 C.3       1 RES1    0.0000
     26 H9         4.2932    1.6881    8.7274 H         1 RES1    0.0000
     27 H10        4.5420    1.2003    7.2228 H         1 RES1    0.0000
     28 C13       -1.2958   -2.6299   12.0525 C.3       1 RES1    0.0000
     29 H11       -1.7711   -2.2853   11.2673 H         1 RES1    0.0000
     30 H12       -1.9368   -2.8001   12.7735 H         1 RES1    0.0000
     31 H13       -0.8399   -3.4647   11.8167 H         1 RES1    0.0000
     32 C14        0.6028   -2.2336   13.6198 C.3       1 RES1    0.0000
     33 H14        1.0471   -3.0312   13.2639 H         1 RES1    0.0000
     34 H15        0.0332   -2.4867   14.3762 H         1 RES1    0.0000
     35 H16        1.2783   -1.5904   13.9204 H         1 RES1    0.0000
     36 C15       -0.1674    2.2639   11.3712 C.3       1 RES1    0.0000
     37 H17       -0.4336    3.0257   11.9268 H         1 RES1    0.0000
     38 H18       -0.9679    1.7900   11.0621 H         1 RES1    0.0000
     39 H19        0.3418    2.5849   10.5973 H         1 RES1    0.0000
     40 C16        1.8984    2.0909   12.7701 C.3       1 RES1    0.0000
     41 H20        2.4003    2.5021   12.0355 H         1 RES1    0.0000
     42 H21        2.4841    1.4817   13.2654 H         1 RES1    0.0000
     43 H22        1.5703    2.7905   13.3726 H         1 RES1    0.0000
     44 C17        2.2022    1.6061    6.3024 C.ar      1 RES1    0.0000
     45 C18        0.9812    2.2162    6.0200 C.ar      1 RES1    0.0000
     46 H23        0.5480    2.7385    6.6840 H         1 RES1    0.0000
     47 C19        0.4026    2.0630    4.7811 C.ar      1 RES1    0.0000
     48 H24       -0.4388    2.4659    4.5999 H         1 RES1    0.0000
     49 C20        1.0477    1.3153    3.7866 C.ar      1 RES1    0.0000
     50 C21        2.2642    0.7120    4.0847 C.ar      1 RES1    0.0000
     51 H25        2.7087    0.2054    3.4152 H         1 RES1    0.0000
     52 C22        2.8436    0.8334    5.3395 C.ar      1 RES1    0.0000
     53 H26        3.6631    0.3967    5.5371 H         1 RES1    0.0000
     54 C23        0.5042    1.1871    2.4143 C.2       1 RES1    0.0000
     55 C24       -1.3664    1.5248    1.0166 C.3       1 RES1    0.0000
     56 H27       -0.9612    2.2094    0.4452 H         1 RES1    0.0000
     57 H28       -2.3307    1.6847    1.0836 H         1 RES1    0.0000
     58 H29       -1.2078    0.6390    0.6278 H         1 RES1    0.0000
@<TRIPOS>BOND
     1    1    2 1
     2    3   25 1
     3    4   54 1
     4    5   54 2
     5    6    1 1
     6    7    8 ar
     7    8    9 1
     8   10    8 ar
     9   11   10 1
    10   12   10 ar
    11   13   12 1
    12   14   13 1
    13   15   14 1
    14   16   14 1
    15   17   14 1
    16   18   17 1
    17   19   17 1
    18   20   17 1
    19   21   12 ar
    20   22    7 ar
    21   23   22 1
    22   24    6 2
    23   25   24 1
    24   26   25 1
    25   27   25 1
    26   28   13 1
    27   29   28 1
    28   30   28 1
    29   31   28 1
    30   32   13 1
    31   33   32 1
    32   34   32 1
    33   35   32 1
    34   36   20 1
    35   37   36 1
    36   38   36 1
    37   39   36 1
    38   40   20 1
    39   41   40 1
    40   42   40 1
    41   43   40 1
    42   44    3 1
    43   45   44 ar
    44   46   45 1
    45   47   45 ar
    46   48   47 1
    47   49   47 ar
    48   50   49 ar
    49   51   50 1
    50   52   44 ar
    51   53   52 1
    52   54   49 1
    53   55    4 1
    54   56   55 1
    55   57   55 1
    56   58   55 1
    57    7   24 1
    58   20   21 1
    59   21   22 ar
    60   50   52 ar
@<TRIPOS>SUBSTRUCTURE
     1 RES1 1

@<TRIPOS>CRYSIN
   5.8357   11.7877   15.9146 107.0230  95.2050  96.1340   2 1

