# MOL2 file generated by ConQuest
# Please check atom types

@<TRIPOS>MOLECULE
IKIMIY
    28    28     1
SMALL
NO_CHARGES
****
Generated from CSD

@<TRIPOS>ATOM
      1 N1         3.1082    2.4105    5.9325 N.ar      1 RES1    0.0000
      2 C1         3.5405    3.0739    6.9802 C.ar      1 RES1    0.0000
      3 C2         3.2183    4.4106    7.1978 C.ar      1 RES1    0.0000
      4 N2         2.2972    4.9744    6.4342 N.ar      1 RES1    0.0000
      5 C3         1.7869    4.2971    5.4166 C.ar      1 RES1    0.0000
      6 C4         2.2917    3.0329    5.1279 C.ar      1 RES1    0.0000
      7 N3         2.0337    2.3170    3.8566 N.pl3     1 RES1    0.0000
      8 O1         1.8987    3.0046    2.8666 O.2       1 RES1    0.0000
      9 O2         2.0227    1.1025    3.8905 O.2       1 RES1    0.0000
     10 N4         4.3432    2.2625    7.9070 N.pl3     1 RES1    0.0000
     11 O3         4.1195    2.4414    9.0981 O.2       1 RES1    0.0000
     12 O4         5.1015    1.4460    7.4559 O.2       1 RES1    0.0000
     13 N5         0.8259    4.9896    4.6791 N.3       1 RES1    0.0000
     14 N6        -0.2735    4.3036    4.1958 N.pl3     1 RES1    0.0000
     15 O5        -1.0473    4.9618    3.5477 O.2       1 RES1    0.0000
     16 O6        -0.3791    3.1197    4.4630 O.2       1 RES1    0.0000
     17 C5         0.7606    6.4467    4.6568 C.3       1 RES1    0.0000
     18 H1         0.6643    6.7735    3.8093 H         1 RES1    0.0000
     19 H2         1.6828    6.6757    4.8410 H         1 RES1    0.0000
     20 H3         0.0886    6.7456    5.3330 H         1 RES1    0.0000
     21 N7         3.7453    5.2481    8.1906 N.3       1 RES1    0.0000
     22 N8         5.1148    5.2409    8.4104 N.pl3     1 RES1    0.0000
     23 O7         5.5377    6.0753    9.1820 O.2       1 RES1    0.0000
     24 O8         5.7879    4.4100    7.8298 O.2       1 RES1    0.0000
     25 C6         3.0290    6.4383    8.6344 C.3       1 RES1    0.0000
     26 H4         3.2549    6.6199    9.5549 H         1 RES1    0.0000
     27 H5         3.3324    7.2065    8.1106 H         1 RES1    0.0000
     28 H6         2.0924    6.2847    8.4915 H         1 RES1    0.0000
@<TRIPOS>BOND
     1    1    2 ar
     2    2    3 ar
     3    3    4 ar
     4    4    5 ar
     5    5    6 ar
     6    6    1 ar
     7    7    6 1
     8    8    7 2
     9    9    7 2
    10   10    2 1
    11   11   10 2
    12   12   10 2
    13   13    5 1
    14   14   13 1
    15   15   14 2
    16   16   14 2
    17   17   13 1
    18   18   17 1
    19   19   17 1
    20   20   17 1
    21   21    3 1
    22   22   21 1
    23   23   22 2
    24   24   22 2
    25   25   21 1
    26   26   25 1
    27   27   25 1
    28   28   25 1
@<TRIPOS>SUBSTRUCTURE
     1 RES1 1

@<TRIPOS>CRYSIN
  11.0710   13.9660   15.8720  90.0000  90.0000  90.0000  61 1

