# MOL2 file generated by ConQuest
# Please check atom types

@<TRIPOS>MOLECULE
IKIWAC
    55    60     1
SMALL
NO_CHARGES
****
Generated from CSD

@<TRIPOS>ATOM
      1 C1         6.4466    3.0850    4.2110 C.ar      1 RES1    0.0000
      2 O1         5.1854    2.9384    0.2840 O.3       1 RES1    0.0000
      3 C2         7.1206    0.9763    2.6058 C.ar      1 RES1    0.0000
      4 H1         7.3387    0.2433    2.0771 H         1 RES1    0.0000
      5 N1         1.6022    4.3133    0.5377 N.am      1 RES1    0.0000
      6 N2         2.1262    2.8866    2.1574 N.am      1 RES1    0.0000
      7 O2         8.6883   -0.9663    3.7046 O.2       1 RES1    0.0000
      8 C3         7.6305    1.0886    3.8797 C.ar      1 RES1    0.0000
      9 C4         6.2804    1.9630    2.1206 C.ar      1 RES1    0.0000
     10 O3         0.8723    1.0490    1.4457 O.2       1 RES1    0.0000
     11 O4         3.3220    4.8837    1.9934 O.2       1 RES1    0.0000
     12 N3         8.5629    0.0512    4.3616 N.pl3     1 RES1    0.0000
     13 O5         5.5063    5.1628    4.5680 O.2       1 RES1    0.0000
     14 O6         5.9144    0.8315    0.0703 O.2       1 RES1    0.0000
     15 O7         6.2565    4.0924    6.2926 O.2       1 RES1    0.0000
     16 N4         0.7909    3.1186    0.3904 N.am      1 RES1    0.0000
     17 C5         5.9457    3.0363    2.9271 C.ar      1 RES1    0.0000
     18 H2         5.3927    3.7138    2.6092 H         1 RES1    0.0000
     19 O8         9.1425    0.2648    5.4035 O.2       1 RES1    0.0000
     20 C6         4.8251    2.9675   -1.1244 C.3       1 RES1    0.0000
     21 H3         5.4950    2.4770   -1.6253 H         1 RES1    0.0000
     22 H4         4.8447    3.8872   -1.4301 H         1 RES1    0.0000
     23 C7         7.3045    2.1249    4.7152 C.ar      1 RES1    0.0000
     24 H5         7.6446    2.1806    5.5786 H         1 RES1    0.0000
     25 C8         2.8748    2.9058   -2.7230 C.3       1 RES1    0.0000
     26 H6         3.3410    3.6148   -3.1948 H         1 RES1    0.0000
     27 H7         2.4229    2.2649   -3.2941 H         1 RES1    0.0000
     28 C9         2.4668    4.1103    1.6008 C.2       1 RES1    0.0000
     29 N5         6.0427    4.1966    5.0856 N.pl3     1 RES1    0.0000
     30 C10        2.2403    3.2419   -1.4234 C.3       1 RES1    0.0000
     31 C11        5.7829    1.8221    0.7195 C.2       1 RES1    0.0000
     32 C12        2.0770    4.6347   -0.8400 C.3       1 RES1    0.0000
     33 H8         2.8699    5.2074   -0.8891 H         1 RES1    0.0000
     34 C13        3.4885    2.3936   -1.4301 C.3       1 RES1    0.0000
     35 H9         3.3692    1.4403   -1.2382 H         1 RES1    0.0000
     36 C14        0.8369    2.7972   -1.0530 C.3       1 RES1    0.0000
     37 H10        0.6198    1.8686   -1.2817 H         1 RES1    0.0000
     38 C15        1.2399    2.1999    1.3208 C.2       1 RES1    0.0000
     39 C16        2.6666    3.0581    4.5156 C.ar      1 RES1    0.0000
     40 H11        2.2579    3.8935    4.5368 H         1 RES1    0.0000
     41 C17        2.6981    2.3354    3.3432 C.ar      1 RES1    0.0000
     42 C18       -0.0113    3.8567   -1.7558 C.3       1 RES1    0.0000
     43 H12       -0.8715    3.9635   -1.3196 H         1 RES1    0.0000
     44 H13       -0.1534    3.6305   -2.6884 H         1 RES1    0.0000
     45 C19        3.2749    1.0782    3.3041 C.ar      1 RES1    0.0000
     46 H14        3.2798    0.5835    2.5166 H         1 RES1    0.0000
     47 C20        3.2407    2.5422    5.6590 C.ar      1 RES1    0.0000
     48 H15        3.2227    3.0274    6.4521 H         1 RES1    0.0000
     49 C21        0.8540    5.1366   -1.6141 C.3       1 RES1    0.0000
     50 H16        1.1078    5.4868   -2.4831 H         1 RES1    0.0000
     51 H17        0.3833    5.8260   -1.1189 H         1 RES1    0.0000
     52 C22        3.8403    1.3055    5.6166 C.ar      1 RES1    0.0000
     53 H18        4.2463    0.9662    6.3807 H         1 RES1    0.0000
     54 C23        3.8469    0.5681    4.4643 C.ar      1 RES1    0.0000
     55 H19        4.2355   -0.2767    4.4564 H         1 RES1    0.0000
@<TRIPOS>BOND
     1    1   17 ar
     2    2   20 1
     3    3    4 1
     4    5   16 1
     5    6   28 1
     6    7   12 2
     7    8    3 ar
     8    9    3 ar
     9   10   38 2
    10   11   28 2
    11   12    8 1
    12   13   29 2
    13   14   31 2
    14   15   29 2
    15   16   36 1
    16   17    9 ar
    17   18   17 1
    18   19   12 2
    19   20   21 1
    20   22   20 1
    21   23    1 ar
    22   24   23 1
    23   25   26 1
    24   27   25 1
    25   28    5 1
    26   29    1 1
    27   30   25 1
    28   31    2 1
    29   32    5 1
    30   33   32 1
    31   34   20 1
    32   35   34 1
    33   36   30 1
    34   37   36 1
    35   38    6 1
    36   39   40 1
    37   41    6 1
    38   42   36 1
    39   43   42 1
    40   44   42 1
    41   45   41 ar
    42   46   45 1
    43   47   39 ar
    44   48   47 1
    45   49   32 1
    46   50   49 1
    47   51   49 1
    48   52   47 ar
    49   53   52 1
    50   54   45 ar
    51   55   54 1
    52    8   23 ar
    53    9   31 1
    54   16   38 1
    55   25   34 1
    56   30   32 1
    57   30   34 1
    58   39   41 ar
    59   42   49 1
    60   52   54 ar
@<TRIPOS>SUBSTRUCTURE
     1 RES1 1

@<TRIPOS>CRYSIN
   8.8356   11.1402   11.4781  96.4630 101.6430  92.5100   2 1

