# MOL2 file generated by ConQuest
# Please check atom types

@<TRIPOS>MOLECULE
IKOBUF
    45    48     1
SMALL
NO_CHARGES
****
Generated from CSD

@<TRIPOS>ATOM
      1 N1         1.5112    0.7089    5.0226 N.2       1 RES1    0.0000
      2 O1         3.3838    2.7379    4.5204 O.3       1 RES1    0.0000
      3 O2         4.2179   -2.5174    1.9087 O.2       1 RES1    0.0000
      4 O3         0.3994   -0.1910    5.1821 O.3       1 RES1    0.0000
      5 O4         1.5116   -1.1530    1.0824 O.3       1 RES1    0.0000
      6 H1         1.5893   -1.9006    0.5050 H         1 RES1    0.0000
      7 O5         1.6018   -3.7903    0.2510 O.2       1 RES1    0.0000
      8 O6         2.2518   -5.2364    1.8337 O.3       1 RES1    0.0000
      9 C1         4.0799    1.9007    3.7103 C.ar      1 RES1    0.0000
     10 C2         5.3308    2.1794    3.1728 C.ar      1 RES1    0.0000
     11 H2         5.7426    2.9924    3.3584 H         1 RES1    0.0000
     12 C3         5.9705    1.2495    2.3583 C.ar      1 RES1    0.0000
     13 H3         6.8094    1.4421    2.0079 H         1 RES1    0.0000
     14 C4         5.3697    0.0494    2.0714 C.ar      1 RES1    0.0000
     15 H4         5.8031   -0.5651    1.5247 H         1 RES1    0.0000
     16 C5         4.1176   -0.2518    2.5921 C.ar      1 RES1    0.0000
     17 C6         3.5215   -1.5920    2.2575 C.2       1 RES1    0.0000
     18 C7         1.9933   -1.7164    2.3088 C.3       1 RES1    0.0000
     19 C8         1.4728   -3.1428    2.5710 C.3       1 RES1    0.0000
     20 H5         1.9133   -3.4899    3.3747 H         1 RES1    0.0000
     21 C9        -0.0604   -3.1024    2.8292 C.3       1 RES1    0.0000
     22 H6        -0.4744   -2.6410    2.0699 H         1 RES1    0.0000
     23 C10       -0.4183   -2.3040    4.1120 C.3       1 RES1    0.0000
     24 H7        -1.3426   -2.0136    4.0723 H         1 RES1    0.0000
     25 H8        -0.3089   -2.8686    4.8928 H         1 RES1    0.0000
     26 C11        0.4736   -1.1279    4.2130 C.2       1 RES1    0.0000
     27 C12        1.5180   -0.8792    3.4242 C.2       1 RES1    0.0000
     28 C13        2.1612    0.2554    3.9717 C.2       1 RES1    0.0000
     29 C14        3.4572    0.6731    3.4336 C.ar      1 RES1    0.0000
     30 C15        3.8792    4.0658    4.7078 C.3       1 RES1    0.0000
     31 H9         4.7461    4.0282    5.1192 H         1 RES1    0.0000
     32 H10        3.2771    4.5546    5.2748 H         1 RES1    0.0000
     33 H11        3.9471    4.5054    3.8579 H         1 RES1    0.0000
     34 C16       -0.6854   -4.4895    2.9187 C.3       1 RES1    0.0000
     35 H12       -0.2385   -4.9987    3.5989 H         1 RES1    0.0000
     36 H13       -0.5966   -4.9364    2.0742 H         1 RES1    0.0000
     37 H14       -1.6164   -4.4071    3.1407 H         1 RES1    0.0000
     38 C17        1.7872   -4.0685    1.4153 C.2       1 RES1    0.0000
     39 C18        2.5300   -6.2862    0.8630 C.3       1 RES1    0.0000
     40 H15        3.4530   -6.5739    0.9435 H         1 RES1    0.0000
     41 H16        2.3934   -5.9478   -0.0359 H         1 RES1    0.0000
     42 C19        1.6404   -7.4077    1.1089 C.3       1 RES1    0.0000
     43 H17        1.6607   -7.6324    2.0416 H         1 RES1    0.0000
     44 H18        1.9274   -8.1632    0.5909 H         1 RES1    0.0000
     45 H19        0.7464   -7.1677    0.8565 H         1 RES1    0.0000
@<TRIPOS>BOND
     1    1    4 1
     2    2    9 1
     3    3   17 2
     4    4   26 1
     5    5    6 1
     6    7   38 2
     7    8   38 1
     8    9   10 ar
     9   10   11 1
    10   12   10 ar
    11   13   12 1
    12   14   12 ar
    13   15   14 1
    14   16   14 ar
    15   17   16 1
    16   18    5 1
    17   19   18 1
    18   20   19 1
    19   21   19 1
    20   22   21 1
    21   23   21 1
    22   24   23 1
    23   25   23 1
    24   26   23 1
    25   27   18 1
    26   28    1 2
    27   29    9 ar
    28   30    2 1
    29   31   30 1
    30   32   30 1
    31   33   30 1
    32   34   21 1
    33   35   34 1
    34   36   34 1
    35   37   34 1
    36   38   19 1
    37   39    8 1
    38   40   39 1
    39   41   39 1
    40   42   39 1
    41   43   42 1
    42   44   42 1
    43   45   42 1
    44   16   29 ar
    45   17   18 1
    46   26   27 2
    47   27   28 1
    48   28   29 1
@<TRIPOS>SUBSTRUCTURE
     1 RES1 1

@<TRIPOS>CRYSIN
   7.5650   10.3030   11.6180 102.5880 105.9280  89.8900   2 1

