# MOL2 file generated by ConQuest
# Please check atom types

@<TRIPOS>MOLECULE
IKOBIV
    45    49     1
SMALL
NO_CHARGES
****
Generated from CSD

@<TRIPOS>ATOM
      1 N1         7.4030    7.8220    4.7788 N.3       1 RES1    0.0000
      2 O1         7.0147    6.4630    5.0858 O.3       1 RES1    0.0000
      3 C1         7.0737    8.5292    6.0363 C.3       1 RES1    0.0000
      4 H1         6.8931    9.4709    5.8354 H         1 RES1    0.0000
      5 C2         5.7608    7.8513    6.5078 C.3       1 RES1    0.0000
      6 H2         5.8053    7.6191    7.4483 H         1 RES1    0.0000
      7 H3         4.9963    8.4296    6.3607 H         1 RES1    0.0000
      8 C3         5.6799    6.5974    5.6336 C.3       1 RES1    0.0000
      9 H4         5.4488    5.8145    6.1758 H         1 RES1    0.0000
     10 C4         4.7455    6.7214    4.4525 C.3       1 RES1    0.0000
     11 H5         4.6798    5.8692    3.9930 H         1 RES1    0.0000
     12 H6         3.8594    6.9712    4.7586 H         1 RES1    0.0000
     13 C5         4.5189    8.2608    2.4586 C.ar      1 RES1    0.0000
     14 H7         3.6781    7.9001    2.2922 H         1 RES1    0.0000
     15 C6         4.9955    9.2704    1.6610 C.ar      1 RES1    0.0000
     16 H8         4.4705    9.5819    0.9597 H         1 RES1    0.0000
     17 C7         6.2495    9.8392    1.8802 C.ar      1 RES1    0.0000
     18 C8         7.0487    9.3477    2.9121 C.ar      1 RES1    0.0000
     19 C9         8.1803    8.4450    7.0659 C.ar      1 RES1    0.0000
     20 C10        9.1752    7.5053    6.9806 C.ar      1 RES1    0.0000
     21 H9         9.1956    6.9209    6.2575 H         1 RES1    0.0000
     22 C11       10.1678    7.4157    7.9765 C.ar      1 RES1    0.0000
     23 H10       10.8273    6.7626    7.9089 H         1 RES1    0.0000
     24 C12       10.1754    8.2654    9.0304 C.ar      1 RES1    0.0000
     25 H11       10.8454    8.1959    9.6712 H         1 RES1    0.0000
     26 C13        9.1828    9.2507    9.1664 C.ar      1 RES1    0.0000
     27 C14        9.1571   10.1494   10.2664 C.ar      1 RES1    0.0000
     28 H12        9.8196   10.0892   10.9159 H         1 RES1    0.0000
     29 C15        8.1962   11.0866   10.3921 C.ar      1 RES1    0.0000
     30 H13        8.2022   11.6645   11.1208 H         1 RES1    0.0000
     31 C16        7.1923   11.1875    9.4260 C.ar      1 RES1    0.0000
     32 H14        6.5328   11.8376    9.5156 H         1 RES1    0.0000
     33 C17        7.1651   10.3438    8.3487 C.ar      1 RES1    0.0000
     34 H15        6.4844   10.4220    7.7209 H         1 RES1    0.0000
     35 C18        6.7299   10.9668    0.9907 C.3       1 RES1    0.0000
     36 H16        7.5261   10.6942    0.5299 H         1 RES1    0.0000
     37 H17        6.9203   11.7385    1.5282 H         1 RES1    0.0000
     38 H18        6.0471   11.1823    0.3512 H         1 RES1    0.0000
     39 C19        8.4206    9.9176    3.1728 C.3       1 RES1    0.0000
     40 H19        8.8836   10.0300    2.3400 H         1 RES1    0.0000
     41 H20        8.9146    9.3171    3.7357 H         1 RES1    0.0000
     42 H21        8.3352   10.7681    3.6094 H         1 RES1    0.0000
     43 C20        8.1630    9.3511    8.1791 C.ar      1 RES1    0.0000
     44 C21        5.2780    7.7732    3.5088 C.ar      1 RES1    0.0000
     45 C22        6.5532    8.3083    3.7081 C.ar      1 RES1    0.0000
@<TRIPOS>BOND
     1    1    2 1
     2    2    8 1
     3    3    1 1
     4    4    3 1
     5    5    3 1
     6    6    5 1
     7    7    5 1
     8    8    5 1
     9    9    8 1
    10   10    8 1
    11   11   10 1
    12   12   10 1
    13   13   14 1
    14   15   13 ar
    15   16   15 1
    16   17   15 ar
    17   18   17 ar
    18   19    3 1
    19   20   19 ar
    20   21   20 1
    21   22   20 ar
    22   23   22 1
    23   24   22 ar
    24   25   24 1
    25   26   24 ar
    26   27   26 ar
    27   28   27 1
    28   29   27 ar
    29   30   29 1
    30   31   29 ar
    31   32   31 1
    32   33   31 ar
    33   34   33 1
    34   35   17 1
    35   36   35 1
    36   37   35 1
    37   38   35 1
    38   39   18 1
    39   40   39 1
    40   41   39 1
    41   42   39 1
    42   43   19 ar
    43   44   10 1
    44   45    1 1
    45   13   44 ar
    46   18   45 ar
    47   26   43 ar
    48   33   43 ar
    49   44   45 ar
@<TRIPOS>SUBSTRUCTURE
     1 RES1 1

@<TRIPOS>CRYSIN
   7.5541   14.7914   15.4049  90.0000  90.0000  90.0000  19 1

