# MOL2 file generated by ConQuest
# Please check atom types

@<TRIPOS>MOLECULE
ILAFEG
    32    33     1
SMALL
NO_CHARGES
****
Generated from CSD

@<TRIPOS>ATOM
      1 O1         8.5394   -0.1511    2.3199 O.2       1 RES1    0.0000
      2 N1         7.6515    0.5545    1.7559 N.pl3     1 RES1    0.0000
      3 C1         6.7401    1.4691    2.5221 C.3       1 RES1    0.0000
      4 C2         7.4911    2.1489    3.6465 C.3       1 RES1    0.0000
      5 H1         6.7533    2.7003    4.1030 H         1 RES1    0.0000
      6 H2         7.7952    1.5416    4.2330 H         1 RES1    0.0000
      7 H3         8.2711    2.5865    3.3462 H         1 RES1    0.0000
      8 C3         5.6446    0.5825    3.0814 C.3       1 RES1    0.0000
      9 H4         4.9929    1.0656    3.5354 H         1 RES1    0.0000
     10 H5         6.0895   -0.0724    3.6418 H         1 RES1    0.0000
     11 H6         5.0556    0.1655    2.3766 H         1 RES1    0.0000
     12 C4         6.2726    2.4096    1.3811 C.3       1 RES1    0.0000
     13 C5         7.2405    3.5559    1.1221 C.3       1 RES1    0.0000
     14 H7         7.2118    4.1694    1.8091 H         1 RES1    0.0000
     15 H8         8.1181    3.2590    0.9814 H         1 RES1    0.0000
     16 H9         6.9704    3.9729    0.2956 H         1 RES1    0.0000
     17 C6         4.8416    2.9031    1.5099 C.3       1 RES1    0.0000
     18 H10        4.1024    2.0382    1.4307 H         1 RES1    0.0000
     19 H11        4.8606    3.4142    2.2702 H         1 RES1    0.0000
     20 H12        4.5905    3.4349    0.7922 H         1 RES1    0.0000
     21 N2         6.3989    1.4826    0.2093 N.pl3     1 RES1    0.0000
     22 O2         5.7946    1.6998   -0.9018 O.2       1 RES1    0.0000
     23 C7         7.2929    0.5039    0.4481 C.2       1 RES1    0.0000
     24 C8         7.7591   -0.4832   -0.4978 C.2       1 RES1    0.0000
     25 N3         8.3709   -1.6243   -0.1372 N.2       1 RES1    0.0000
     26 N4         8.5960   -2.2854   -1.2498 N.2       1 RES1    0.0000
     27 N5         8.1245   -1.5457   -2.2135 N.pl3     1 RES1    0.0000
     28 C9         8.1514   -1.9751   -3.6264 C.3       1 RES1    0.0000
     29 H13        8.5860   -2.8141   -3.5945 H         1 RES1    0.0000
     30 H14        8.6316   -1.3553   -4.2094 H         1 RES1    0.0000
     31 H15        7.1926   -2.1106   -3.9729 H         1 RES1    0.0000
     32 N6         7.5762   -0.4045   -1.8174 N.2       1 RES1    0.0000
@<TRIPOS>BOND
     1    1    2 1
     2    2    3 1
     3    3    4 1
     4    4    5 1
     5    6    4 1
     6    7    4 1
     7    8    3 1
     8    9    8 1
     9   10    8 1
    10   11    8 1
    11   12    3 1
    12   13   12 1
    13   14   13 1
    14   15   13 1
    15   16   13 1
    16   17   12 1
    17   18   17 1
    18   19   17 1
    19   20   17 1
    20   21   12 1
    21   22   21 1
    22   23    2 1
    23   24   23 1
    24   25   24 1
    25   26   25 2
    26   27   26 1
    27   28   27 1
    28   29   28 1
    29   30   28 1
    30   31   28 1
    31   32   24 2
    32   21   23 2
    33   27   32 1
@<TRIPOS>SUBSTRUCTURE
     1 RES1 1

@<TRIPOS>CRYSIN
   9.6950   10.3460   12.2270  90.0000 104.7500  90.0000  14 1

