# MOL2 file generated by ConQuest
# Please check atom types

@<TRIPOS>MOLECULE
ILOFEW
    21    21     1
SMALL
NO_CHARGES
****
Generated from CSD

@<TRIPOS>ATOM
      1 O1         3.2557    4.3523    6.7282 O.2       1 RES1    0.0000
      2 O2         7.5669    0.9042    7.8917 O.2       1 RES1    0.0000
      3 O3         3.5915    2.8402   11.3893 O.2       1 RES1    0.0000
      4 N1         4.2236    4.1348    9.7172 N.3       1 RES1    0.0000
      5 N2         7.2208    2.0693    7.9449 N.pl3     1 RES1    0.0000
      6 O4         5.3348    2.2918   10.1823 O.2       1 RES1    0.0000
      7 N3         5.2437    3.5412    7.6198 N.am      1 RES1    0.0000
      8 N4         5.3894    1.6271    6.4834 N.2       1 RES1    0.0000
      9 N5         4.2564    2.3160    6.1390 N.am      1 RES1    0.0000
     10 N6         4.3849    3.0417   10.4770 N.pl3     1 RES1    0.0000
     11 O5         7.8597    2.9861    8.4198 O.2       1 RES1    0.0000
     12 C1         3.1329    5.0455   10.0396 C.3       1 RES1    0.0000
     13 C2         5.2773    4.4409    8.7711 C.3       1 RES1    0.0000
     14 C3         5.9210    2.3975    7.3755 C.2       1 RES1    0.0000
     15 C4         4.1226    3.5043    6.7819 C.2       1 RES1    0.0000
     16 H1         6.1830    4.3996    9.1826 H         1 RES1    0.0000
     17 H2         3.6087    1.9658    5.5726 H         1 RES1    0.0000
     18 H3         5.1184    5.3522    8.3901 H         1 RES1    0.0000
     19 H4         3.3034    5.4568   10.9214 H         1 RES1    0.0000
     20 H5         3.1130    5.7927    9.3499 H         1 RES1    0.0000
     21 H6         2.3271    4.5152   10.0170 H         1 RES1    0.0000
@<TRIPOS>BOND
     1    1   15 2
     2    2    5 2
     3    3   10 2
     4    4   10 1
     5    5   11 2
     6    6   10 2
     7    7   13 1
     8    8    9 1
     9    9   15 1
    10   12    4 1
    11   13    4 1
    12   14    5 1
    13   15    7 1
    14   16   13 1
    15   17    9 1
    16   18   13 1
    17   19   12 1
    18   20   12 1
    19   21   12 1
    20    7   14 1
    21    8   14 2
@<TRIPOS>SUBSTRUCTURE
     1 RES1 1

@<TRIPOS>CRYSIN
   6.7610    5.5064   11.3925  90.0000  97.0720  90.0000   4 1

