# MOL2 file generated by ConQuest
# Please check atom types

@<TRIPOS>MOLECULE
ILOFOG
    22    22     1
SMALL
NO_CHARGES
****
Generated from CSD

@<TRIPOS>ATOM
      1 N1         6.8206    0.3345    1.0587 N.2       1 RES1    0.0000
      2 N2         4.6413   -1.2174    0.4950 N.3       1 RES1    0.0000
      3 O1         9.4874    0.3035    0.6297 O.2       1 RES1    0.0000
      4 O2         9.7763    1.8532    2.1057 O.2       1 RES1    0.0000
      5 O3         5.1826   -2.1779    2.4016 O.2       1 RES1    0.0000
      6 N3         7.1468    1.8730    2.7090 N.2       1 RES1    0.0000
      7 O4         3.7008    2.0113    3.0471 O.2       1 RES1    0.0000
      8 N4         5.6458    0.6528    1.6388 N.pl3     1 RES1    0.0000
      9 N5         9.0842    1.0868    1.4694 N.pl3     1 RES1    0.0000
     10 N6         4.8418    2.1623    3.4264 N.pl3     1 RES1    0.0000
     11 O5         4.9599   -3.4009    0.6033 O.2       1 RES1    0.0000
     12 N7         4.9363   -2.3289    1.2082 N.pl3     1 RES1    0.0000
     13 O6         5.2131    2.7601    4.4181 O.2       1 RES1    0.0000
     14 C1         7.6497    1.1059    1.7396 C.2       1 RES1    0.0000
     15 C2         4.3747   -0.0191    1.2306 C.3       1 RES1    0.0000
     16 C3         5.8759    1.5681    2.6016 C.2       1 RES1    0.0000
     17 C4         4.3076   -1.3747   -0.9049 C.3       1 RES1    0.0000
     18 H1         3.9431    0.5293    0.5950 H         1 RES1    0.0000
     19 H2         4.9538   -1.8913   -1.3140 H         1 RES1    0.0000
     20 H3         3.9562   -0.1623    2.1239 H         1 RES1    0.0000
     21 H4         4.3485   -0.4869   -1.2396 H         1 RES1    0.0000
     22 H5         3.4197   -1.8278   -1.0000 H         1 RES1    0.0000
@<TRIPOS>BOND
     1    1    8 1
     2    2   12 1
     3    3    9 2
     4    4    9 2
     5    5   12 2
     6    6   14 1
     7    7   10 2
     8    8   15 1
     9    9   14 1
    10   10   13 2
    11   11   12 2
    12   14    1 2
    13   15    2 1
    14   16    6 2
    15   17    2 1
    16   18   15 1
    17   19   17 1
    18   20   15 1
    19   21   17 1
    20   22   17 1
    21    8   16 1
    22   10   16 1
@<TRIPOS>SUBSTRUCTURE
     1 RES1 1

@<TRIPOS>CRYSIN
  15.8310    7.0572   11.1330  90.0000 132.0700  90.0000   9 1

