# MOL2 file generated by ConQuest
# Please check atom types

@<TRIPOS>MOLECULE
ILOGEX
    23    23     1
SMALL
NO_CHARGES
****
Generated from CSD

@<TRIPOS>ATOM
      1 O1         1.1562    0.9941    0.1977 O.2       1 RES1    0.0000
      2 O2         0.0425    2.3429    1.4943 O.2       1 RES1    0.0000
      3 O3         2.8393    0.2429    7.5119 O.2       1 RES1    0.0000
      4 O4         1.3136    1.2395    6.3081 O.2       1 RES1    0.0000
      5 N1         0.4181   -0.7088    4.2136 N.pl3     1 RES1    0.0000
      6 N2         1.3519   -0.9754    6.4206 N.3       1 RES1    0.0000
      7 N3         1.1976   -0.9143    2.1237 N.2       1 RES1    0.0000
      8 N4         1.8562    0.2364    6.7712 N.pl3     1 RES1    0.0000
      9 O5         0.9264   -3.4364    4.4240 O.2       1 RES1    0.0000
     10 N5         0.6163    1.2807    1.2578 N.pl3     1 RES1    0.0000
     11 O6         2.3009   -3.3168    2.7867 O.2       1 RES1    0.0000
     12 N6         1.4686   -2.8623    3.5399 N.pl3     1 RES1    0.0000
     13 C1         0.1477   -0.9713    5.6503 C.3       1 RES1    0.0000
     14 C2         0.6496    0.3087    2.3248 C.2       1 RES1    0.0000
     15 C3         0.1752    0.4756    3.5912 C.2       1 RES1    0.0000
     16 C4         1.9162   -2.1497    7.0794 C.3       1 RES1    0.0000
     17 C5         1.0393   -1.4851    3.2792 C.2       1 RES1    0.0000
     18 H1         1.4031   -2.9548    6.7537 H         1 RES1    0.0000
     19 H2        -0.4609   -0.2642    5.9045 H         1 RES1    0.0000
     20 H3        -0.2639   -1.8702    5.7370 H         1 RES1    0.0000
     21 H4        -0.2113    1.2306    4.0598 H         1 RES1    0.0000
     22 H5         1.8647   -2.0371    8.0288 H         1 RES1    0.0000
     23 H6         2.8771   -2.2874    6.7702 H         1 RES1    0.0000
@<TRIPOS>BOND
     1    1   10 2
     2    2   10 2
     3    3    8 2
     4    4    8 2
     5    5   13 1
     6    6    8 1
     7    7   14 1
     8    9   12 2
     9   10   14 1
    10   11   12 2
    11   12   17 1
    12   13    6 1
    13   14   15 2
    14   15    5 1
    15   16    6 1
    16   17    5 1
    17   18   16 1
    18   19   13 1
    19   20   13 1
    20   21   15 1
    21   22   16 1
    22   23   16 1
    23    7   17 2
@<TRIPOS>SUBSTRUCTURE
     1 RES1 1

@<TRIPOS>CRYSIN
  11.4913    6.9525   12.8652  90.0000 113.5370  90.0000  14 1

