# MOL2 file generated by ConQuest
# Please check atom types

@<TRIPOS>MOLECULE
ILOHIC
    25    25     1
SMALL
NO_CHARGES
****
Generated from CSD

@<TRIPOS>ATOM
      1 O1         2.1692   -2.7288    5.4156 O.2       1 RES1    0.0000
      2 O2         0.3223   -1.6397    5.0356 O.2       1 RES1    0.0000
      3 O3         1.7648    2.6390    2.0271 O.2       1 RES1    0.0000
      4 O4         3.9144    2.4935    1.7497 O.2       1 RES1    0.0000
      5 O5         7.0120   -1.9179    0.9181 O.2       1 RES1    0.0000
      6 O6         6.4005   -2.0832    3.0034 O.2       1 RES1    0.0000
      7 N1         3.9297    0.1439    3.3081 N.3       1 RES1    0.0000
      8 N2         3.5769   -0.8955    4.0514 N.2       1 RES1    0.0000
      9 N3         1.5464   -1.7887    4.9367 N.pl3     1 RES1    0.0000
     10 N4         0.4028    0.6918    3.4475 N.3       1 RES1    0.0000
     11 N5         2.8563    2.0703    2.2046 N.pl3     1 RES1    0.0000
     12 N6         5.8179   -0.2895    1.8173 N.3       1 RES1    0.0000
     13 N7         6.4457   -1.4896    1.9241 N.pl3     1 RES1    0.0000
     14 C1         2.2539   -0.7990    4.1858 C.2       1 RES1    0.0000
     15 C2         1.6926    0.3132    3.5323 C.2       1 RES1    0.0000
     16 C3         2.8274    0.8966    2.9718 C.2       1 RES1    0.0000
     17 C4         5.3751    0.3363    3.0381 C.3       1 RES1    0.0000
     18 H1         5.5648    1.3068    2.9885 H         1 RES1    0.0000
     19 H2         5.8945   -0.0339    3.7954 H         1 RES1    0.0000
     20 C5         6.0467    0.4542    0.5799 C.3       1 RES1    0.0000
     21 H3         5.5168    1.2792    0.5920 H         1 RES1    0.0000
     22 H4         5.7783   -0.0948   -0.1864 H         1 RES1    0.0000
     23 H5         6.9975    0.6782    0.5041 H         1 RES1    0.0000
     24 H6        -0.1464    0.2991    4.0136 H         1 RES1    0.0000
     25 H7         0.2429    1.4727    3.1134 H         1 RES1    0.0000
@<TRIPOS>BOND
     1    1    9 2
     2    2    9 2
     3    3   11 2
     4    4   11 2
     5    5   13 2
     6    6   13 2
     7    7    8 1
     8    8   14 2
     9    9   14 1
    10   10   15 1
    11   11   16 1
    12   12   13 1
    13   14   15 1
    14   15   16 2
    15   16    7 1
    16   17    7 1
    17   18   17 1
    18   19   17 1
    19   20   12 1
    20   21   20 1
    21   22   20 1
    22   23   20 1
    23   24   10 1
    24   25   10 1
    25   12   17 1
@<TRIPOS>SUBSTRUCTURE
     1 RES1 1

@<TRIPOS>CRYSIN
  15.9508    5.6426   10.6832  90.0000  97.5790  90.0000  14 1

