# MOL2 file generated by ConQuest
# Please check atom types

@<TRIPOS>MOLECULE
IMEXUV
    63    67     1
SMALL
NO_CHARGES
****
Generated from CSD

@<TRIPOS>ATOM
      1 O1         4.9610   20.1593    0.7456 O.3       1 RES1    0.0000
      2 O2         8.4886   18.9663    2.4179 O.2       1 RES1    0.0000
      3 O3         3.9026   16.0487    1.5772 O.2       1 RES1    0.0000
      4 O4         2.5477   20.9980    1.7876 O.2       1 RES1    0.0000
      5 O5         2.3799   22.2651    0.0649 O.2       1 RES1    0.0000
      6 N1         6.8813   21.0092    1.6160 N.3       1 RES1    0.0000
      7 H1         7.6454   20.7942    1.9955 H         1 RES1    0.0000
      8 N2         2.4146   21.1579    0.5999 N.pl3     1 RES1    0.0000
      9 C1         6.1498   19.9503    1.3332 C.2       1 RES1    0.0000
     10 C2         6.3659   18.5964    1.5438 C.2       1 RES1    0.0000
     11 C3         5.1877   17.9366    1.0320 C.2       1 RES1    0.0000
     12 C4         4.3701   18.9001    0.5693 C.2       1 RES1    0.0000
     13 C5         6.3951   22.3755    1.5854 C.3       1 RES1    0.0000
     14 H2         5.7968   22.4736    0.7909 H         1 RES1    0.0000
     15 C6         5.5914   22.7151    2.8243 C.3       1 RES1    0.0000
     16 H3         6.1511   22.5756    3.6287 H         1 RES1    0.0000
     17 H4         4.8105   22.1078    2.8855 H         1 RES1    0.0000
     18 C7         5.1089   24.1574    2.7876 C.3       1 RES1    0.0000
     19 H5         4.6248   24.3694    3.6250 H         1 RES1    0.0000
     20 H6         4.4845   24.2823    2.0298 H         1 RES1    0.0000
     21 C8         6.2982   25.0986    2.6321 C.3       1 RES1    0.0000
     22 H7         5.9746   26.0313    2.5685 H         1 RES1    0.0000
     23 H8         6.8809   25.0287    3.4291 H         1 RES1    0.0000
     24 C9         7.0860   24.7577    1.4067 C.3       1 RES1    0.0000
     25 H9         7.8702   25.3596    1.3479 H         1 RES1    0.0000
     26 H10        6.5235   24.9117    0.6060 H         1 RES1    0.0000
     27 C10        7.5625   23.3145    1.4116 C.3       1 RES1    0.0000
     28 H11        8.0237   23.1155    0.5583 H         1 RES1    0.0000
     29 H12        8.2081   23.1801    2.1498 H         1 RES1    0.0000
     30 C11        7.5726   18.1545    2.1975 C.2       1 RES1    0.0000
     31 C12        7.7467   16.7453    2.6517 C.ar      1 RES1    0.0000
     32 C13        8.9544   16.1077    2.3775 C.ar      1 RES1    0.0000
     33 H13        9.6210   16.5498    1.8657 H         1 RES1    0.0000
     34 C14        9.1774   14.8383    2.8513 C.ar      1 RES1    0.0000
     35 H14        9.9892   14.3902    2.6407 H         1 RES1    0.0000
     36 C15        8.2300   14.2109    3.6287 C.ar      1 RES1    0.0000
     37 H15        8.3965   13.3378    3.9629 H         1 RES1    0.0000
     38 C16        7.0394   14.8438    3.9261 C.ar      1 RES1    0.0000
     39 H16        6.3925   14.4126    4.4709 H         1 RES1    0.0000
     40 C17        6.7943   16.1057    3.4267 C.ar      1 RES1    0.0000
     41 H17        5.9692   16.5373    3.6152 H         1 RES1    0.0000
     42 C18        4.8766   16.4736    0.9978 C.2       1 RES1    0.0000
     43 C19        5.7588   15.5690    0.2155 C.ar      1 RES1    0.0000
     44 C20        6.6707   16.0462   -0.7125 C.ar      1 RES1    0.0000
     45 H18        6.7642   16.9802   -0.8643 H         1 RES1    0.0000
     46 C21        7.4526   15.1239   -1.4226 C.ar      1 RES1    0.0000
     47 H19        8.0760   15.4352   -2.0690 H         1 RES1    0.0000
     48 C22        7.3260   13.7869   -1.1949 C.ar      1 RES1    0.0000
     49 H20        7.8783   13.1761   -1.6674 H         1 RES1    0.0000
     50 C23        6.4171   13.3187   -0.2987 C.ar      1 RES1    0.0000
     51 H21        6.3236   12.3850   -0.1567 H         1 RES1    0.0000
     52 C24        5.6388   14.2054    0.3979 C.ar      1 RES1    0.0000
     53 H22        5.0021   13.8752    1.0198 H         1 RES1    0.0000
     54 C25        3.1220   18.9073   -0.2020 C.ar      1 RES1    0.0000
     55 C26        2.2368   19.9789   -0.2400 C.ar      1 RES1    0.0000
     56 C27        1.1331   20.0095   -1.0822 C.ar      1 RES1    0.0000
     57 H23        0.5593   20.7668   -1.0945 H         1 RES1    0.0000
     58 C28        0.8813   18.9365   -1.8927 C.ar      1 RES1    0.0000
     59 H24        0.1197   18.9332   -2.4607 H         1 RES1    0.0000
     60 C29        1.7387   17.8649   -1.8780 C.ar      1 RES1    0.0000
     61 H25        1.5645   17.1195   -2.4399 H         1 RES1    0.0000
     62 C30        2.8462   17.8522   -1.0651 C.ar      1 RES1    0.0000
     63 H26        3.4357   17.1071   -1.0932 H         1 RES1    0.0000
@<TRIPOS>BOND
     1    1    9 1
     2    2   30 2
     3    3   42 2
     4    4    8 2
     5    5    8 2
     6    6    7 1
     7    8   55 1
     8    9    6 1
     9   10    9 2
    10   11   10 1
    11   12    1 1
    12   13    6 1
    13   14   13 1
    14   15   13 1
    15   16   15 1
    16   17   15 1
    17   18   15 1
    18   19   18 1
    19   20   18 1
    20   21   18 1
    21   22   21 1
    22   23   21 1
    23   24   21 1
    24   25   24 1
    25   26   24 1
    26   27   13 1
    27   28   27 1
    28   29   27 1
    29   30   10 1
    30   31   30 1
    31   32   31 ar
    32   33   32 1
    33   34   32 ar
    34   35   34 1
    35   36   34 ar
    36   37   36 1
    37   38   36 ar
    38   39   38 1
    39   40   31 ar
    40   41   40 1
    41   42   11 1
    42   43   42 1
    43   44   43 ar
    44   45   44 1
    45   46   44 ar
    46   47   46 1
    47   48   46 ar
    48   49   48 1
    49   50   48 ar
    50   51   50 1
    51   52   43 ar
    52   53   52 1
    53   54   12 1
    54   55   54 ar
    55   56   55 ar
    56   57   56 1
    57   58   56 ar
    58   59   58 1
    59   60   58 ar
    60   61   60 1
    61   62   54 ar
    62   63   62 1
    63   11   12 2
    64   24   27 1
    65   38   40 ar
    66   50   52 ar
    67   60   62 ar
@<TRIPOS>SUBSTRUCTURE
     1 RES1 1

@<TRIPOS>CRYSIN
   8.2431   24.8794   12.8842  90.0000 108.1600  90.0000 231 1

