# MOL2 file generated by ConQuest
# Please check atom types

@<TRIPOS>MOLECULE
IMEYEG
    59    62     1
SMALL
NO_CHARGES
****
Generated from CSD

@<TRIPOS>ATOM
      1 O1         2.9357   18.9652    7.2262 O.3       1 RES1    0.0000
      2 O2         1.7877   14.8640    7.8219 O.2       1 RES1    0.0000
      3 O3         6.3795   17.6863    9.0964 O.2       1 RES1    0.0000
      4 O4         0.5021   19.5294    8.3629 O.2       1 RES1    0.0000
      5 O5         0.0763   20.9370    6.7723 O.2       1 RES1    0.0000
      6 N1         4.8468   19.7781    8.2607 N.pl3     1 RES1    0.0000
      7 H1         5.6879   19.6030    8.4525 H         1 RES1    0.0000
      8 N2         0.2627   19.7983    7.1944 N.pl3     1 RES1    0.0000
      9 C1         2.3671   17.7075    6.9650 C.2       1 RES1    0.0000
     10 C2         3.1749   16.7255    7.4349 C.2       1 RES1    0.0000
     11 C3         4.3268   17.3731    8.0360 C.2       1 RES1    0.0000
     12 C4         4.1036   18.7416    7.8692 C.2       1 RES1    0.0000
     13 C5         1.1456   17.7049    6.1685 C.ar      1 RES1    0.0000
     14 C6         0.1568   18.6922    6.2274 C.ar      1 RES1    0.0000
     15 C7        -0.9589   18.7023    5.4065 C.ar      1 RES1    0.0000
     16 H2        -1.5958   19.4030    5.4680 H         1 RES1    0.0000
     17 C8        -1.1306   17.6705    4.4924 C.ar      1 RES1    0.0000
     18 H3        -1.9036   17.6404    3.9408 H         1 RES1    0.0000
     19 C9        -0.1674   16.6926    4.3969 C.ar      1 RES1    0.0000
     20 H4        -0.2736   15.9926    3.7627 H         1 RES1    0.0000
     21 C10        0.9499   16.7101    5.2058 C.ar      1 RES1    0.0000
     22 H5         1.6044   16.0271    5.1056 H         1 RES1    0.0000
     23 C11        2.8328   15.2646    7.3445 C.2       1 RES1    0.0000
     24 C12        3.7648   14.3451    6.6386 C.ar      1 RES1    0.0000
     25 C13        3.5940   12.9678    6.7945 C.ar      1 RES1    0.0000
     26 H6         2.8892   12.6374    7.3385 H         1 RES1    0.0000
     27 C14        4.4436   12.0893    6.1618 C.ar      1 RES1    0.0000
     28 H7         4.3249   11.1528    6.2704 H         1 RES1    0.0000
     29 C15        5.4701   12.5670    5.3680 C.ar      1 RES1    0.0000
     30 H8         6.0595   11.9571    4.9415 H         1 RES1    0.0000
     31 C16        5.6433   13.9280    5.1915 C.ar      1 RES1    0.0000
     32 H9         6.3434   14.2506    4.6376 H         1 RES1    0.0000
     33 C17        4.7919   14.8194    5.8250 C.ar      1 RES1    0.0000
     34 H10        4.9089   15.7536    5.7045 H         1 RES1    0.0000
     35 C18        5.4721   16.8983    8.7704 C.2       1 RES1    0.0000
     36 C19        5.5958   15.4645    9.1704 C.ar      1 RES1    0.0000
     37 C20        4.5554   14.8013    9.8136 C.ar      1 RES1    0.0000
     38 H11        3.7246   15.2411    9.9542 H         1 RES1    0.0000
     39 C21        4.7344   13.5010   10.2484 C.ar      1 RES1    0.0000
     40 H12        4.0318   13.0533   10.7058 H         1 RES1    0.0000
     41 C22        5.9353   12.8497   10.0183 C.ar      1 RES1    0.0000
     42 H13        6.0506   11.9525   10.3078 H         1 RES1    0.0000
     43 C23        6.9686   13.5031    9.3683 C.ar      1 RES1    0.0000
     44 H14        7.7881   13.0510    9.2065 H         1 RES1    0.0000
     45 C24        6.8087   14.8151    8.9526 C.ar      1 RES1    0.0000
     46 H15        7.5229   15.2687    8.5211 H         1 RES1    0.0000
     47 C25        4.4225   21.1933    8.4109 C.3       1 RES1    0.0000
     48 C26        5.6439   21.9445    8.9153 C.3       1 RES1    0.0000
     49 H16        5.9448   21.5495    9.7597 H         1 RES1    0.0000
     50 H17        5.4118   22.8847    9.0590 H         1 RES1    0.0000
     51 H18        6.3622   21.8827    8.2515 H         1 RES1    0.0000
     52 C27        3.9820   21.7575    7.0721 C.3       1 RES1    0.0000
     53 H19        4.6764   21.5885    6.4013 H         1 RES1    0.0000
     54 H20        3.8376   22.7238    7.1567 H         1 RES1    0.0000
     55 H21        3.1471   21.3266    6.7943 H         1 RES1    0.0000
     56 C28        3.3126   21.2850    9.4497 C.3       1 RES1    0.0000
     57 H22        2.5190   20.8118    9.1226 H         1 RES1    0.0000
     58 H23        3.0889   22.2251    9.6071 H         1 RES1    0.0000
     59 H24        3.6145   20.8761   10.2874 H         1 RES1    0.0000
@<TRIPOS>BOND
     1    1    9 1
     2    2   23 2
     3    3   35 2
     4    4    8 2
     5    5    8 2
     6    6    7 1
     7    8   14 1
     8    9   10 2
     9   10   11 1
    10   11   12 2
    11   12    1 1
    12   13    9 1
    13   14   13 ar
    14   15   14 ar
    15   16   15 1
    16   17   15 ar
    17   18   17 1
    18   19   17 ar
    19   20   19 1
    20   21   13 ar
    21   22   21 1
    22   23   10 1
    23   24   23 1
    24   25   24 ar
    25   26   25 1
    26   27   25 ar
    27   28   27 1
    28   29   27 ar
    29   30   29 1
    30   31   29 ar
    31   32   31 1
    32   33   24 ar
    33   34   33 1
    34   35   11 1
    35   36   35 1
    36   37   36 ar
    37   38   37 1
    38   39   37 ar
    39   40   39 1
    40   41   39 ar
    41   42   41 1
    42   43   41 ar
    43   44   43 1
    44   45   36 ar
    45   46   45 1
    46   47    6 1
    47   48   47 1
    48   49   48 1
    49   50   48 1
    50   51   48 1
    51   52   47 1
    52   53   52 1
    53   54   52 1
    54   55   52 1
    55   56   47 1
    56   57   56 1
    57   58   56 1
    58   59   56 1
    59    6   12 1
    60   19   21 ar
    61   31   33 ar
    62   43   45 ar
@<TRIPOS>SUBSTRUCTURE
     1 RES1 1

@<TRIPOS>CRYSIN
   8.0688   22.9812   13.1638  90.0000 104.9840  90.0000 231 1

