# MOL2 file generated by ConQuest
# Please check atom types

@<TRIPOS>MOLECULE
IMICUE
    20    20     1
SMALL
NO_CHARGES
****
Generated from CSD

@<TRIPOS>ATOM
      1 O1         2.2419    5.2096    6.1538 O.2       1 RES1    0.0000
      2 O2         1.6465    6.8136    4.8269 O.2       1 RES1    0.0000
      3 O3         3.8884    3.1182    0.4245 O.3       1 RES1    0.0000
      4 N1         3.4451    3.0602    5.2006 N.3       1 RES1    0.0000
      5 N2         2.1607    5.6993    5.0112 N.pl3     1 RES1    0.0000
      6 C1         3.2528    3.6975    4.0318 C.ar      1 RES1    0.0000
      7 C2         2.6554    4.9739    3.8972 C.ar      1 RES1    0.0000
      8 C3         2.5198    5.5761    2.6296 C.ar      1 RES1    0.0000
      9 H1         2.1226    6.4368    2.5638 H         1 RES1    0.0000
     10 C4         2.9446    4.9522    1.4990 C.ar      1 RES1    0.0000
     11 H2         2.8538    5.3715    0.6512 H         1 RES1    0.0000
     12 C5         3.5237    3.6685    1.6097 C.ar      1 RES1    0.0000
     13 C6         3.6816    3.0608    2.8364 C.ar      1 RES1    0.0000
     14 H3         4.0840    2.2018    2.8835 H         1 RES1    0.0000
     15 C7         4.4197    1.7856    0.4345 C.3       1 RES1    0.0000
     16 H4         4.6231    1.5083   -0.4831 H         1 RES1    0.0000
     17 H5         3.7599    1.1738    0.8224 H         1 RES1    0.0000
     18 H6         5.2394    1.7644    0.9716 H         1 RES1    0.0000
     19 H7         3.0945    3.3844    5.9381 H         1 RES1    0.0000
     20 H8         3.7617    2.2326    5.1904 H         1 RES1    0.0000
@<TRIPOS>BOND
     1    1    5 2
     2    2    5 2
     3    3   12 1
     4    4    6 1
     5    5    7 1
     6    6    7 ar
     7    7    8 ar
     8    8    9 1
     9   10    8 ar
    10   11   10 1
    11   12   10 ar
    12   13    6 ar
    13   14   13 1
    14   15    3 1
    15   16   15 1
    16   17   15 1
    17   18   15 1
    18   19    4 1
    19   20    4 1
    20   12   13 ar
@<TRIPOS>SUBSTRUCTURE
     1 RES1 1

@<TRIPOS>CRYSIN
   6.9923    7.1510    7.8961  92.2730  94.0570 113.4260   2 1

