# MOL2 file generated by ConQuest
# Please check atom types

@<TRIPOS>MOLECULE
IMIDUF
    38    41     1
SMALL
NO_CHARGES
****
Generated from CSD

@<TRIPOS>ATOM
      1 O1         6.3267    2.7113    3.1185 O.2       1 RES1    0.0000
      2 O2         5.4941    4.4542    4.0724 O.2       1 RES1    0.0000
      3 N1         6.4406    3.7962    3.6712 N.pl3     1 RES1    0.0000
      4 C1         7.7979    4.3445    3.8797 C.ar      1 RES1    0.0000
      5 C2         7.9495    5.5339    4.5426 C.ar      1 RES1    0.0000
      6 H1         7.1973    6.0068    4.8804 H         1 RES1    0.0000
      7 C3         9.2358    6.0248    4.7043 C.ar      1 RES1    0.0000
      8 H2         9.3771    6.8400    5.1722 H         1 RES1    0.0000
      9 C4        10.3208    5.3257    4.1818 C.ar      1 RES1    0.0000
     10 H3        11.1969    5.6773    4.2873 H         1 RES1    0.0000
     11 C5        10.1453    4.1258    3.5118 C.ar      1 RES1    0.0000
     12 C6         8.8630    3.6117    3.3659 C.ar      1 RES1    0.0000
     13 H4         8.7160    2.7821    2.9266 H         1 RES1    0.0000
     14 C7        11.2945    3.3855    2.9124 C.ar      1 RES1    0.0000
     15 N2        12.4976    3.9651    2.9996 N.ar      1 RES1    0.0000
     16 C8        13.5217    3.3199    2.4184 C.ar      1 RES1    0.0000
     17 C9        13.3188    2.1206    1.7428 C.ar      1 RES1    0.0000
     18 H5        14.0314    1.6745    1.3012 H         1 RES1    0.0000
     19 C10       12.0407    1.6089    1.7428 C.ar      1 RES1    0.0000
     20 H6        11.8843    0.7780    1.3083 H         1 RES1    0.0000
     21 N3        11.0123    2.2233    2.3208 N.ar      1 RES1    0.0000
     22 C11       14.8741    3.9535    2.5516 C.ar      1 RES1    0.0000
     23 C12       14.9995    5.2102    3.2057 C.ar      1 RES1    0.0000
     24 H7        14.2245    5.6448    3.5419 H         1 RES1    0.0000
     25 C13       16.2184    5.7968    3.3540 C.ar      1 RES1    0.0000
     26 H8        16.2799    6.6392    3.7885 H         1 RES1    0.0000
     27 C14       17.3950    5.1777    2.8759 C.ar      1 RES1    0.0000
     28 C15       18.6885    5.7689    3.0075 C.ar      1 RES1    0.0000
     29 H9        18.7805    6.6125    3.4341 H         1 RES1    0.0000
     30 C16       19.7876    5.1295    2.5238 C.ar      1 RES1    0.0000
     31 H10       20.6428    5.5386    2.6063 H         1 RES1    0.0000
     32 C17       19.6789    3.8757    1.9054 C.ar      1 RES1    0.0000
     33 H11       20.4595    3.4412    1.5811 H         1 RES1    0.0000
     34 C18       18.4610    3.2746    1.7658 C.ar      1 RES1    0.0000
     35 H12       18.3975    2.4247    1.3464 H         1 RES1    0.0000
     36 C19       17.2906    3.9123    2.2423 C.ar      1 RES1    0.0000
     37 C20       16.0089    3.3298    2.0861 C.ar      1 RES1    0.0000
     38 H13       15.9297    2.4891    1.6508 H         1 RES1    0.0000
@<TRIPOS>BOND
     1    1    3 2
     2    2    3 2
     3    3    4 1
     4    4    5 ar
     5    5    6 1
     6    7    5 ar
     7    8    7 1
     8    9    7 ar
     9   10    9 1
    10   11    9 ar
    11   12    4 ar
    12   13   12 1
    13   14   11 1
    14   15   14 ar
    15   16   15 ar
    16   17   16 ar
    17   18   17 1
    18   19   17 ar
    19   20   19 1
    20   21   14 ar
    21   22   16 1
    22   23   22 ar
    23   24   23 1
    24   25   23 ar
    25   26   25 1
    26   27   25 ar
    27   28   27 ar
    28   29   28 1
    29   30   28 ar
    30   31   30 1
    31   32   30 ar
    32   33   32 1
    33   34   32 ar
    34   35   34 1
    35   36   27 ar
    36   37   22 ar
    37   38   37 1
    38   11   12 ar
    39   19   21 ar
    40   34   36 ar
    41   36   37 ar
@<TRIPOS>SUBSTRUCTURE
     1 RES1 1

@<TRIPOS>CRYSIN
  32.7300    5.8020    7.9291  90.0000  90.0000  90.0000  29 1

