# MOL2 file generated by ConQuest
# Please check atom types

@<TRIPOS>MOLECULE
IMIPIF
    28    28     1
SMALL
USER_CHARGES
****
Generated from CSD

@<TRIPOS>ATOM
      1 O1         5.9860    6.2692    1.5521 O.2       1 RES1   -1.0000
      2 O2         3.3203    1.9110    6.5049 O.2       1 RES1    0.0000
      3 N1         5.9620    5.4943    2.5821 N.pl3     1 RES1    1.0000
      4 C1         4.8456    4.9605    3.0697 C.2       1 RES1    0.0000
      5 C2         3.5483    5.3737    2.4417 C.3       1 RES1    0.0000
      6 H1         3.6638    6.2636    2.1139 H         1 RES1    0.0000
      7 H2         2.8927    5.3982    3.1597 H         1 RES1    0.0000
      8 C3         3.1062    4.4416    1.3111 C.3       1 RES1    0.0000
      9 H3         2.2669    4.8104    0.9033 H         1 RES1    0.0000
     10 H4         2.9686    3.5349    1.6319 H         1 RES1    0.0000
     11 H5         3.7956    4.4436    0.6034 H         1 RES1    0.0000
     12 C4         4.9513    3.9789    4.1181 C.2       1 RES1    0.0000
     13 H6         5.8481    3.7125    4.3877 H         1 RES1    0.0000
     14 C5         3.9090    3.4009    4.7559 C.2       1 RES1    0.0000
     15 H7         2.9729    3.5897    4.5414 H         1 RES1    0.0000
     16 C6         4.1777    2.4402    5.8170 C.2       1 RES1    0.0000
     17 H8         5.1493    2.2010    5.9453 H         1 RES1    0.0000
     18 C7         7.2601    5.2967    3.2118 C.ar      1 RES1    0.0000
     19 C8         7.4826    5.8369    4.4715 C.ar      1 RES1    0.0000
     20 H9         6.7446    6.2777    4.9503 H         1 RES1    0.0000
     21 C9         8.7483    5.7012    5.0376 C.ar      1 RES1    0.0000
     22 H10        8.9324    6.0559    5.9093 H         1 RES1    0.0000
     23 C10        9.7512    5.0363    4.3405 C.ar      1 RES1    0.0000
     24 H11       10.6572    4.9156    4.7805 H         1 RES1    0.0000
     25 C11        9.5068    4.5062    3.0771 C.ar      1 RES1    0.0000
     26 H12       10.2116    4.0361    2.5898 H         1 RES1    0.0000
     27 C12        8.2499    4.6389    2.4995 C.ar      1 RES1    0.0000
     28 H13        8.0612    4.2747    1.6183 H         1 RES1    0.0000
@<TRIPOS>BOND
     1    1    3 1
     2    2   16 2
     3    3    4 2
     4    4    5 1
     5    5    6 1
     6    7    5 1
     7    8    5 1
     8    9    8 1
     9   10    8 1
    10   11    8 1
    11   12    4 1
    12   13   12 1
    13   14   12 2
    14   15   14 1
    15   16   14 1
    16   17   16 1
    17   18    3 1
    18   19   18 ar
    19   20   19 1
    20   21   19 ar
    21   22   21 1
    22   23   21 ar
    23   24   23 1
    24   25   23 ar
    25   26   25 1
    26   27   18 ar
    27   28   27 1
    28   25   27 ar
@<TRIPOS>SUBSTRUCTURE
     1 RES1 1

@<TRIPOS>CRYSIN
   9.8079    8.8394   12.5670  90.0000  99.5960  90.0000 231 1

