# MOL2 file generated by ConQuest
# Please check atom types

@<TRIPOS>MOLECULE
IMISAY
    40    39     1
SMALL
USER_CHARGES
****
Generated from CSD

@<TRIPOS>ATOM
      1 O1         4.3540    2.5411    1.7755 O.2       1 RES1    0.0000
      2 N1         3.8736    1.4559    1.4759 N.pl3     1 RES1    0.0000
      3 O2         4.4853    0.3975    1.4751 O.2       1 RES1    0.0000
      4 O3         2.8189   -2.5711   -1.1777 O.3       1 RES1    0.0000
      5 O4         1.7172    5.6251    2.2120 O.3       1 RES1    0.0000
      6 N2         2.5592    1.4204    1.1339 N.3       1 RES1    0.0000
      7 N3         1.6361   -4.1657   -0.3627 N.pl3     1 RES1    1.0000
      8 N4         0.1358    7.0911    2.3331 N.pl3     1 RES1    1.0000
      9 N5         2.5128   -0.2823   -0.6028 N.3       1 RES1    0.0000
     10 N6         2.1030   -3.0311   -0.0874 N.2       1 RES1    0.0000
     11 N7         1.5179    3.2638    2.3159 N.3       1 RES1    0.0000
     12 O5         0.4628    7.5194    1.2106 O.2       1 RES1   -1.0000
     13 N8         0.6647    6.1357    2.9632 N.2       1 RES1    0.0000
     14 N9         0.4668    2.7154    3.0004 N.pl3     1 RES1    0.0000
     15 O6        -0.0155    1.7056    2.5252 O.2       1 RES1    0.0000
     16 C1         2.0239    0.1450    0.6888 C.3       1 RES1    0.0000
     17 N10        2.0482    0.3601   -1.7074 N.pl3     1 RES1    0.0000
     18 C2         3.4533   -1.3510   -0.8021 C.3       1 RES1    0.0000
     19 O7         0.1068    3.2510    4.0319 O.2       1 RES1    0.0000
     20 C3         2.1732    4.4260    2.8284 C.3       1 RES1    0.0000
     21 O8         1.1877    1.2221   -1.5189 O.2       1 RES1    0.0000
     22 C4         1.8552    2.6753    1.0365 C.3       1 RES1    0.0000
     23 O9         1.8109   -4.7876   -1.4300 O.2       1 RES1   -1.0000
     24 O10        2.5090    0.0350   -2.7883 O.2       1 RES1    0.0000
     25 C5        -1.0308    7.6944    3.0098 C.3       1 RES1    0.0000
     26 C6         0.8440   -4.7979    0.6888 C.3       1 RES1    0.0000
     27 H1         1.0322    0.3330    0.6379 H         1 RES1    0.0000
     28 H2         2.2832   -0.5245    1.3117 H         1 RES1    0.0000
     29 H3         4.0308   -1.1277   -1.4837 H         1 RES1    0.0000
     30 H4         3.9675   -1.4312   -0.0072 H         1 RES1    0.0000
     31 H5         1.1204    2.4921    0.5734 H         1 RES1    0.0000
     32 H6         2.3524    3.2445    0.7024 H         1 RES1    0.0000
     33 H7         2.1106    4.5018    3.7631 H         1 RES1    0.0000
     34 H8         3.0296    4.3375    2.5732 H         1 RES1    0.0000
     35 H9         0.6973   -5.6751    0.4946 H         1 RES1    0.0000
     36 H10        1.0997   -4.8678    1.3547 H         1 RES1    0.0000
     37 H11        0.3243   -4.2280    0.8888 H         1 RES1    0.0000
     38 H12       -1.4109    8.3348    2.7596 H         1 RES1    0.0000
     39 H13       -1.6429    6.9970    2.5876 H         1 RES1    0.0000
     40 H14       -1.0386    7.6671    3.7703 H         1 RES1    0.0000
@<TRIPOS>BOND
     1    1    2 2
     2    2    3 2
     3    4   10 1
     4    5   13 1
     5    6    2 1
     6    7   10 2
     7    8   12 1
     8    9   16 1
     9   11   14 1
    10   13    8 2
    11   14   15 2
    12   16    6 1
    13   17    9 1
    14   18    4 1
    15   19   14 2
    16   20    5 1
    17   21   17 2
    18   22    6 1
    19   23    7 1
    20   24   17 2
    21   25    8 1
    22   26    7 1
    23   27   16 1
    24   28   16 1
    25   29   18 1
    26   30   18 1
    27   31   22 1
    28   32   22 1
    29   33   20 1
    30   34   20 1
    31   35   26 1
    32   36   26 1
    33   37   26 1
    34   38   25 1
    35   39   25 1
    36   40   25 1
    37    9   18 1
    38   11   22 1
    39   11   20 1
@<TRIPOS>SUBSTRUCTURE
     1 RES1 1

@<TRIPOS>CRYSIN
  10.8290   11.1870    7.4120  76.5700  78.9000  65.0300   2 1

