# MOL2 file generated by ConQuest
# Please check atom types

@<TRIPOS>MOLECULE
IMOMIG
    50    50     1
SMALL
NO_CHARGES
****
Generated from CSD

@<TRIPOS>ATOM
      1 C1         1.5730    3.0637    8.0160 C.ar      1 RES1    0.0000
      2 C2         2.1711    3.1312    9.2716 C.ar      1 RES1    0.0000
      3 C3         1.5200    3.8252   10.2803 C.ar      1 RES1    0.0000
      4 C4         0.2908    4.4305   10.1066 C.ar      1 RES1    0.0000
      5 C5        -0.2742    4.3244    8.8479 C.ar      1 RES1    0.0000
      6 C6         0.3388    3.6662    7.7920 C.ar      1 RES1    0.0000
      7 C7         2.2946    2.3116    6.9370 C.2       1 RES1    0.0000
      8 N1         2.1521    3.9006   11.6088 N.pl3     1 RES1    0.0000
      9 O1         3.1996    3.2873   11.7731 O.2       1 RES1    0.0000
     10 O2         1.6005    4.5713   12.4666 O.2       1 RES1    0.0000
     11 N2        -1.5909    4.9386    8.6233 N.pl3     1 RES1    0.0000
     12 O3        -2.2074    5.3377    9.6084 O.2       1 RES1    0.0000
     13 O4        -2.0048    5.0067    7.4744 O.2       1 RES1    0.0000
     14 O5         3.3681    1.7826    7.1025 O.2       1 RES1    0.0000
     15 O6         1.6029    2.3168    5.8006 O.3       1 RES1    0.0000
     16 C8         2.1705    1.5731    4.6620 C.3       1 RES1    0.0000
     17 C9         2.9923    2.4643    3.8032 C.2       1 RES1    0.0000
     18 C10        2.6232    2.7815    2.5572 C.2       1 RES1    0.0000
     19 C11        3.3932    3.5799    1.5995 C.2       1 RES1    0.0000
     20 C12        2.9053    3.6535    0.3356 C.2       1 RES1    0.0000
     21 C13        3.4560    4.2238   -0.8931 C.2       1 RES1    0.0000
     22 C14        2.5982    4.3699   -1.9300 C.2       1 RES1    0.0000
     23 C15        2.8399    4.8766   -3.2893 C.2       1 RES1    0.0000
     24 C16        3.7662    5.7887   -3.5876 C.2       1 RES1    0.0000
     25 C17        4.0725    6.3371   -4.9571 C.3       1 RES1    0.0000
     26 C18        4.6428    4.2351    2.1261 C.3       1 RES1    0.0000
     27 C19        4.9336    4.5064   -0.9996 C.3       1 RES1    0.0000
     28 C20        1.8890    4.3205   -4.3197 C.3       1 RES1    0.0000
     29 H1         3.0509    2.6882    9.4425 H         1 RES1    0.0000
     30 H2        -0.1656    4.9193   10.8502 H         1 RES1    0.0000
     31 H3        -0.0949    3.6256    6.8929 H         1 RES1    0.0000
     32 H4         2.7448    0.8318    5.0081 H         1 RES1    0.0000
     33 H5         1.4246    1.1896    4.1175 H         1 RES1    0.0000
     34 H6         3.8461    2.8379    4.1667 H         1 RES1    0.0000
     35 H7         1.7349    2.4408    2.2491 H         1 RES1    0.0000
     36 H8         2.0015    3.2414    0.2240 H         1 RES1    0.0000
     37 H9         1.6570    4.0908   -1.7428 H         1 RES1    0.0000
     38 H10        4.3114    6.1433   -2.8282 H         1 RES1    0.0000
     39 H11        5.0931    6.3083   -5.1647 H         1 RES1    0.0000
     40 H12        3.5566    5.7799   -5.6837 H         1 RES1    0.0000
     41 H13        3.8191    7.3249   -5.1009 H         1 RES1    0.0000
     42 H14        5.0135    4.8993    1.5479 H         1 RES1    0.0000
     43 H15        4.4665    4.6671    3.0048 H         1 RES1    0.0000
     44 H16        5.3393    3.5544    2.3128 H         1 RES1    0.0000
     45 H17        5.1702    5.4277   -0.6993 H         1 RES1    0.0000
     46 H18        5.4435    3.8506   -0.4189 H         1 RES1    0.0000
     47 H19        5.2401    4.4030   -1.9595 H         1 RES1    0.0000
     48 H20        1.0077    4.7392   -4.2304 H         1 RES1    0.0000
     49 H21        1.8281    3.3062   -4.2377 H         1 RES1    0.0000
     50 H22        2.1192    4.5631   -5.2320 H         1 RES1    0.0000
@<TRIPOS>BOND
     1    1    2 ar
     2    2    3 ar
     3    3    4 ar
     4    4    5 ar
     5    5    6 ar
     6    6    1 ar
     7    7    1 1
     8    8    3 1
     9    9    8 2
    10   10    8 2
    11   11    5 1
    12   12   11 2
    13   13   11 2
    14   14    7 2
    15   15    7 1
    16   16   15 1
    17   17   16 1
    18   18   17 2
    19   19   18 1
    20   20   19 2
    21   21   20 1
    22   22   21 2
    23   23   22 1
    24   24   23 2
    25   25   24 1
    26   26   19 1
    27   27   21 1
    28   28   23 1
    29   29    2 1
    30   30    4 1
    31   31    6 1
    32   32   16 1
    33   33   16 1
    34   34   17 1
    35   35   18 1
    36   36   20 1
    37   37   22 1
    38   38   24 1
    39   39   25 1
    40   40   25 1
    41   41   25 1
    42   42   26 1
    43   43   26 1
    44   44   26 1
    45   45   27 1
    46   46   27 1
    47   47   27 1
    48   48   28 1
    49   49   28 1
    50   50   28 1
@<TRIPOS>SUBSTRUCTURE
     1 RES1 1

@<TRIPOS>CRYSIN
  13.1953    8.0054   19.1169  90.0000 107.7083  90.0000 231 1

