# MOL2 file generated by ConQuest
# Please check atom types

@<TRIPOS>MOLECULE
IMOMEC
    66    68     1
SMALL
NO_CHARGES
****
Generated from CSD

@<TRIPOS>ATOM
      1 C1         8.1480    5.9431    0.6536 C.ar      1 RES1    0.0000
      2 C2         7.2338    5.0672    0.0813 C.ar      1 RES1    0.0000
      3 C3         7.1958    4.9647   -1.2985 C.ar      1 RES1    0.0000
      4 C4         8.0131    5.7019   -2.1399 C.ar      1 RES1    0.0000
      5 C5         8.9111    6.5529   -1.5260 C.ar      1 RES1    0.0000
      6 C6         9.0047    6.6912   -0.1593 C.ar      1 RES1    0.0000
      7 C7         8.2737    6.1114    2.1287 C.2       1 RES1    0.0000
      8 O1         9.1379    6.7736    2.6495 O.2       1 RES1    0.0000
      9 O2         7.3270    5.4505    2.7944 O.3       1 RES1    0.0000
     10 C8         7.3938    5.5678    4.2661 C.3       1 RES1    0.0000
     11 C9         6.2248    4.8255    4.8158 C.2       1 RES1    0.0000
     12 C10        5.2647    5.4186    5.5185 C.2       1 RES1    0.0000
     13 C11        4.0803    4.7755    6.1043 C.2       1 RES1    0.0000
     14 C12        3.1857    5.5610    6.7277 C.2       1 RES1    0.0000
     15 C13        1.8565    5.2584    7.3969 C.3       1 RES1    0.0000
     16 C14        1.0354    4.1434    6.7850 C.2       1 RES1    0.0000
     17 C15        0.0564    3.5588    7.4870 C.2       1 RES1    0.0000
     18 C16       -0.1291    3.9127    8.9004 C.2       1 RES1    0.0000
     19 C17        0.7643    4.6085    9.5887 C.2       1 RES1    0.0000
     20 C18        2.0707    4.9979    8.9220 C.3       1 RES1    0.0000
     21 C19        3.1344    3.9462    9.2156 C.ar      1 RES1    0.0000
     22 C20        4.4159    4.3394    9.5586 C.ar      1 RES1    0.0000
     23 C21        5.4106    3.4094    9.8247 C.ar      1 RES1    0.0000
     24 C22        5.0996    2.0653    9.7128 C.ar      1 RES1    0.0000
     25 C23        3.8333    1.6306    9.3718 C.ar      1 RES1    0.0000
     26 C24        2.8515    2.5824    9.1411 C.ar      1 RES1    0.0000
     27 N1         6.2314    4.0248   -1.9062 N.pl3     1 RES1    0.0000
     28 O3         5.5313    3.3661   -1.1434 O.2       1 RES1    0.0000
     29 O4         6.1726    3.9555   -3.1252 O.2       1 RES1    0.0000
     30 N2         9.7910    7.3830   -2.3700 N.pl3     1 RES1    0.0000
     31 O5         9.5504    7.4007   -3.5713 O.2       1 RES1    0.0000
     32 O6        10.7050    7.9908   -1.8333 O.2       1 RES1    0.0000
     33 C25        3.9834    3.2846    5.9410 C.3       1 RES1    0.0000
     34 C26        0.9908    6.5356    7.2503 C.3       1 RES1    0.0000
     35 C27       -0.8684    2.5377    6.8898 C.3       1 RES1    0.0000
     36 C28        0.6212    4.9609   11.0383 C.3       1 RES1    0.0000
     37 N3         6.1412    1.0642    9.9490 N.pl3     1 RES1    0.0000
     38 O7         7.2431    1.4410   10.3276 O.2       1 RES1    0.0000
     39 O8         5.8487   -0.1185    9.7572 O.2       1 RES1    0.0000
     40 H1         6.6173    4.5240    0.6523 H         1 RES1    0.0000
     41 H2         7.9551    5.6227   -3.1345 H         1 RES1    0.0000
     42 H3         9.6729    7.3159    0.2451 H         1 RES1    0.0000
     43 H4         7.3481    6.5299    4.5360 H         1 RES1    0.0000
     44 H5         8.2453    5.1663    4.6037 H         1 RES1    0.0000
     45 H6         6.1599    3.8415    4.6492 H         1 RES1    0.0000
     46 H7         5.3582    6.4037    5.6633 H         1 RES1    0.0000
     47 H8         3.4443    6.5272    6.7567 H         1 RES1    0.0000
     48 H9         1.2255    3.8416    5.8512 H         1 RES1    0.0000
     49 H10       -0.9656    3.6163    9.3626 H         1 RES1    0.0000
     50 H11        2.4020    5.8604    9.3030 H         1 RES1    0.0000
     51 H12        4.6300    5.3150    9.6170 H         1 RES1    0.0000
     52 H13        6.3291    3.7031   10.0919 H         1 RES1    0.0000
     53 H14        3.6305    0.6545    9.2937 H         1 RES1    0.0000
     54 H15        1.9232    2.2855    8.9168 H         1 RES1    0.0000
     55 H16        3.1450    2.9556    6.3740 H         1 RES1    0.0000
     56 H17        4.7742    2.8500    6.3728 H         1 RES1    0.0000
     57 H18        3.9677    3.0559    4.9678 H         1 RES1    0.0000
     58 H19        0.0995    6.3850    7.6786 H         1 RES1    0.0000
     59 H20        1.4506    7.3031    7.6985 H         1 RES1    0.0000
     60 H21        0.8648    6.7432    6.2806 H         1 RES1    0.0000
     61 H22       -0.6310    2.3945    5.9293 H         1 RES1    0.0000
     62 H23       -1.8120    2.8649    6.9551 H         1 RES1    0.0000
     63 H24       -0.7790    1.6757    7.3880 H         1 RES1    0.0000
     64 H25       -0.2730    4.6591   11.3686 H         1 RES1    0.0000
     65 H26        0.6996    5.9518   11.1492 H         1 RES1    0.0000
     66 H27        1.3415    4.5092   11.5646 H         1 RES1    0.0000
@<TRIPOS>BOND
     1    1    2 ar
     2    2    3 ar
     3    3    4 ar
     4    4    5 ar
     5    5    6 ar
     6    6    1 ar
     7    7    1 1
     8    8    7 2
     9    9    7 1
    10   10    9 1
    11   11   10 1
    12   12   11 2
    13   13   12 1
    14   14   13 2
    15   15   14 1
    16   16   15 1
    17   17   16 2
    18   18   17 1
    19   19   18 2
    20   20   15 1
    21   21   20 1
    22   22   21 ar
    23   23   22 ar
    24   24   23 ar
    25   25   24 ar
    26   26   21 ar
    27   27    3 1
    28   28   27 2
    29   29   27 2
    30   30    5 1
    31   31   30 2
    32   32   30 2
    33   33   13 1
    34   34   15 1
    35   35   17 1
    36   36   19 1
    37   37   24 1
    38   38   37 2
    39   39   37 2
    40   40    2 1
    41   41    4 1
    42   42    6 1
    43   43   10 1
    44   44   10 1
    45   45   11 1
    46   46   12 1
    47   47   14 1
    48   48   16 1
    49   49   18 1
    50   50   20 1
    51   51   22 1
    52   52   23 1
    53   53   25 1
    54   54   26 1
    55   55   33 1
    56   56   33 1
    57   57   33 1
    58   58   34 1
    59   59   34 1
    60   60   34 1
    61   61   35 1
    62   62   35 1
    63   63   35 1
    64   64   36 1
    65   65   36 1
    66   66   36 1
    67   19   20 1
    68   25   26 ar
@<TRIPOS>SUBSTRUCTURE
     1 RES1 1

@<TRIPOS>CRYSIN
   9.5061   11.9924   12.1678  73.7785  84.7859  80.7467   2 1

