# MOL2 file generated by ConQuest
# Please check atom types

@<TRIPOS>MOLECULE
IMPYRA
    30    31     1
SMALL
NO_CHARGES
****
Generated from CSD

@<TRIPOS>ATOM
      1 O1         1.5885    5.0366    7.0439 O.3       1 RES1    0.0000
      2 O2        -0.8309    1.8077   -1.7289 O.2       1 RES1    0.0000
      3 O3        -2.0255    3.5301   -1.2279 O.2       1 RES1    0.0000
      4 N1         0.3542    2.1064    4.4304 N.2       1 RES1    0.0000
      5 N2        -1.2446    2.6323   -0.9200 N.pl3     1 RES1    0.0000
      6 C1         1.2665    3.7712    7.4703 C.2       1 RES1    0.0000
      7 C2         0.8671    2.8288    6.6199 C.2       1 RES1    0.0000
      8 C3         0.7312    3.0763    5.2075 C.2       1 RES1    0.0000
      9 C4         1.0722    4.4286    4.8165 C.2       1 RES1    0.0000
     10 C5         1.4871    5.3256    5.7096 C.2       1 RES1    0.0000
     11 C6         1.4192    3.6462    8.9451 C.3       1 RES1    0.0000
     12 C7         1.8906    6.7298    5.4359 C.3       1 RES1    0.0000
     13 C8         0.0220    2.3344    3.0888 C.ar      1 RES1    0.0000
     14 C9         0.5871    1.6047    2.1028 C.ar      1 RES1    0.0000
     15 C10        0.1950    1.6340    0.7856 C.ar      1 RES1    0.0000
     16 C11       -0.7815    2.5504    0.4619 C.ar      1 RES1    0.0000
     17 C12       -1.3578    3.3767    1.4088 C.ar      1 RES1    0.0000
     18 C13       -0.9531    3.2598    2.7174 C.ar      1 RES1    0.0000
     19 H1         0.5938    1.9887    6.9278 H         1 RES1    0.0000
     20 H2         1.0316    4.6673    3.8977 H         1 RES1    0.0000
     21 H3         1.1290    2.8166    9.3104 H         1 RES1    0.0000
     22 H4         0.8651    4.3507    9.3593 H         1 RES1    0.0000
     23 H5         2.3483    3.8312    9.2249 H         1 RES1    0.0000
     24 H6         2.7872    6.8345    5.7182 H         1 RES1    0.0000
     25 H7         1.8190    6.8913    4.4841 H         1 RES1    0.0000
     26 H8         1.3835    7.3621    5.9870 H         1 RES1    0.0000
     27 H9         1.2141    0.8929    2.3459 H         1 RES1    0.0000
     28 H10        0.5959    1.0796    0.0855 H         1 RES1    0.0000
     29 H11       -2.0196    4.0017    1.1730 H         1 RES1    0.0000
     30 H12       -1.3415    3.7988    3.4089 H         1 RES1    0.0000
@<TRIPOS>BOND
     1    1    6 1
     2    2    5 2
     3    3    5 2
     4    4    8 2
     5    5   16 1
     6    6    7 2
     7    7    8 1
     8    8    9 1
     9    9   10 2
    10   10    1 1
    11   11    6 1
    12   12   10 1
    13   13    4 1
    14   14   13 ar
    15   15   14 ar
    16   16   15 ar
    17   17   16 ar
    18   18   13 ar
    19   19    7 1
    20   20    9 1
    21   21   11 1
    22   22   11 1
    23   23   11 1
    24   24   12 1
    25   25   12 1
    26   26   12 1
    27   27   14 1
    28   28   15 1
    29   29   17 1
    30   30   18 1
    31   17   18 ar
@<TRIPOS>SUBSTRUCTURE
     1 RES1 1

@<TRIPOS>CRYSIN
  12.0210    8.1170   13.5620  90.0000 115.7200  90.0000  14 1

