# MOL2 file generated by ConQuest
# Please check atom types

@<TRIPOS>MOLECULE
INAPAO
    56    58     1
SMALL
NO_CHARGES
****
Generated from CSD

@<TRIPOS>ATOM
      1 C1         6.7099    0.1503   20.5936 C.3       1 RES1    0.0000
      2 H1         5.7667    0.0566   20.9134 H         1 RES1    0.0000
      3 C2         7.0997    1.6303   20.7617 C.3       1 RES1    0.0000
      4 H2         8.0652    1.7308   20.5241 H         1 RES1    0.0000
      5 C3         6.2823    2.5606   19.8639 C.3       1 RES1    0.0000
      6 H3         5.3391    2.5450   20.1618 H         1 RES1    0.0000
      7 H4         6.6180    3.4850   19.9728 H         1 RES1    0.0000
      8 C4         6.3374    2.1867   18.3862 C.3       1 RES1    0.0000
      9 H5         7.2874    2.2521   18.0804 H         1 RES1    0.0000
     10 C5         5.8895    0.7487   18.2460 C.3       1 RES1    0.0000
     11 H6         4.9386    0.6775   18.5124 H         1 RES1    0.0000
     12 H7         5.9592    0.4783   17.2950 H         1 RES1    0.0000
     13 C6         6.7138   -0.1952   19.0909 C.3       1 RES1    0.0000
     14 H8         7.6473   -0.1845   18.7644 H         1 RES1    0.0000
     15 H9         6.3655   -1.1148   18.9737 H         1 RES1    0.0000
     16 C7         5.4968    3.1365   17.5457 C.3       1 RES1    0.0000
     17 H10        5.8034    4.0571   17.6866 H         1 RES1    0.0000
     18 H11        4.5565    3.0623   17.8103 H         1 RES1    0.0000
     19 H12        5.5887    2.9032   16.5975 H         1 RES1    0.0000
     20 C8         7.5825   -0.8493   21.4320 C.3       1 RES1    0.0000
     21 C9         9.0713   -0.6550   21.1094 C.3       1 RES1    0.0000
     22 H13        9.5947   -1.3579   21.5479 H         1 RES1    0.0000
     23 H14        9.3635    0.2216   21.4332 H         1 RES1    0.0000
     24 H15        9.2038   -0.7058   20.1393 H         1 RES1    0.0000
     25 C10        7.2033   -2.3029   21.0603 C.3       1 RES1    0.0000
     26 H16        6.2339   -2.4210   21.1496 H         1 RES1    0.0000
     27 H17        7.6647   -2.9247   21.6604 H         1 RES1    0.0000
     28 H18        7.4703   -2.4844   20.1348 H         1 RES1    0.0000
     29 C11        7.3358   -0.7518   22.9475 C.ar      1 RES1    0.0000
     30 C12        8.3757   -0.6560   23.8667 C.ar      1 RES1    0.0000
     31 H19        9.2658   -0.5418   23.5551 H         1 RES1    0.0000
     32 C13        8.1320   -0.7263   25.2342 C.ar      1 RES1    0.0000
     33 H20        8.8604   -0.6697   25.8413 H         1 RES1    0.0000
     34 C14        6.8656   -0.8766   25.7191 C.ar      1 RES1    0.0000
     35 H21        6.7089   -0.9274   26.6559 H         1 RES1    0.0000
     36 C15        5.8141   -0.9528   24.8256 C.ar      1 RES1    0.0000
     37 H22        4.9250   -1.0465   25.1482 H         1 RES1    0.0000
     38 C16        6.0492   -0.8922   23.4682 C.ar      1 RES1    0.0000
     39 H23        5.3139   -0.9489   22.8688 H         1 RES1    0.0000
     40 N1         6.9145    2.0755   22.1442 N.am      1 RES1    0.0000
     41 H24        6.0753    1.9524   22.4795 H         1 RES1    0.0000
     42 C17        7.7547    2.8905   22.7767 C.2       1 RES1    0.0000
     43 O1         8.8428    3.2495   22.3157 O.2       1 RES1    0.0000
     44 C18        7.2940    3.3747   24.1183 C.ar      1 RES1    0.0000
     45 C19        7.5564    4.6867   24.4932 C.ar      1 RES1    0.0000
     46 H25        8.0526    5.2520   23.9129 H         1 RES1    0.0000
     47 C20        7.1017    5.1739   25.6955 C.ar      1 RES1    0.0000
     48 H26        7.2439    6.0817   25.9381 H         1 RES1    0.0000
     49 C21        6.4380    4.3177   26.5373 C.ar      1 RES1    0.0000
     50 C22        6.1856    3.0018   26.2250 C.ar      1 RES1    0.0000
     51 H27        5.7425    2.4268   26.8381 H         1 RES1    0.0000
     52 C23        6.6015    2.5420   24.9849 C.ar      1 RES1    0.0000
     53 H28        6.4090    1.6488   24.7252 H         1 RES1    0.0000
     54 N2         5.9292    4.8332   27.8158 N.pl3     1 RES1    0.0000
     55 O2         5.6873    6.0222   27.8966 O.2       1 RES1    0.0000
     56 O3         5.8112    4.0503   28.7245 O.2       1 RES1    0.0000
@<TRIPOS>BOND
     1    1    2 1
     2    3    1 1
     3    4    3 1
     4    5    3 1
     5    6    5 1
     6    7    5 1
     7    8    5 1
     8    9    8 1
     9   10    8 1
    10   11   10 1
    11   12   10 1
    12   13    1 1
    13   14   13 1
    14   15   13 1
    15   16    8 1
    16   17   16 1
    17   18   16 1
    18   19   16 1
    19   20    1 1
    20   21   20 1
    21   22   21 1
    22   23   21 1
    23   24   21 1
    24   25   20 1
    25   26   25 1
    26   27   25 1
    27   28   25 1
    28   29   20 1
    29   30   29 ar
    30   31   30 1
    31   32   30 ar
    32   33   32 1
    33   34   32 ar
    34   35   34 1
    35   36   34 ar
    36   37   36 1
    37   38   29 ar
    38   39   38 1
    39   40    3 1
    40   41   40 1
    41   42   40 1
    42   43   42 2
    43   44   42 1
    44   45   44 ar
    45   46   45 1
    46   47   45 ar
    47   48   47 1
    48   49   47 ar
    49   50   49 ar
    50   51   50 1
    51   52   44 ar
    52   53   52 1
    53   54   49 1
    54   55   54 2
    55   56   54 2
    56   10   13 1
    57   36   38 ar
    58   50   52 ar
@<TRIPOS>SUBSTRUCTURE
     1 RES1 1

@<TRIPOS>CRYSIN
   9.6740    9.7620   22.5020  90.0000  90.0000  90.0000  19 1

