# MOL2 file generated by ConQuest
# Please check atom types

@<TRIPOS>MOLECULE
INEJOA01
    13    13     1
SMALL
NO_CHARGES
****
Generated from CSD

@<TRIPOS>ATOM
      1 C1         4.0945    5.3280    6.9993 C.2       1 RES1    0.0000
      2 C2         4.8783    5.6221    5.7458 C.3       1 RES1    0.0000
      3 H1         5.8387    5.4215    5.8782 H         1 RES1    0.0000
      4 H2         4.7835    6.5733    5.4886 H         1 RES1    0.0000
      5 C3         4.2754    4.7062    4.6709 C.3       1 RES1    0.0000
      6 H3         3.9324    5.2395    3.9106 H         1 RES1    0.0000
      7 H4         4.9553    4.0709    4.3328 H         1 RES1    0.0000
      8 C4         3.1507    3.9678    5.3520 C.2       1 RES1    0.0000
      9 N1         3.1324    4.4049    6.6718 N.am      1 RES1    0.0000
     10 O1         4.2509    5.7979    8.1185 O.2       1 RES1    0.0000
     11 O2         2.3816    3.1464    4.9020 O.2       1 RES1    0.0000
     12 O3         2.2736    3.8668    7.5957 O.3       1 RES1    0.0000
     13 H5         1.4982    4.2843    7.5548 H         1 RES1    0.0000
@<TRIPOS>BOND
     1    1    2 1
     2    2    3 1
     3    4    2 1
     4    5    2 1
     5    6    5 1
     6    7    5 1
     7    8    5 1
     8    9    1 1
     9   10    1 2
    10   11    8 2
    11   12    9 1
    12   13   12 1
    13    8    9 1
@<TRIPOS>SUBSTRUCTURE
     1 RES1 1

@<TRIPOS>CRYSIN
   8.4740    7.3740   15.5640  90.0000  90.0000  90.0000  61 1

