# MOL2 file generated by ConQuest
# Please check atom types

@<TRIPOS>MOLECULE
INIDEQ
    28    30     1
SMALL
NO_CHARGES
****
Generated from CSD

@<TRIPOS>ATOM
      1 N1         0.1884    5.6428   13.4593 N.2       1 RES1    0.0000
      2 O1        -2.2942    8.5668   13.9341 O.3       1 RES1    0.0000
      3 O2         1.3212    8.4952   13.6704 O.3       1 RES1    0.0000
      4 H1         1.3113    8.9901   13.0170 H         1 RES1    0.0000
      5 O3        -0.1642    6.8873   12.8712 O.3       1 RES1    0.0000
      6 C1        -1.0287    8.9592   13.6371 C.2       1 RES1    0.0000
      7 C2        -1.0474   10.2214   13.1654 C.2       1 RES1    0.0000
      8 H2        -0.3176   10.7314   12.8950 H         1 RES1    0.0000
      9 C3        -2.4372   10.6201   13.1638 C.2       1 RES1    0.0000
     10 H3        -2.7773   11.4403   12.8867 H         1 RES1    0.0000
     11 C4        -3.1234    9.6151   13.6272 C.2       1 RES1    0.0000
     12 H4        -4.0474    9.6089   13.7344 H         1 RES1    0.0000
     13 C5         0.0536    7.9454   13.8553 C.3       1 RES1    0.0000
     14 C6         0.0271    7.2020   15.1748 C.3       1 RES1    0.0000
     15 H5         0.7145    7.5255   15.7777 H         1 RES1    0.0000
     16 H6        -0.8387    7.2745   15.6062 H         1 RES1    0.0000
     17 C7         0.3039    5.7984   14.7315 C.2       1 RES1    0.0000
     18 C8         0.6433    4.6626   15.6186 C.ar      1 RES1    0.0000
     19 C9         0.4023    4.7642   16.9841 C.ar      1 RES1    0.0000
     20 H7         0.0280    5.5447   17.3247 H         1 RES1    0.0000
     21 C10        0.7068    3.7336   17.8376 C.ar      1 RES1    0.0000
     22 H8         0.5119    3.8070   18.7430 H         1 RES1    0.0000
     23 C11        1.2935    2.6031   17.3576 C.ar      1 RES1    0.0000
     24 H9         1.5451    1.9216   17.9382 H         1 RES1    0.0000
     25 C12        1.5120    2.4767   16.0004 C.ar      1 RES1    0.0000
     26 H10        1.8745    1.6909   15.6606 H         1 RES1    0.0000
     27 C13        1.1986    3.5047   15.1510 C.ar      1 RES1    0.0000
     28 H11        1.3657    3.4127   14.2407 H         1 RES1    0.0000
@<TRIPOS>BOND
     1    1    5 1
     2    2    6 1
     3    3    4 1
     4    5   13 1
     5    6    7 2
     6    7    8 1
     7    9    7 1
     8   10    9 1
     9   11    2 1
    10   12   11 1
    11   13    3 1
    12   14   13 1
    13   15   14 1
    14   16   14 1
    15   17    1 2
    16   18   17 1
    17   19   18 ar
    18   20   19 1
    19   21   19 ar
    20   22   21 1
    21   23   21 ar
    22   24   23 1
    23   25   23 ar
    24   26   25 1
    25   27   18 ar
    26   28   27 1
    27    6   13 1
    28    9   11 2
    29   14   17 1
    30   25   27 ar
@<TRIPOS>SUBSTRUCTURE
     1 RES1 1

@<TRIPOS>CRYSIN
   7.8130    8.8390   16.5420  90.0000  94.4640  90.0000 231 1

