# MOL2 file generated by ConQuest
# Please check atom types

@<TRIPOS>MOLECULE
INOLUU
    33    35     1
SMALL
NO_CHARGES
****
Generated from CSD

@<TRIPOS>ATOM
      1 C1         8.8123    2.2205   12.9217 C.ar      1 RES1    0.0000
      2 C2         9.6234    3.3287   13.0613 C.ar      1 RES1    0.0000
      3 H1         9.2737    4.1777   12.9150 H         1 RES1    0.0000
      4 C3        11.4687    1.9412   13.6595 C.ar      1 RES1    0.0000
      5 H2        12.3630    1.8484   13.8974 H         1 RES1    0.0000
      6 C4         9.3563    0.9686   13.1711 C.ar      1 RES1    0.0000
      7 H3         8.8250    0.2104   13.0798 H         1 RES1    0.0000
      8 C5        10.6738    0.8350   13.5518 C.ar      1 RES1    0.0000
      9 H4        11.0213   -0.0080   13.7357 H         1 RES1    0.0000
     10 C6         7.3835    2.3861   12.4749 C.3       1 RES1    0.0000
     11 H5         7.2512    3.2980   12.1714 H         1 RES1    0.0000
     12 H6         7.2181    1.7969   11.7225 H         1 RES1    0.0000
     13 C7        10.9516    3.1864   13.4182 C.ar      1 RES1    0.0000
     14 H7        11.4952    3.9373   13.4939 H         1 RES1    0.0000
     15 C8         5.1161    1.7108   13.4070 C.2       1 RES1    0.0000
     16 C9         4.4535    1.5037   12.1120 C.ar      1 RES1    0.0000
     17 C10        4.3794    2.5404   11.1848 C.ar      1 RES1    0.0000
     18 H8         4.7338    3.3761   11.3885 H         1 RES1    0.0000
     19 C11        3.2433    1.0775    9.6661 C.ar      1 RES1    0.0000
     20 H9         2.8349    0.9332    8.8433 H         1 RES1    0.0000
     21 C12        4.7235    1.5985   14.7239 C.2       1 RES1    0.0000
     22 C13        3.9119    0.2639   11.8025 C.ar      1 RES1    0.0000
     23 H10        3.9523   -0.4295   12.4208 H         1 RES1    0.0000
     24 C14        3.7762    2.3207    9.9610 C.ar      1 RES1    0.0000
     25 H11        3.7279    3.0074    9.3360 H         1 RES1    0.0000
     26 C15        3.3131    0.0608   10.5772 C.ar      1 RES1    0.0000
     27 H12        2.9544   -0.7716   10.3698 H         1 RES1    0.0000
     28 N1         6.7745    2.2058   14.8391 N.2       1 RES1    0.0000
     29 N2         6.4104    2.0889   13.5397 N.pl3     1 RES1    0.0000
     30 N3         5.7345    1.8965   15.5700 N.2       1 RES1    0.0000
     31 N4         3.4254    1.3020   15.2597 N.pl3     1 RES1    0.0000
     32 O1         2.4948    1.1837   14.4795 O.2       1 RES1    0.0000
     33 O2         3.3270    1.2017   16.4814 O.2       1 RES1    0.0000
@<TRIPOS>BOND
     1    1    2 ar
     2    2    3 1
     3    4    5 1
     4    6    1 ar
     5    7    6 1
     6    8    4 ar
     7    9    8 1
     8   10    1 1
     9   11   10 1
    10   12   10 1
    11   13    2 ar
    12   14   13 1
    13   15   16 1
    14   16   17 ar
    15   17   18 1
    16   19   20 1
    17   21   15 2
    18   22   16 ar
    19   23   22 1
    20   24   17 ar
    21   25   24 1
    22   26   19 ar
    23   27   26 1
    24   28   29 1
    25   29   10 1
    26   30   21 1
    27   31   21 1
    28   32   31 2
    29   33   31 2
    30    4   13 ar
    31    6    8 ar
    32   15   29 1
    33   19   24 ar
    34   22   26 ar
    35   28   30 2
@<TRIPOS>SUBSTRUCTURE
     1 RES1 1

@<TRIPOS>CRYSIN
  13.6433    6.6801   15.2134  90.0000  96.5490  90.0000 231 1

