# MOL2 file generated by ConQuest
# Please check atom types

@<TRIPOS>MOLECULE
INOYOB
    71    56     2
SMALL
NO_CHARGES
****
Generated from CSD

@<TRIPOS>ATOM
      1 O1        -2.5163   -0.8042  -21.5062 O.2       1 RES1    0.0000
      2 C1        -2.0711   -1.4008  -22.4653 C.2       1 RES1    0.0000
      3 O2        -0.9394   -2.1414  -22.4431 O.3       1 RES1    0.0000
      4 C2        -1.1194   -3.2550  -20.2729 C.ar      1 RES1    0.0000
      5 N1        -2.6326   -1.4012  -23.6934 N.am      1 RES1    0.0000
      6 C3        -3.8986   -0.6845  -23.9361 C.3       1 RES1    0.0000
      7 C4        -4.2960   -1.1965  -25.3296 C.3       1 RES1    0.0000
      8 C5        -2.9889   -1.6507  -25.9738 C.3       1 RES1    0.0000
      9 C6        -2.1793   -2.2237  -24.8168 C.3       1 RES1    0.0000
     10 C7        -2.4698   -3.7087  -24.6392 C.ar      1 RES1    0.0000
     11 C8        -3.3156   -4.1892  -23.6627 C.ar      1 RES1    0.0000
     12 C9        -3.5052   -5.5636  -23.5017 C.ar      1 RES1    0.0000
     13 C10       -2.8618   -6.4591  -24.3309 C.ar      1 RES1    0.0000
     14 O3        -2.9345   -7.8228  -24.2136 O.3       1 RES1    0.0000
     15 C11       -2.0288   -5.9740  -25.3611 C.ar      1 RES1    0.0000
     16 C12       -1.8311   -4.6088  -25.4958 C.ar      1 RES1    0.0000
     17 O4        -1.4385   -6.9220  -26.1507 O.3       1 RES1    0.0000
     18 C13       -0.4825   -6.4386  -27.0902 C.3       1 RES1    0.0000
     19 N2        -2.2994   -0.4571  -26.6158 N.pl3     1 RES1    0.0000
     20 O5        -1.3157    0.0381  -26.0841 O.2       1 RES1    0.0000
     21 O6        -2.8058   -0.0476  -27.6537 O.2       1 RES1    0.0000
     22 C14       -3.7416    0.8120  -23.8603 C.2       1 RES1    0.0000
     23 C15       -4.5545    1.5894  -23.1846 C.2       1 RES1    0.0000
     24 C16       -0.3610   -2.1959  -21.0181 C.3       1 RES1    0.0000
     25 C17       -1.3655   -4.4803  -20.8542 C.ar      1 RES1    0.0000
     26 C18       -2.0567   -5.4919  -20.1330 C.ar      1 RES1    0.0000
     27 C19       -2.4870   -5.2315  -18.8416 C.ar      1 RES1    0.0000
     28 C20       -2.3273   -3.9953  -18.2825 C.ar      1 RES1    0.0000
     29 C21       -1.6932   -2.9735  -19.0259 C.ar      1 RES1    0.0000
     30 C22       -3.5450   -8.3199  -22.9785 C.3       1 RES1    0.0000
     31 H1        -4.5790   -0.9580  -23.2930 H         1 RES1    0.0000
     32 H2        -4.7544   -0.5147  -25.8277 H         1 RES1    0.0000
     33 H3        -4.8379   -1.9900  -25.2282 H         1 RES1    0.0000
     34 H4        -3.1142   -2.2954  -26.6972 H         1 RES1    0.0000
     35 H5        -1.2256   -2.0921  -24.9618 H         1 RES1    0.0000
     36 H6        -3.7641   -3.5827  -23.0673 H         1 RES1    0.0000
     37 H7        -4.0868   -5.8483  -22.8231 H         1 RES1    0.0000
     38 H8        -1.2707   -4.2684  -26.1755 H         1 RES1    0.0000
     39 H9        -0.1420   -7.2190  -27.5890 H         1 RES1    0.0000
     40 H10       -0.9299   -5.8730  -27.7222 H         1 RES1    0.0000
     41 H11        0.2417   -5.9385  -26.6158 H         1 RES1    0.0000
     42 H12       -3.0101    1.1707  -24.3809 H         1 RES1    0.0000
     43 H13       -4.4803    2.5328  -23.1783 H         1 RES1    0.0000
     44 H14       -5.2647    1.1962  -22.6714 H         1 RES1    0.0000
     45 H15        0.5703   -2.4647  -21.1025 H         1 RES1    0.0000
     46 H16       -0.4593   -1.3111  -20.5881 H         1 RES1    0.0000
     47 H17       -1.0590   -4.6521  -21.7204 H         1 RES1    0.0000
     48 H18       -2.1873   -6.3546  -20.5104 H         1 RES1    0.0000
     49 H19       -2.9173   -5.8764  -18.3162 H         1 RES1    0.0000
     50 H20       -2.6574   -3.8388  -17.3911 H         1 RES1    0.0000
     51 H21       -1.6578   -2.0785  -18.7047 H         1 RES1    0.0000
     52 H22       -3.4041   -9.2566  -22.9600 H         1 RES1    0.0000
     53 H23       -4.4935   -8.1183  -23.0081 H         1 RES1    0.0000
     54 H24       -3.1216   -7.8911  -22.2014 H         1 RES1    0.0000
     55 C23       -0.3340   -2.4128  -21.2505 Du        2 SUP2    0.0000
     56 C24       -1.5262   -4.5509  -20.6218 Du        2 SUP2    0.0000
     57 C25       -2.1854   -5.3336  -19.7212 Du        2 SUP2    0.0000
     58 C26       -2.4226   -4.8512  -18.4605 Du        2 SUP2    0.0000
     59 C27       -1.9648   -3.6023  -18.0772 Du        2 SUP2    0.0000
     60 C28       -1.2752   -2.8382  -18.9704 Du        2 SUP2    0.0000
     61 C29       -3.9026   -8.2484  -23.3189 Du        2 SUP2    0.0000
     62 H25        0.5330   -2.8221  -21.4540 Du        2 SUP2    0.0000
     63 H26       -0.1754   -1.5442  -20.8027 Du        2 SUP2    0.0000
     64 H27       -1.3336   -4.8453  -21.4947 Du        2 SUP2    0.0000
     65 H28       -2.4713   -6.1946  -19.9961 Du        2 SUP2    0.0000
     66 H29       -2.8996   -5.3813  -17.8537 Du        2 SUP2    0.0000
     67 H30       -2.1412   -3.2832  -17.1950 Du        2 SUP2    0.0000
     68 H31       -0.9235   -2.0011  -18.7158 Du        2 SUP2    0.0000
     69 H32       -3.9124   -9.2098  -23.2930 Du        2 SUP2    0.0000
     70 H33       -4.7799   -7.9524  -23.6001 Du        2 SUP2    0.0000
     71 H34       -3.7140   -7.9081  -22.4309 Du        2 SUP2    0.0000
@<TRIPOS>BOND
     1    1    2 2
     2    2    3 1
     3    3   24 1
     4    4   24 1
     5    5    2 1
     6    6    5 1
     7    7    6 1
     8    8    7 1
     9    9    5 1
    10   10    9 1
    11   11   10 ar
    12   12   11 ar
    13   13   12 ar
    14   14   13 1
    15   15   13 ar
    16   16   10 ar
    17   17   15 1
    18   18   17 1
    19   19    8 1
    20   20   19 2
    21   21   19 2
    22   22    6 1
    23   23   22 2
    24   24   45 1
    25   25    4 ar
    26   26   25 ar
    27   27   26 ar
    28   28   27 ar
    29   29    4 ar
    30   30   14 1
    31   31    6 1
    32   32    7 1
    33   33    7 1
    34   34    8 1
    35   35    9 1
    36   36   11 1
    37   37   12 1
    38   38   16 1
    39   39   18 1
    40   40   18 1
    41   41   18 1
    42   42   22 1
    43   43   23 1
    44   44   23 1
    45   46   24 1
    46   47   25 1
    47   48   26 1
    48   49   27 1
    49   50   28 1
    50   51   29 1
    51   52   30 1
    52   53   30 1
    53   54   30 1
    54    8    9 1
    55   15   16 ar
    56   28   29 ar
@<TRIPOS>SUBSTRUCTURE
     1 RES1 1
     2 SUP2 55

@<TRIPOS>CRYSIN
   9.8241    9.8241   37.0024  90.0000  90.0000 120.0000 170 1

