# MOL2 file generated by ConQuest
# Please check atom types

@<TRIPOS>MOLECULE
IPADHX
    42    41     1
SMALL
NO_CHARGES
****
Generated from CSD

@<TRIPOS>ATOM
      1 O1         8.5412   17.1659    8.0510 O.3       1 RES1    0.0000
      2 O2        11.4161   16.3200    6.2571 O.2       1 RES1    0.0000
      3 N1         9.6459   16.4469    7.5888 N.am      1 RES1    0.0000
      4 C1         9.5595   18.0611    4.5558 C.3       1 RES1    0.0000
      5 C2        10.0288   18.2438    5.9700 C.3       1 RES1    0.0000
      6 C3        10.4080   16.9440    6.6216 C.2       1 RES1    0.0000
      7 C4        10.0007   15.2830    8.3978 C.3       1 RES1    0.0000
      8 C5         8.8378   14.3324    8.5232 C.3       1 RES1    0.0000
      9 C6        10.5460   15.7155    9.7388 C.3       1 RES1    0.0000
     10 H1         7.8560   16.8815    7.4920 H         1 RES1    0.0000
     11 H2        10.2588   17.5552    4.0070 H         1 RES1    0.0000
     12 H3         8.7383   17.4617    4.5710 H         1 RES1    0.0000
     13 H4         9.4234   18.6969    6.4734 H         1 RES1    0.0000
     14 H5        10.9627   18.8092    5.8926 H         1 RES1    0.0000
     15 H6        10.6999   14.8789    7.9045 H         1 RES1    0.0000
     16 H7         8.4567   14.0928    7.6267 H         1 RES1    0.0000
     17 H8         9.0949   13.4939    8.9820 H         1 RES1    0.0000
     18 H9         8.1376   14.8040    9.0578 H         1 RES1    0.0000
     19 H10       11.3006   16.3387    9.6049 H         1 RES1    0.0000
     20 H11       10.8126   14.8789   10.2279 H         1 RES1    0.0000
     21 H12       10.0898   16.1141   10.2026 H         1 RES1    0.0000
     22 C1D        9.2123   19.3701    3.8622 C.3       1 RES1    0.0000
     23 C2D        8.7430   19.1874    2.4480 C.3       1 RES1    0.0000
     24 H2D        8.5130   19.8760    4.4110 H         1 RES1    0.0000
     25 H3D       10.0335   19.9695    3.8470 H         1 RES1    0.0000
     26 C3D        8.3638   20.4872    1.7964 C.2       1 RES1    0.0000
     27 H4D        9.3484   18.7343    1.9446 H         1 RES1    0.0000
     28 H5D        7.8091   18.6220    2.5254 H         1 RES1    0.0000
     29 O2D        7.3557   21.1112    2.1609 O.2       1 RES1    0.0000
     30 N1D        9.1259   20.9843    0.8292 N.am      1 RES1    0.0000
     31 O1D       10.2306   20.2653    0.3670 O.3       1 RES1    0.0000
     32 C4D        8.7711   22.1482    0.0202 C.3       1 RES1    0.0000
     33 H1D       10.9158   20.5497    0.9260 H         1 RES1    0.0000
     34 C5D        9.9340   23.0988   -0.1052 C.3       1 RES1    0.0000
     35 C6D        8.2258   21.7157   -1.3208 C.3       1 RES1    0.0000
     36 H6D        8.0719   22.5523    0.5135 H         1 RES1    0.0000
     37 H7D       10.3151   23.3384    0.7913 H         1 RES1    0.0000
     38 H8D        9.6769   23.9373   -0.5640 H         1 RES1    0.0000
     39 H9D       10.6342   22.6272   -0.6398 H         1 RES1    0.0000
     40 H10D       7.4712   21.0925   -1.1869 H         1 RES1    0.0000
     41 H11D       7.9592   22.5523   -1.8099 H         1 RES1    0.0000
     42 H12D       8.6820   21.3171   -1.7846 H         1 RES1    0.0000
@<TRIPOS>BOND
     1    1    3 1
     2    2    6 2
     3    3    6 1
     4    4    5 1
     5    5    6 1
     6    7    3 1
     7    8    7 1
     8    9    7 1
     9   10    1 1
    10   11    4 1
    11   12    4 1
    12   13    5 1
    13   14    5 1
    14   15    7 1
    15   16    8 1
    16   17    8 1
    17   18    8 1
    18   19    9 1
    19   20    9 1
    20   21    9 1
    21   22    4 1
    22   23   22 1
    23   24   22 1
    24   25   22 1
    25   26   23 1
    26   27   23 1
    27   28   23 1
    28   29   26 2
    29   30   26 1
    30   31   30 1
    31   32   30 1
    32   33   31 1
    33   34   32 1
    34   35   32 1
    35   36   32 1
    36   37   34 1
    37   38   34 1
    38   39   34 1
    39   40   35 1
    40   41   35 1
    41   42   35 1
@<TRIPOS>SUBSTRUCTURE
     1 RES1 1

@<TRIPOS>CRYSIN
   9.3859   18.7156    8.4180  90.0000  90.0000  90.0000  61 1

