# MOL2 file generated by ConQuest
# Please check atom types

@<TRIPOS>MOLECULE
IPAJUE
    44    45     1
SMALL
NO_CHARGES
****
Generated from CSD

@<TRIPOS>ATOM
      1 O1         3.1074   -1.0856   -1.2318 O.3       1 RES1    0.0000
      2 O2         3.2063    1.1328   -0.8144 O.2       1 RES1    0.0000
      3 O3         3.6716    0.1712    8.2608 O.2       1 RES1    0.0000
      4 O4         5.4085    1.3966    7.7599 O.2       1 RES1    0.0000
      5 N1         4.3973    0.7511    7.4553 N.pl3     1 RES1    0.0000
      6 C1         3.1398   -0.0087   -0.4086 C.2       1 RES1    0.0000
      7 C2         3.1886   -0.4367    1.0663 C.3       1 RES1    0.0000
      8 C3         2.2224   -1.5721    1.3329 C.2       1 RES1    0.0000
      9 C4         0.9624   -1.3625    1.5789 C.2       1 RES1    0.0000
     10 C5         0.4701    0.0437    1.6361 C.2       1 RES1    0.0000
     11 C6         1.3063    1.0568    1.7986 C.2       1 RES1    0.0000
     12 C7         2.7747    0.8297    1.9129 C.3       1 RES1    0.0000
     13 C8         3.2434    0.7424    3.3746 C.ar      1 RES1    0.0000
     14 C9         2.4397    0.0873    4.3457 C.ar      1 RES1    0.0000
     15 C10        2.8497    0.0524    5.6801 C.ar      1 RES1    0.0000
     16 C11        4.0283    0.6725    6.0067 C.ar      1 RES1    0.0000
     17 C12        4.8405    1.3188    5.0825 C.ar      1 RES1    0.0000
     18 C13        4.3951    1.3450    3.7569 C.ar      1 RES1    0.0000
     19 C14        3.3726   -0.8297   -2.6599 C.3       1 RES1    0.0000
     20 C15        4.7941   -0.8909   -2.9308 C.3       1 RES1    0.0000
     21 C16        4.6634   -0.8385    1.2992 C.3       1 RES1    0.0000
     22 C17       -0.0216   -2.4455    1.8016 C.3       1 RES1    0.0000
     23 C18        0.8682    2.5154    1.8748 C.3       1 RES1    0.0000
     24 H1         2.5456   -2.4682    1.3182 H         1 RES1    0.0000
     25 H2        -0.4604    0.2140    1.5555 H         1 RES1    0.0000
     26 H3         3.2088    1.5852    1.5247 H         1 RES1    0.0000
     27 H4         1.6240   -0.3267    4.0879 H         1 RES1    0.0000
     28 H5         2.3281   -0.3887    6.3406 H         1 RES1    0.0000
     29 H6         5.6628    1.7154    5.3388 H         1 RES1    0.0000
     30 H7         4.9148    1.8027    3.1051 H         1 RES1    0.0000
     31 H8         3.0510    0.0376   -2.8854 H         1 RES1    0.0000
     32 H9         2.9236   -1.4795   -3.1842 H         1 RES1    0.0000
     33 H10        4.9486   -0.7109   -3.8507 H         1 RES1    0.0000
     34 H11        5.2478   -0.2489   -2.4006 H         1 RES1    0.0000
     35 H12        5.1168   -1.7616   -2.7214 H         1 RES1    0.0000
     36 H13        4.7736   -1.1363    2.1926 H         1 RES1    0.0000
     37 H14        5.2225   -0.0830    1.1469 H         1 RES1    0.0000
     38 H15        4.9013   -1.5337    0.6987 H         1 RES1    0.0000
     39 H16        0.2410   -2.9591    2.5544 H         1 RES1    0.0000
     40 H17       -0.0587   -3.0001    1.0326 H         1 RES1    0.0000
     41 H18       -0.8775   -2.0630    1.9598 H         1 RES1    0.0000
     42 H19        1.6299    3.0717    1.9934 H         1 RES1    0.0000
     43 H20        0.4247    2.7582    1.0707 H         1 RES1    0.0000
     44 H21        0.2761    2.6324    2.6086 H         1 RES1    0.0000
@<TRIPOS>BOND
     1    1    6 1
     2    2    6 2
     3    3    5 2
     4    4    5 2
     5    5   16 1
     6    6    7 1
     7    7    8 1
     8    8    9 2
     9    9   10 1
    10   10   11 2
    11   11   12 1
    12   12    7 1
    13   13   12 1
    14   14   13 ar
    15   15   14 ar
    16   16   15 ar
    17   17   16 ar
    18   18   13 ar
    19   19    1 1
    20   20   19 1
    21   21    7 1
    22   22    9 1
    23   23   11 1
    24   24    8 1
    25   25   10 1
    26   26   12 1
    27   27   14 1
    28   28   15 1
    29   29   17 1
    30   30   18 1
    31   31   19 1
    32   32   19 1
    33   33   20 1
    34   34   20 1
    35   35   20 1
    36   36   21 1
    37   37   21 1
    38   38   21 1
    39   39   22 1
    40   40   22 1
    41   41   22 1
    42   42   23 1
    43   43   23 1
    44   44   23 1
    45   17   18 ar
@<TRIPOS>SUBSTRUCTURE
     1 RES1 1

@<TRIPOS>CRYSIN
  12.8900    8.7340   14.6784  90.0000  93.7550  90.0000  14 1

