# MOL2 file generated by ConQuest
# Please check atom types

@<TRIPOS>MOLECULE
IPAQAT
    65    68     1
SMALL
NO_CHARGES
****
Generated from CSD

@<TRIPOS>ATOM
      1 O1         2.1225   13.1107   15.2668 O.2       1 RES1    0.0000
      2 O2         4.1365   13.4564   14.5179 O.2       1 RES1    0.0000
      3 O3         2.4200   10.6555   13.6399 O.3       1 RES1    0.0000
      4 O4         2.8783    8.0913   14.4797 O.3       1 RES1    0.0000
      5 N1         3.2148   13.8363   18.5557 N.1       1 RES1    0.0000
      6 N2         3.2971   12.7853   15.0500 N.pl3     1 RES1    0.0000
      7 C1         5.8591    8.3653   20.4206 C.3       1 RES1    0.0000
      8 H1         5.4745    7.6117   20.8961 H         1 RES1    0.0000
      9 H2         6.8015    8.1831   20.2827 H         1 RES1    0.0000
     10 C2         4.2419    8.9149   16.3217 C.ar      1 RES1    0.0000
     11 H3         4.4144    8.0492   16.6144 H         1 RES1    0.0000
     12 C3         5.9773    9.4551   22.7849 C.3       1 RES1    0.0000
     13 C4         5.7134    9.7027   18.2450 C.3       1 RES1    0.0000
     14 C5         5.1691    8.5163   19.0674 C.3       1 RES1    0.0000
     15 H4         4.2182    8.6409   19.2110 H         1 RES1    0.0000
     16 H5         5.2885    7.6989   18.5606 H         1 RES1    0.0000
     17 C6         5.0953   12.5160   17.2919 C.3       1 RES1    0.0000
     18 C7         5.7097   10.9606   19.1418 C.3       1 RES1    0.0000
     19 C8         4.8021    9.9891   17.0332 C.ar      1 RES1    0.0000
     20 C9         4.0292   13.2664   17.9767 C.1       1 RES1    0.0000
     21 C10        3.4507    9.0908   15.2133 C.ar      1 RES1    0.0000
     22 C11        5.0691    8.3559   23.3449 C.3       1 RES1    0.0000
     23 H6         5.0648    8.4026   24.3032 H         1 RES1    0.0000
     24 H7         5.3977    7.4981   23.0690 H         1 RES1    0.0000
     25 H8         4.1767    8.4789   23.0148 H         1 RES1    0.0000
     26 C12        6.1785   12.1626   18.3192 C.3       1 RES1    0.0000
     27 H9         7.0075   11.9477   17.8634 H         1 RES1    0.0000
     28 H10        6.3388   12.9208   18.9030 H         1 RES1    0.0000
     29 C13        3.1526   10.3846   14.7761 C.ar      1 RES1    0.0000
     30 C14        6.3589   10.8517   20.5660 C.3       1 RES1    0.0000
     31 C15        7.0904    9.3119   17.6787 C.3       1 RES1    0.0000
     32 H11        7.4823   10.0685   17.2401 H         1 RES1    0.0000
     33 H12        6.9856    8.5941   17.0480 H         1 RES1    0.0000
     34 H13        7.6622    9.0254   18.3956 H         1 RES1    0.0000
     35 C16        4.5235   11.2829   16.6038 C.ar      1 RES1    0.0000
     36 C17        5.7043    9.6279   21.2632 C.3       1 RES1    0.0000
     37 C18        7.9005   10.7956   20.4674 C.3       1 RES1    0.0000
     38 H14        8.1748    9.8988   20.2580 H         1 RES1    0.0000
     39 H15        8.2851   11.0618   21.3050 H         1 RES1    0.0000
     40 H16        8.1986   11.3888   19.7752 H         1 RES1    0.0000
     41 C19        3.6878   11.4262   15.4947 C.ar      1 RES1    0.0000
     42 C20        5.9597   12.1050   21.3617 C.3       1 RES1    0.0000
     43 H17        6.4315   12.8725   20.9996 H         1 RES1    0.0000
     44 H18        5.0094   12.2622   21.2484 H         1 RES1    0.0000
     45 C21        7.4183    9.0628   23.1281 C.3       1 RES1    0.0000
     46 H19        7.4628    8.7763   24.0445 H         1 RES1    0.0000
     47 H20        7.9956    9.8194   23.0024 H         1 RES1    0.0000
     48 H21        7.7006    8.3466   22.5541 H         1 RES1    0.0000
     49 C22        6.2669   11.9944   22.8546 C.3       1 RES1    0.0000
     50 H22        7.2269   11.9462   22.9803 H         1 RES1    0.0000
     51 H23        5.9469   12.7916   23.3055 H         1 RES1    0.0000
     52 C23        5.6244   10.7863   23.4681 C.3       1 RES1    0.0000
     53 H24        4.6613   10.9015   23.4434 H         1 RES1    0.0000
     54 H25        5.8896   10.7349   24.4018 H         1 RES1    0.0000
     55 C24        1.0375   10.3145   13.6630 C.3       1 RES1    0.0000
     56 H26        0.5882   10.8454   14.3257 H         1 RES1    0.0000
     57 H27        0.9406    9.3835   13.8798 H         1 RES1    0.0000
     58 H28        0.6510   10.4842   12.8008 H         1 RES1    0.0000
     59 C25        3.0929    6.7617   14.9022 C.3       1 RES1    0.0000
     60 H29        2.8314    6.6714   15.8211 H         1 RES1    0.0000
     61 H30        4.0237    6.5437   14.8110 H         1 RES1    0.0000
     62 H31        2.5705    6.1669   14.3602 H         1 RES1    0.0000
     63 H32        4.7485   11.1319   19.3711 H         1 RES1    0.0000
     64 H33        4.7668    9.8241   21.2459 H         1 RES1    0.0000
     65 H34        5.5348   13.1092   16.6439 H         1 RES1    0.0000
@<TRIPOS>BOND
     1    1    6 2
     2    2    6 2
     3    3   29 1
     4    4   21 1
     5    5   20 3
     6    6   41 1
     7    7    8 1
     8    9    7 1
     9   10   11 1
    10   12   22 1
    11   13   14 1
    12   14    7 1
    13   15   14 1
    14   16   14 1
    15   17   20 1
    16   18   13 1
    17   19   10 ar
    18   21   10 ar
    19   22   23 1
    20   24   22 1
    21   25   22 1
    22   26   17 1
    23   27   26 1
    24   28   26 1
    25   29   21 ar
    26   30   18 1
    27   31   13 1
    28   32   31 1
    29   33   31 1
    30   34   31 1
    31   35   17 1
    32   36    7 1
    33   37   30 1
    34   38   37 1
    35   39   37 1
    36   40   37 1
    37   41   29 ar
    38   42   30 1
    39   43   42 1
    40   44   42 1
    41   45   12 1
    42   46   45 1
    43   47   45 1
    44   48   45 1
    45   49   42 1
    46   50   49 1
    47   51   49 1
    48   52   12 1
    49   53   52 1
    50   54   52 1
    51   55    3 1
    52   56   55 1
    53   57   55 1
    54   58   55 1
    55   59    4 1
    56   60   59 1
    57   61   59 1
    58   62   59 1
    59   63   18 1
    60   64   36 1
    61   65   17 1
    62   12   36 1
    63   13   19 1
    64   18   26 1
    65   19   35 ar
    66   30   36 1
    67   35   41 ar
    68   49   52 1
@<TRIPOS>SUBSTRUCTURE
     1 RES1 1

@<TRIPOS>CRYSIN
   6.0956   15.5691   24.6358  90.0000  90.0000  90.0000  19 1

