# MOL2 file generated by ConQuest
# Please check atom types

@<TRIPOS>MOLECULE
IPCDNB
    89    93     1
SMALL
NO_CHARGES
****
Generated from CSD

@<TRIPOS>ATOM
      1 C1        -2.8475   -2.6327    6.2444 C.3       1 RES1    0.0000
      2 C2        -3.3104   -1.4268    7.0814 C.3       1 RES1    0.0000
      3 C3        -4.2757   -3.0835    8.8442 C.3       1 RES1    0.0000
      4 C4        -5.3073   -3.2467    9.9849 C.3       1 RES1    0.0000
      5 C5        -6.7014   -2.6940    9.6492 C.3       1 RES1    0.0000
      6 C6        -6.8609   -2.6309    8.1074 C.3       1 RES1    0.0000
      7 C7        -8.3426   -2.4231    7.8691 C.3       1 RES1    0.0000
      8 C8        -9.0293   -3.1216    9.0665 C.3       1 RES1    0.0000
      9 C9        -7.9168   -3.5688   10.0358 C.3       1 RES1    0.0000
     10 C10       -6.8806   -1.2672   10.2378 C.3       1 RES1    0.0000
     11 C11       -2.1465   -0.8932    7.9461 C.3       1 RES1    0.0000
     12 C12       -1.7338   -2.2504    5.2431 C.3       1 RES1    0.0000
     13 C13       -8.3674   -3.5647   11.5064 C.3       1 RES1    0.0000
     14 C14       -7.2463   -3.9029   12.4830 C.3       1 RES1    0.0000
     15 C15       -9.5041   -4.5443   11.7404 C.2       1 RES1    0.0000
     16 C16      -10.7783   -4.2519   11.8930 C.2       1 RES1    0.0000
     17 C17      -11.8624   -5.2374   12.2664 C.3       1 RES1    0.0000
     18 C18      -12.7711   -4.6800   13.3825 C.3       1 RES1    0.0000
     19 C19      -13.6764   -3.5379   12.9393 C.3       1 RES1    0.0000
     20 C20      -11.9529   -4.2608   14.5930 C.3       1 RES1    0.0000
     21 C21      -12.6606   -5.7061   11.0588 C.3       1 RES1    0.0000
     22 C22       -2.1228   -1.1076    4.3523 C.3       1 RES1    0.0000
     23 C23        0.6226   -0.5860    1.9022 C.ar      1 RES1    0.0000
     24 C24        1.1298    0.6122    2.3658 C.ar      1 RES1    0.0000
     25 C25        2.2019    1.1749    1.6930 C.ar      1 RES1    0.0000
     26 C26        2.7682    0.6074    0.5624 C.ar      1 RES1    0.0000
     27 C27        2.2288   -0.5770    0.1381 C.ar      1 RES1    0.0000
     28 C28        1.1631   -1.1880    0.7731 C.ar      1 RES1    0.0000
     29 C29       -0.5133   -1.2910    2.5940 C.2       1 RES1    0.0000
     30 C30       -2.6638    0.1048    5.1240 C.3       1 RES1    0.0000
     31 C31       -3.7533   -0.3775    6.0686 C.2       1 RES1    0.0000
     32 C32       -5.0217   -0.0977    5.8520 C.2       1 RES1    0.0000
     33 C33       -6.1183   -0.8289    6.5074 C.2       1 RES1    0.0000
     34 C34       -5.8613   -1.7127    7.4738 C.2       1 RES1    0.0000
     35 C35       -4.4598   -1.7895    8.0682 C.3       1 RES1    0.0000
     36 H1        -3.6161   -3.0490    5.7111 H         1 RES1    0.0000
     37 H2        -4.4665   -3.7814    8.1379 H         1 RES1    0.0000
     38 H3        -3.3527   -3.2097    9.2714 H         1 RES1    0.0000
     39 H4        -5.3567   -4.1685   10.3468 H         1 RES1    0.0000
     40 H5        -4.9120   -2.9418   10.8118 H         1 RES1    0.0000
     41 H6        -6.5793   -3.5254    7.8909 H         1 RES1    0.0000
     42 H7        -8.4882   -1.3637    7.8763 H         1 RES1    0.0000
     43 H8        -8.6808   -2.6797    6.9608 H         1 RES1    0.0000
     44 H9        -9.6873   -2.4773    9.5184 H         1 RES1    0.0000
     45 H10       -9.5658   -3.9005    8.8354 H         1 RES1    0.0000
     46 H11       -7.6133   -4.3233    9.7946 H         1 RES1    0.0000
     47 H12       -6.2023   -0.7741    9.8381 H         1 RES1    0.0000
     48 H13       -6.7791   -1.3220   11.2478 H         1 RES1    0.0000
     49 H14       -7.7256   -0.9647   10.0852 H         1 RES1    0.0000
     50 H15       -1.4016   -0.7325    7.3822 H         1 RES1    0.0000
     51 H16       -1.8232   -1.6495    8.6756 H         1 RES1    0.0000
     52 H17       -2.5037   -0.1131    8.4285 H         1 RES1    0.0000
     53 H18       -1.4907   -2.8644    4.7374 H         1 RES1    0.0000
     54 H19       -8.8237   -2.6797   11.5965 H         1 RES1    0.0000
     55 H20       -6.8487   -4.7700   12.2359 H         1 RES1    0.0000
     56 H21       -7.5713   -4.0196   13.3694 H         1 RES1    0.0000
     57 H22       -6.4132   -3.2038   12.5702 H         1 RES1    0.0000
     58 H23       -9.2767   -5.4131   11.7709 H         1 RES1    0.0000
     59 H24      -11.1682   -3.3586   11.7709 H         1 RES1    0.0000
     60 H25      -11.3592   -6.0741   12.6574 H         1 RES1    0.0000
     61 H26      -13.4468   -5.4369   13.6165 H         1 RES1    0.0000
     62 H27      -13.0824   -2.7929   12.6138 H         1 RES1    0.0000
     63 H28      -14.1763   -3.1204   13.8054 H         1 RES1    0.0000
     64 H29      -14.2780   -3.7516   12.1197 H         1 RES1    0.0000
     65 H30      -11.4138   -5.0617   14.7354 H         1 RES1    0.0000
     66 H31      -12.5291   -4.1804   15.4475 H         1 RES1    0.0000
     67 H32      -11.3546   -3.4837   14.4157 H         1 RES1    0.0000
     68 H33      -13.5228   -6.4671   11.3059 H         1 RES1    0.0000
     69 H34      -12.0443   -6.0145   10.3904 H         1 RES1    0.0000
     70 H35      -13.0339   -4.9010   10.6229 H         1 RES1    0.0000
     71 H36       -2.7790   -1.2982    3.7347 H         1 RES1    0.0000
     72 H37        0.7511    1.0362    3.1534 H         1 RES1    0.0000
     73 H38        3.5493    0.9945    0.1889 H         1 RES1    0.0000
     74 H39        0.8303   -2.0187    0.4650 H         1 RES1    0.0000
     75 H40       -2.9598    0.5955    4.4758 H         1 RES1    0.0000
     76 H41       -1.8653    0.4169    5.6239 H         1 RES1    0.0000
     77 H42       -2.4329   -3.3467    6.9027 H         1 RES1    0.0000
     78 H43       -0.8808   -2.0009    5.7256 H         1 RES1    0.0000
     79 H44       -5.2503    0.4347    5.1879 H         1 RES1    0.0000
     80 H45       -7.0431   -0.7206    6.1325 H         1 RES1    0.0000
     81 H46       -4.3799   -1.1612    8.7337 H         1 RES1    0.0000
     82 N1         2.7665    2.4457    2.2030 N.pl3     1 RES1    0.0000
     83 N2         2.8124   -1.2410   -1.0550 N.pl3     1 RES1    0.0000
     84 O1         2.2971    2.9090    3.2348 O.2       1 RES1    0.0000
     85 O2         3.6889    2.9495    1.5695 O.2       1 RES1    0.0000
     86 O3        -0.9383   -0.6021    3.6475 O.3       1 RES1    0.0000
     87 O4        -0.9602   -2.3409    2.2118 O.2       1 RES1    0.0000
     88 O5         2.3593   -2.3344   -1.3747 O.2       1 RES1    0.0000
     89 O6         3.7043   -0.6634   -1.6465 O.2       1 RES1    0.0000
@<TRIPOS>BOND
     1    1    2 1
     2    2   11 1
     3    3    4 1
     4    4    5 1
     5    5    6 1
     6    6    7 1
     7    7    8 1
     8    8    9 1
     9    9    5 1
    10   10    5 1
    11   11   50 1
    12   12    1 1
    13   13    9 1
    14   14   13 1
    15   15   13 1
    16   16   15 2
    17   17   16 1
    18   18   17 1
    19   19   18 1
    20   20   18 1
    21   21   17 1
    22   22   12 1
    23   23   24 ar
    24   24   25 ar
    25   25   26 ar
    26   26   27 ar
    27   27   28 ar
    28   28   23 ar
    29   29   23 1
    30   30   22 1
    31   31    2 1
    32   32   31 2
    33   33   32 1
    34   34    6 1
    35   35    2 1
    36   36    1 1
    37   37    3 1
    38   38    3 1
    39   39    4 1
    40   40    4 1
    41   41    6 1
    42   42    7 1
    43   43    7 1
    44   44    8 1
    45   45    8 1
    46   46    9 1
    47   47   10 1
    48   48   10 1
    49   49   10 1
    50   51   11 1
    51   52   11 1
    52   53   12 1
    53   54   13 1
    54   55   14 1
    55   56   14 1
    56   57   14 1
    57   58   15 1
    58   59   16 1
    59   60   17 1
    60   61   18 1
    61   62   19 1
    62   63   19 1
    63   64   19 1
    64   65   20 1
    65   66   20 1
    66   67   20 1
    67   68   21 1
    68   69   21 1
    69   70   21 1
    70   71   22 1
    71   72   24 1
    72   73   26 1
    73   74   28 1
    74   75   30 1
    75   76   30 1
    76   77    1 1
    77   78   12 1
    78   79   32 1
    79   80   33 1
    80   81   35 1
    81   82   25 1
    82   83   27 1
    83   84   82 2
    84   85   82 2
    85   86   22 1
    86   87   29 2
    87   88   83 2
    88   89   83 2
    89    3   35 1
    90   29   86 1
    91   30   31 1
    92   33   34 2
    93   34   35 1
@<TRIPOS>SUBSTRUCTURE
     1 RES1 1

@<TRIPOS>CRYSIN
  18.3640    5.9550   14.5680  90.0000  94.0300  90.0000   4 1

