# MOL2 file generated by ConQuest
# Please check atom types

@<TRIPOS>MOLECULE
IPIGEU
    48    49     1
SMALL
NO_CHARGES
****
Generated from CSD

@<TRIPOS>ATOM
      1 O1         3.2065   -1.5925    3.7863 O.2       1 RES1    0.0000
      2 N1         0.9508   -0.2317    1.5102 N.ar      1 RES1    0.0000
      3 N2         2.3680   -0.7525    3.3091 N.3       1 RES1    0.0000
      4 C1         0.5959   -0.3879    0.2230 C.ar      1 RES1    0.0000
      5 C2         1.2798   -1.2273   -0.6541 C.ar      1 RES1    0.0000
      6 C3         2.3987   -1.9102   -0.1715 C.ar      1 RES1    0.0000
      7 C4         2.7919   -1.7498    1.1418 C.ar      1 RES1    0.0000
      8 C5         2.0214   -0.8966    1.9437 C.ar      1 RES1    0.0000
      9 C6         1.7930    0.2889    4.2403 C.3       1 RES1    0.0000
     10 C7         0.3591   -0.0981    4.5903 C.3       1 RES1    0.0000
     11 C8         1.8558    1.6726    3.5872 C.3       1 RES1    0.0000
     12 C9         2.6676    0.2903    5.4935 C.3       1 RES1    0.0000
     13 H1         0.9850   -1.3160   -1.5535 H         1 RES1    0.0000
     14 H2         2.8957   -2.4942   -0.7504 H         1 RES1    0.0000
     15 H3         3.5728   -2.1899    1.5049 H         1 RES1    0.0000
     16 H4        -0.2259   -0.1172    3.7977 H         1 RES1    0.0000
     17 H5         0.3457   -0.9705    4.9983 H         1 RES1    0.0000
     18 H6        -0.0073    0.6241    5.1928 H         1 RES1    0.0000
     19 H7         1.2165    1.7591    2.8153 H         1 RES1    0.0000
     20 H8         1.6164    2.3245    4.2521 H         1 RES1    0.0000
     21 H9         2.7812    1.8742    3.2780 H         1 RES1    0.0000
     22 H10        2.3373    0.9983    6.1197 H         1 RES1    0.0000
     23 H11        2.6740   -0.5757    5.9446 H         1 RES1    0.0000
     24 H12        3.6229    0.4935    5.2720 H         1 RES1    0.0000
     25 O1B       -3.2065    1.5925   -3.7863 O.2       1 RES1    0.0000
     26 N1B       -0.9508    0.2317   -1.5102 N.ar      1 RES1    0.0000
     27 N2B       -2.3680    0.7525   -3.3091 N.3       1 RES1    0.0000
     28 C1B       -0.5959    0.3879   -0.2230 C.ar      1 RES1    0.0000
     29 C2B       -1.2798    1.2273    0.6541 C.ar      1 RES1    0.0000
     30 C3B       -2.3987    1.9102    0.1715 C.ar      1 RES1    0.0000
     31 C4B       -2.7919    1.7498   -1.1418 C.ar      1 RES1    0.0000
     32 C5B       -2.0214    0.8966   -1.9437 C.ar      1 RES1    0.0000
     33 C6B       -1.7930   -0.2889   -4.2403 C.3       1 RES1    0.0000
     34 C7B       -0.3591    0.0981   -4.5903 C.3       1 RES1    0.0000
     35 C8B       -1.8558   -1.6726   -3.5872 C.3       1 RES1    0.0000
     36 C9B       -2.6676   -0.2903   -5.4935 C.3       1 RES1    0.0000
     37 H1B       -0.9850    1.3160    1.5535 H         1 RES1    0.0000
     38 H2B       -2.8957    2.4942    0.7504 H         1 RES1    0.0000
     39 H3B       -3.5728    2.1899   -1.5049 H         1 RES1    0.0000
     40 H4B        0.2259    0.1172   -3.7977 H         1 RES1    0.0000
     41 H5B       -0.3457    0.9705   -4.9983 H         1 RES1    0.0000
     42 H6B        0.0073   -0.6241   -5.1928 H         1 RES1    0.0000
     43 H7B       -1.2165   -1.7591   -2.8153 H         1 RES1    0.0000
     44 H8B       -1.6164   -2.3245   -4.2521 H         1 RES1    0.0000
     45 H9B       -2.7812   -1.8742   -3.2780 H         1 RES1    0.0000
     46 H10B      -2.3373   -0.9983   -6.1197 H         1 RES1    0.0000
     47 H11B      -2.6740    0.5757   -5.9446 H         1 RES1    0.0000
     48 H12B      -3.6229   -0.4935   -5.2720 H         1 RES1    0.0000
@<TRIPOS>BOND
     1    1    3 1
     2    2    4 ar
     3    3    8 1
     4    4    5 ar
     5    5    6 ar
     6    6    7 ar
     7    7    8 ar
     8    8    2 ar
     9    9    3 1
    10   10    9 1
    11   11    9 1
    12   12    9 1
    13   13    5 1
    14   14    6 1
    15   15    7 1
    16   16   10 1
    17   17   10 1
    18   18   10 1
    19   19   11 1
    20   20   11 1
    21   21   11 1
    22   22   12 1
    23   23   12 1
    24   24   12 1
    25   25   27 1
    26   26   28 ar
    27   27   32 1
    28   28    4 1
    29   29   28 ar
    30   30   29 ar
    31   31   30 ar
    32   32   26 ar
    33   33   27 1
    34   34   33 1
    35   35   33 1
    36   36   33 1
    37   37   29 1
    38   38   30 1
    39   39   31 1
    40   40   34 1
    41   41   34 1
    42   42   34 1
    43   43   35 1
    44   44   35 1
    45   45   35 1
    46   46   36 1
    47   47   36 1
    48   48   36 1
    49   31   32 ar
@<TRIPOS>SUBSTRUCTURE
     1 RES1 1

@<TRIPOS>CRYSIN
   6.1290   10.2810   14.1930  90.0000 101.7480  90.0000 231 1

