# MOL2 file generated by ConQuest
# Please check atom types

@<TRIPOS>MOLECULE
IPITIM
    25    26     1
SMALL
NO_CHARGES
****
Generated from CSD

@<TRIPOS>ATOM
      1 O1         4.3378    6.3346    6.3296 O.2       1 RES1    0.0000
      2 O2         3.9378    4.6804    4.9754 O.2       1 RES1    0.0000
      3 N1         3.5726    5.4832    5.8448 N.pl3     1 RES1    0.0000
      4 N2         2.2725    5.3906    6.2208 N.2       1 RES1    0.0000
      5 C1         1.8969    6.2285    7.1880 C.2       1 RES1    0.0000
      6 N3         2.4854    7.1399    7.9809 N.3       1 RES1    0.0000
      7 N4         1.5682    7.6971    8.8226 N.2       1 RES1    0.0000
      8 N5         0.4358    7.1607    8.5874 N.2       1 RES1    0.0000
      9 N6         0.6028    6.2443    7.5945 N.3       1 RES1    0.0000
     10 C2        -0.5609    5.5864    7.0027 C.3       1 RES1    0.0000
     11 H1        -0.4523    5.5657    6.0185 H         1 RES1    0.0000
     12 H2        -1.3696    6.1202    7.2067 H         1 RES1    0.0000
     13 C3        -0.7683    4.1641    7.5062 C.3       1 RES1    0.0000
     14 H3        -0.7488    4.1594    8.4958 H         1 RES1    0.0000
     15 H4        -1.6569    3.8391    7.2157 H         1 RES1    0.0000
     16 N7         0.2656    3.2686    6.9965 N.pl3     1 RES1    0.0000
     17 N8         0.3962    3.0791    5.6623 N.2       1 RES1    0.0000
     18 C4         1.4686    2.3279    5.6359 C.2       1 RES1    0.0000
     19 N9         2.0360    2.0078    6.8072 N.2       1 RES1    0.0000
     20 C5         1.2409    2.6386    7.6606 C.2       1 RES1    0.0000
     21 H5         1.3482    2.6426    8.6048 H         1 RES1    0.0000
     22 N10        2.0394    1.8987    4.3772 N.pl3     1 RES1    0.0000
     23 O3         1.5537    2.3539    3.3480 O.2       1 RES1    0.0000
     24 O4         2.9864    1.1218    4.4269 O.2       1 RES1    0.0000
     25 H6         3.3012    7.4222    7.9708 H         1 RES1    0.0000
@<TRIPOS>BOND
     1    1    3 2
     2    2    3 2
     3    3    4 1
     4    4    5 2
     5    5    6 1
     6    6    7 1
     7    7    8 2
     8    8    9 1
     9    9    5 1
    10   10    9 1
    11   11   10 1
    12   12   10 1
    13   13   10 1
    14   14   13 1
    15   15   13 1
    16   16   13 1
    17   17   16 1
    18   18   17 2
    19   19   18 1
    20   20   16 1
    21   21   20 1
    22   22   18 1
    23   23   22 2
    24   24   22 2
    25   25    6 1
    26   19   20 2
@<TRIPOS>SUBSTRUCTURE
     1 RES1 1

@<TRIPOS>CRYSIN
   7.9667   12.8656   10.6222  90.0000 108.1310  90.0000 231 1

