# MOL2 file generated by ConQuest
# Please check atom types

@<TRIPOS>MOLECULE
IPIWOT
    40    42     1
SMALL
NO_CHARGES
****
Generated from CSD

@<TRIPOS>ATOM
      1 H1        -1.5300   13.1512    6.3378 H         1 RES1    0.0000
      2 H2        -0.4329   10.1553    8.0707 H         1 RES1    0.0000
      3 H3         0.7613   14.8393    6.0126 H         1 RES1    0.0000
      4 H4        -0.5605   13.1145    5.0805 H         1 RES1    0.0000
      5 H5        -0.7725   15.3502    5.9075 H         1 RES1    0.0000
      6 H6         0.7165    9.0572    3.7108 H         1 RES1    0.0000
      7 H7        -0.5157    7.9510    7.4639 H         1 RES1    0.0000
      8 H8         0.0672    7.3134    5.2045 H         1 RES1    0.0000
      9 N1         0.2357   12.3139    6.7829 N.3       1 RES1    0.0000
     10 C1        -0.1575   14.6970    6.3610 C.3       1 RES1    0.0000
     11 N2         1.0873   11.5285    4.0513 N.pl3     1 RES1    0.0000
     12 O1         1.7496   12.4824    4.4271 O.2       1 RES1    0.0000
     13 C2        -0.2373    8.6284    6.7995 C.ar      1 RES1    0.0000
     14 O2         0.8951   11.2958    2.8648 O.2       1 RES1    0.0000
     15 C3         0.4560    9.2660    4.6137 C.ar      1 RES1    0.0000
     16 C4         0.1919   10.9839    6.3467 C.ar      1 RES1    0.0000
     17 C5         0.5416   10.5872    5.0347 C.ar      1 RES1    0.0000
     18 C6        -0.1829    9.9435    7.2069 C.ar      1 RES1    0.0000
     19 C7        -0.6008   13.2852    6.0613 C.3       1 RES1    0.0000
     20 C8         0.0687    8.2739    5.4915 C.ar      1 RES1    0.0000
     21 C1D        0.1575   12.5510    8.2255 C.3       1 RES1    0.0000
     22 H3D       -0.7613   12.4087    8.5739 H         1 RES1    0.0000
     23 H5D        0.7725   11.8978    8.6790 H         1 RES1    0.0000
     24 C7D        0.6008   13.9628    8.5252 C.3       1 RES1    0.0000
     25 H1D        1.5300   14.0968    8.2487 H         1 RES1    0.0000
     26 H4D        0.5605   14.1335    9.5060 H         1 RES1    0.0000
     27 N1D       -0.2357   14.9341    7.8036 N.3       1 RES1    0.0000
     28 C4D       -0.1919   16.2641    8.2398 C.ar      1 RES1    0.0000
     29 C5D       -0.5416   16.6608    9.5518 C.ar      1 RES1    0.0000
     30 N2D       -1.0873   15.7195   10.5352 N.pl3     1 RES1    0.0000
     31 O1D       -1.7496   14.7656   10.1594 O.2       1 RES1    0.0000
     32 O2D       -0.8951   15.9522   11.7217 O.2       1 RES1    0.0000
     33 C3D       -0.4560   17.9820    9.9728 C.ar      1 RES1    0.0000
     34 H6D       -0.7165   18.1908   10.8757 H         1 RES1    0.0000
     35 C8D       -0.0687   18.9741    9.0950 C.ar      1 RES1    0.0000
     36 H8D       -0.0672   19.9346    9.3820 H         1 RES1    0.0000
     37 C2D        0.2373   18.6196    7.7870 C.ar      1 RES1    0.0000
     38 H7D        0.5157   19.2970    7.1226 H         1 RES1    0.0000
     39 C6D        0.1829   17.3045    7.3796 C.ar      1 RES1    0.0000
     40 H2D        0.4329   17.0927    6.5158 H         1 RES1    0.0000
@<TRIPOS>BOND
     1    1   19 1
     2    2   18 1
     3    3   10 1
     4    4   19 1
     5    5   10 1
     6    6   15 1
     7    7   13 1
     8    8   20 1
     9    9   16 1
    10   10   19 1
    11   11   12 2
    12   13   18 ar
    13   14   11 2
    14   15   17 ar
    15   16   17 ar
    16   17   11 1
    17   18   16 ar
    18   19    9 1
    19   20   13 ar
    20   21    9 1
    21   22   21 1
    22   23   21 1
    23   24   21 1
    24   25   24 1
    25   26   24 1
    26   27   10 1
    27   28   27 1
    28   29   28 ar
    29   30   29 1
    30   31   30 2
    31   32   30 2
    32   33   29 ar
    33   34   33 1
    34   35   33 ar
    35   36   35 1
    36   37   35 ar
    37   38   37 1
    38   39   28 ar
    39   40   39 1
    40   15   20 ar
    41   24   27 1
    42   37   39 ar
@<TRIPOS>SUBSTRUCTURE
     1 RES1 1

@<TRIPOS>CRYSIN
   7.4633   13.6240   14.5865  90.0000  90.0000  90.0000  61 1

