# MOL2 file generated by ConQuest
# Please check atom types

@<TRIPOS>MOLECULE
IPIWIN
    43    45     1
SMALL
NO_CHARGES
****
Generated from CSD

@<TRIPOS>ATOM
      1 C1        -3.1020    7.3964    1.7256 C.ar      1 RES1    0.0000
      2 C2        -3.9477    8.4948    1.6503 C.ar      1 RES1    0.0000
      3 C3        -4.7043    8.8553    2.7388 C.ar      1 RES1    0.0000
      4 C4        -4.6068    8.1086    3.9071 C.ar      1 RES1    0.0000
      5 C5        -3.7287    7.0468    3.9970 C.ar      1 RES1    0.0000
      6 C6        -2.8955    6.6777    2.9304 C.ar      1 RES1    0.0000
      7 C7        -0.6230    5.8289    2.4238 C.3       1 RES1    0.0000
      8 C8         0.5329    6.0872    3.4069 C.3       1 RES1    0.0000
      9 C9         1.9560    4.1026    3.6909 C.ar      1 RES1    0.0000
     10 C10        2.3654    4.1632    2.3344 C.ar      1 RES1    0.0000
     11 C11        3.2591    3.2587    1.8053 C.ar      1 RES1    0.0000
     12 C12        3.7810    2.2124    2.5634 C.ar      1 RES1    0.0000
     13 C13        3.4422    2.1419    3.8925 C.ar      1 RES1    0.0000
     14 C14        2.5998    3.1002    4.4517 C.ar      1 RES1    0.0000
     15 C15        0.2359    4.6185    5.4097 C.3       1 RES1    0.0000
     16 C16       -1.2130    5.1036    5.3996 C.3       1 RES1    0.0000
     17 C17       -2.0051    4.7321    4.1512 C.3       1 RES1    0.0000
     18 N1        -2.5266    6.9594    0.4569 N.pl3     1 RES1    0.0000
     19 N2        -1.9233    5.7066    3.0682 N.3       1 RES1    0.0000
     20 N3         0.9665    4.9262    4.1810 N.3       1 RES1    0.0000
     21 N4         2.5877    3.1117    5.9156 N.pl3     1 RES1    0.0000
     22 O1        -2.2400    7.8246   -0.3751 O.2       1 RES1    0.0000
     23 O2        -2.4100    5.7547    0.2368 O.2       1 RES1    0.0000
     24 O3         2.8115    4.1849    6.4846 O.2       1 RES1    0.0000
     25 O4         2.4289    2.0492    6.5176 O.2       1 RES1    0.0000
     26 H1        -3.9926    8.9652    0.7837 H         1 RES1    0.0000
     27 H2        -5.2816    9.6195    2.6371 H         1 RES1    0.0000
     28 H3        -5.1405    8.3407    4.6709 H         1 RES1    0.0000
     29 H4        -3.6741    6.5578    4.8487 H         1 RES1    0.0000
     30 H5        -0.5857    6.6096    1.8270 H         1 RES1    0.0000
     31 H6        -0.4561    5.0136    1.9087 H         1 RES1    0.0000
     32 H7         0.3067    6.7764    4.0307 H         1 RES1    0.0000
     33 H8         1.3042    6.4813    2.8939 H         1 RES1    0.0000
     34 H9         2.0048    4.8472    1.7717 H         1 RES1    0.0000
     35 H10        3.4968    3.3706    0.8957 H         1 RES1    0.0000
     36 H11        4.3920    1.5881    2.1642 H         1 RES1    0.0000
     37 H12        3.8295    1.4706    4.4891 H         1 RES1    0.0000
     38 H13        0.7082    5.0088    6.2291 H         1 RES1    0.0000
     39 H14        0.2247    3.6509    5.5284 H         1 RES1    0.0000
     40 H15       -1.2379    6.0960    5.5258 H         1 RES1    0.0000
     41 H16       -1.6493    4.6534    6.1593 H         1 RES1    0.0000
     42 H17       -2.9477    4.5837    4.3837 H         1 RES1    0.0000
     43 H18       -1.6836    3.8566    3.8094 H         1 RES1    0.0000
@<TRIPOS>BOND
     1    1    2 ar
     2    2    3 ar
     3    3    4 ar
     4    4    5 ar
     5    5    6 ar
     6    6    1 ar
     7    7    8 1
     8    8   20 1
     9    9   10 ar
    10   10   11 ar
    11   11   12 ar
    12   12   13 ar
    13   13   14 ar
    14   14    9 ar
    15   15   16 1
    16   16   17 1
    17   17   19 1
    18   18    1 1
    19   19    6 1
    20   20    9 1
    21   21   14 1
    22   22   18 2
    23   23   18 2
    24   24   21 2
    25   25   21 2
    26   26    2 1
    27   27    3 1
    28   28    4 1
    29   29    5 1
    30   30    7 1
    31   31    7 1
    32   32    8 1
    33   33    8 1
    34   34   10 1
    35   35   11 1
    36   36   12 1
    37   37   13 1
    38   38   15 1
    39   39   15 1
    40   40   16 1
    41   41   16 1
    42   42   17 1
    43   43   17 1
    44    7   19 1
    45   15   20 1
@<TRIPOS>SUBSTRUCTURE
     1 RES1 1

@<TRIPOS>CRYSIN
   7.8855    8.2780   13.8819  73.2320  89.9110  65.7820   2 1

