# MOL2 file generated by ConQuest
# Please check atom types

@<TRIPOS>MOLECULE
IPOCEV01
    39    42     1
SMALL
NO_CHARGES
****
Generated from CSD

@<TRIPOS>ATOM
      1 C1         1.5977    4.9046   -0.0551 C.ar      1 RES1    0.0000
      2 H1         1.4907    5.8469   -0.1040 H         1 RES1    0.0000
      3 C2         2.3771    4.2330   -0.9927 C.ar      1 RES1    0.0000
      4 H2         2.8156    4.7091   -1.6880 H         1 RES1    0.0000
      5 C3         2.4998    2.8742   -0.8960 C.ar      1 RES1    0.0000
      6 H3         3.0348    2.4250   -1.5387 H         1 RES1    0.0000
      7 C4         1.9113    2.1493    0.0465 C.ar      1 RES1    0.0000
      8 H4         2.0152    1.2046    0.0722 H         1 RES1    0.0000
      9 C5         1.1602    2.7929    0.9707 C.ar      1 RES1    0.0000
     10 C6         0.5528    1.9660    2.0589 C.ar      1 RES1    0.0000
     11 C7         0.5602    0.5756    2.0136 C.ar      1 RES1    0.0000
     12 H5         0.9452    0.1239    1.2718 H         1 RES1    0.0000
     13 C8         0.0000   -0.1469    3.0602 C.ar      1 RES1    0.0000
     14 C9         0.0000   -1.6454    3.0602 C.ar      1 RES1    0.0000
     15 C10        0.7941   -2.3740    2.1825 C.ar      1 RES1    0.0000
     16 H6         1.3491   -1.9150    1.5631 H         1 RES1    0.0000
     17 C11        0.7878   -3.7485    2.1960 C.ar      1 RES1    0.0000
     18 H7         1.3428   -4.2258    1.5901 H         1 RES1    0.0000
     19 N1         0.9787    4.1784    0.9536 N.ar      1 RES1    0.0000
     20 N2         0.0000    2.6435    3.0602 N.ar      1 RES1    0.0000
     21 N3        -0.0000   -4.4322    3.0602 N.pl3     1 RES1    0.0000
     22 O1        -0.0000   -5.7364    3.0602 O.2       1 RES1    0.0000
     23 C7F       -0.5602    0.5756    4.1068 C.ar      1 RES1    0.0000
     24 C6F       -0.5528    1.9660    4.0615 C.ar      1 RES1    0.0000
     25 C5F       -1.1602    2.7929    5.1497 C.ar      1 RES1    0.0000
     26 C4F       -1.9113    2.1493    6.0738 C.ar      1 RES1    0.0000
     27 C3F       -2.4998    2.8742    7.0164 C.ar      1 RES1    0.0000
     28 C2F       -2.3771    4.2330    7.1131 C.ar      1 RES1    0.0000
     29 C1F       -1.5977    4.9046    6.1754 C.ar      1 RES1    0.0000
     30 H1F       -1.4907    5.8469    6.2244 H         1 RES1    0.0000
     31 N1F       -0.9787    4.1784    5.1668 N.ar      1 RES1    0.0000
     32 H2F       -2.8156    4.7091    7.8083 H         1 RES1    0.0000
     33 H3F       -3.0348    2.4250    7.6590 H         1 RES1    0.0000
     34 H4F       -2.0152    1.2046    6.0481 H         1 RES1    0.0000
     35 H5F       -0.9452    0.1239    4.8485 H         1 RES1    0.0000
     36 C11F      -0.7878   -3.7485    3.9244 C.ar      1 RES1    0.0000
     37 C10F      -0.7941   -2.3740    3.9378 C.ar      1 RES1    0.0000
     38 H6F       -1.3491   -1.9150    4.5572 H         1 RES1    0.0000
     39 H7F       -1.3428   -4.2258    4.5303 H         1 RES1    0.0000
@<TRIPOS>BOND
     1    1    2 1
     2    3    1 ar
     3    4    3 1
     4    5    3 ar
     5    6    5 1
     6    7    5 ar
     7    8    7 1
     8    9    7 ar
     9   10    9 1
    10   11   10 ar
    11   12   11 1
    12   13   11 ar
    13   14   13 1
    14   15   14 ar
    15   16   15 1
    16   17   15 ar
    17   18   17 1
    18   19    1 ar
    19   20   10 ar
    20   21   17 ar
    21   22   21 1
    22   23   13 ar
    23   24   20 ar
    24   25   24 1
    25   26   25 ar
    26   27   26 ar
    27   28   27 ar
    28   29   28 ar
    29   30   29 1
    30   31   25 ar
    31   32   28 1
    32   33   27 1
    33   34   26 1
    34   35   23 1
    35   36   21 ar
    36   37   14 ar
    37   38   37 1
    38   39   36 1
    39    9   19 ar
    40   23   24 ar
    41   29   31 ar
    42   36   37 ar
@<TRIPOS>SUBSTRUCTURE
     1 RES1 1

@<TRIPOS>CRYSIN
  10.4903   12.1430   12.2407  90.0000  90.0000  90.0000  60 1

