# MOL2 file generated by ConQuest
# Please check atom types

@<TRIPOS>MOLECULE
IPOVAM
    32    33     1
SMALL
USER_CHARGES
****
Generated from CSD

@<TRIPOS>ATOM
      1 O1         6.7028    5.3428    4.9786 O.3       1 RES1    0.0000
      2 O2         8.6984    5.0517    1.2676 O.co2     1 RES1   -1.0000
      3 N1         9.0148    6.2898    8.1116 N.pl3     1 RES1    0.0000
      4 H1         9.4010    7.0523    8.2036 H         1 RES1    0.0000
      5 H2         8.8422    5.8091    8.8041 H         1 RES1    0.0000
      6 O3         9.2993    7.9051    5.9845 O.3       1 RES1    0.0000
      7 H3        10.1160    7.9694    5.9995 H         1 RES1    0.0000
      8 O4         8.9378    5.2891    3.4614 O.co2     1 RES1    0.0000
      9 N2         8.9439    6.5742    5.8503 N.pl3     1 RES1    1.0000
     10 C1         8.6881    5.8572    6.9125 C.2       1 RES1    0.0000
     11 C2         8.0544    4.5296    6.7436 C.ar      1 RES1    0.0000
     12 C3         7.0919    4.2698    5.7480 C.ar      1 RES1    0.0000
     13 C4         6.0318    5.0557    3.7870 C.ar      1 RES1    0.0000
     14 C5         6.9491    1.9901    6.4639 C.ar      1 RES1    0.0000
     15 H4         6.5824    1.1405    6.3701 H         1 RES1    0.0000
     16 C6         6.5515    3.0072    5.6176 C.ar      1 RES1    0.0000
     17 H5         5.9178    2.8396    4.9580 H         1 RES1    0.0000
     18 C7         4.6440    4.9362    3.8508 C.ar      1 RES1    0.0000
     19 H6         4.2023    5.0284    4.6643 H         1 RES1    0.0000
     20 C8         7.8931    2.2304    7.4529 C.ar      1 RES1    0.0000
     21 H7         8.1519    1.5445    8.0262 H         1 RES1    0.0000
     22 C9         5.9671    4.7232    1.4290 C.ar      1 RES1    0.0000
     23 H8         6.3944    4.6621    0.6052 H         1 RES1    0.0000
     24 C10        4.5978    4.5764    1.4900 C.ar      1 RES1    0.0000
     25 H9         4.1181    4.4049    0.7122 H         1 RES1    0.0000
     26 C11        8.4416    3.4800    7.5843 C.ar      1 RES1    0.0000
     27 H10        9.0805    3.6333    8.2420 H         1 RES1    0.0000
     28 C12        8.2208    5.1064    2.4405 C.2       1 RES1    0.0000
     29 C13        6.7241    4.9596    2.5738 C.ar      1 RES1    0.0000
     30 C14        3.9301    4.6816    2.6948 C.ar      1 RES1    0.0000
     31 H11        3.0056    4.5816    2.7286 H         1 RES1    0.0000
     32 H12        8.8032    6.2872    5.0481 H         1 RES1    0.0000
@<TRIPOS>BOND
     1    1   12 1
     2    2   28 1
     3    3    4 1
     4    5    3 1
     5    6    7 1
     6    8   28 2
     7    9    6 1
     8   10    3 1
     9   11   10 1
    10   12   11 ar
    11   13    1 1
    12   14   15 1
    13   16   12 ar
    14   17   16 1
    15   18   13 ar
    16   19   18 1
    17   20   14 ar
    18   21   20 1
    19   22   23 1
    20   24   22 ar
    21   25   24 1
    22   26   11 ar
    23   27   26 1
    24   28   29 1
    25   29   13 ar
    26   30   18 ar
    27   31   30 1
    28   32    9 1
    29    9   10 2
    30   14   16 ar
    31   20   26 ar
    32   22   29 ar
    33   24   30 ar
@<TRIPOS>SUBSTRUCTURE
     1 RES1 1

@<TRIPOS>CRYSIN
  10.2721   12.9900    9.3830  90.0000  90.0000  90.0000  33 1

