# MOL2 file generated by ConQuest
# Please check atom types

@<TRIPOS>MOLECULE
IPUMEN
    48    51     1
SMALL
NO_CHARGES
****
Generated from CSD

@<TRIPOS>ATOM
      1 O1         2.7867    2.2474    0.2544 O.3       1 RES1    0.0000
      2 O2         3.3558    1.4474    4.7511 O.2       1 RES1    0.0000
      3 C1         3.3970    4.5320    0.7796 C.ar      1 RES1    0.0000
      4 C2         2.3046    1.6582    1.3788 C.2       1 RES1    0.0000
      5 C3         2.7050    1.2642    3.7255 C.2       1 RES1    0.0000
      6 C4         4.3445    2.5500    2.0693 C.3       1 RES1    0.0000
      7 H1         4.4906    3.2922    2.6920 H         1 RES1    0.0000
      8 C5         3.0906    1.8058    2.4502 C.2       1 RES1    0.0000
      9 C6         5.5956    1.6915    1.9933 C.ar      1 RES1    0.0000
     10 C7         1.0063    0.9563    1.3208 C.3       1 RES1    0.0000
     11 H2         1.1373    0.0587    0.9769 H         1 RES1    0.0000
     12 H3         0.4084    1.4264    0.7185 H         1 RES1    0.0000
     13 C8         2.5981    7.1528    1.0040 C.ar      1 RES1    0.0000
     14 C9         3.9398    6.8655    1.0453 C.ar      1 RES1    0.0000
     15 H4         4.5697    7.5415    1.1522 H         1 RES1    0.0000
     16 C10        3.8871    3.1070    0.6855 C.3       1 RES1    0.0000
     17 H5         4.6255    3.0506    0.0435 H         1 RES1    0.0000
     18 C11        2.0521    4.8623    0.7448 C.ar      1 RES1    0.0000
     19 H6         1.4164    4.1918    0.6420 H         1 RES1    0.0000
     20 C12        1.4485    0.4219    3.7170 C.3       1 RES1    0.0000
     21 H7         1.0663    0.4268    4.6088 H         1 RES1    0.0000
     22 H8         1.6909   -0.4935    3.5080 H         1 RES1    0.0000
     23 C13        4.3283    5.5487    0.9252 C.ar      1 RES1    0.0000
     24 H9         5.2336    5.3375    0.9426 H         1 RES1    0.0000
     25 C14        1.6465    6.1741    0.8616 C.ar      1 RES1    0.0000
     26 H10        0.7426    6.3923    0.8437 H         1 RES1    0.0000
     27 C15        0.3747    0.8844    2.7206 C.3       1 RES1    0.0000
     28 C16        5.5457    0.3165    1.8601 C.ar      1 RES1    0.0000
     29 H11        4.7199   -0.1104    1.8351 H         1 RES1    0.0000
     30 C17        6.8348    2.2903    2.0196 C.ar      1 RES1    0.0000
     31 H12        6.8962    3.2140    2.1093 H         1 RES1    0.0000
     32 O3         2.9903    9.4035    1.3395 O.2       1 RES1    0.0000
     33 C18        7.9216    0.1737    1.7920 C.ar      1 RES1    0.0000
     34 H13        8.7000   -0.3324    1.7283 H         1 RES1    0.0000
     35 N1         2.1646    8.5412    1.1295 N.pl3     1 RES1    0.0000
     36 C19        6.7061   -0.4383    1.7636 C.ar      1 RES1    0.0000
     37 H14        6.6535   -1.3631    1.6795 H         1 RES1    0.0000
     38 O4         0.9687    8.7773    1.0481 O.2       1 RES1    0.0000
     39 C20       -0.1626    2.2562    3.1376 C.3       1 RES1    0.0000
     40 H15       -0.8420    2.5353    2.5193 H         1 RES1    0.0000
     41 H16        0.5541    2.8954    3.1363 H         1 RES1    0.0000
     42 H17       -0.5368    2.1983    4.0195 H         1 RES1    0.0000
     43 C21       -0.7901   -0.1219    2.6973 C.3       1 RES1    0.0000
     44 H18       -1.2019   -0.1553    3.5647 H         1 RES1    0.0000
     45 H19       -0.4573   -0.9916    2.4679 H         1 RES1    0.0000
     46 H20       -1.4387    0.1553    2.0460 H         1 RES1    0.0000
     47 C22        7.9983    1.5334    1.9142 C.ar      1 RES1    0.0000
     48 H21        8.8276    1.9521    1.9274 H         1 RES1    0.0000
@<TRIPOS>BOND
     1    1    4 1
     2    2    5 2
     3    3   16 1
     4    4    8 2
     5    5    8 1
     6    6    7 1
     7    8    6 1
     8    9    6 1
     9   10    4 1
    10   11   10 1
    11   12   10 1
    12   13   14 ar
    13   14   15 1
    14   16    1 1
    15   17   16 1
    16   18    3 ar
    17   19   18 1
    18   20    5 1
    19   21   20 1
    20   22   20 1
    21   23    3 ar
    22   24   23 1
    23   25   13 ar
    24   26   25 1
    25   27   10 1
    26   28    9 ar
    27   29   28 1
    28   30    9 ar
    29   31   30 1
    30   32   35 2
    31   33   34 1
    32   35   13 1
    33   36   28 ar
    34   37   36 1
    35   38   35 2
    36   39   27 1
    37   40   39 1
    38   41   39 1
    39   42   39 1
    40   43   27 1
    41   44   43 1
    42   45   43 1
    43   46   43 1
    44   47   30 ar
    45   48   47 1
    46    6   16 1
    47   14   23 ar
    48   18   25 ar
    49   20   27 1
    50   33   36 ar
    51   33   47 ar
@<TRIPOS>SUBSTRUCTURE
     1 RES1 1

@<TRIPOS>CRYSIN
  12.6450   11.5032   13.9685  90.0000 109.3050  90.0000  14 1

