# MOL2 file generated by ConQuest
# Please check atom types

@<TRIPOS>MOLECULE
IPUQEP
    43    44     1
SMALL
NO_CHARGES
****
Generated from CSD

@<TRIPOS>ATOM
      1 O1         2.2165   -1.3316    0.7831 O.3       1 RES1    0.0000
      2 O2        -2.0065   -0.1645    2.7684 O.2       1 RES1    0.0000
      3 O3         2.0546    0.6123    3.5492 O.3       1 RES1    0.0000
      4 O4         2.6936    2.5704    5.3812 O.3       1 RES1    0.0000
      5 O5         1.5702    3.7921    7.5488 O.2       1 RES1    0.0000
      6 O6        -0.0383    4.9791    6.7851 O.2       1 RES1    0.0000
      7 N1         0.1208   -0.6474    2.1683 N.am      1 RES1    0.0000
      8 H1         0.9808   -0.4557    2.3334 H         1 RES1    0.0000
      9 N2         0.6704    3.9857    6.7690 N.pl3     1 RES1    0.0000
     10 C1         1.0561   -1.9385    0.3887 C.ar      1 RES1    0.0000
     11 C2         0.9537   -2.8448   -0.6452 C.ar      1 RES1    0.0000
     12 H2         1.7062   -3.0467   -1.1532 H         1 RES1    0.0000
     13 C3        -0.2517   -3.4589   -0.9382 C.ar      1 RES1    0.0000
     14 C4        -1.3555   -3.1495   -0.1718 C.ar      1 RES1    0.0000
     15 H3        -2.1657   -3.5730   -0.3439 H         1 RES1    0.0000
     16 C5        -1.2772   -2.2167    0.8527 C.ar      1 RES1    0.0000
     17 H4        -2.0359   -2.0081    1.3487 H         1 RES1    0.0000
     18 C6        -0.0760   -1.5977    1.1390 C.ar      1 RES1    0.0000
     19 C7        -0.8020    0.0084    2.8850 C.2       1 RES1    0.0000
     20 C8        -0.2841    1.0266    3.8838 C.ar      1 RES1    0.0000
     21 C9         1.0502    1.3190    4.1621 C.ar      1 RES1    0.0000
     22 C10        1.3932    2.2766    5.1292 C.ar      1 RES1    0.0000
     23 C11        0.3652    2.9643    5.7538 C.ar      1 RES1    0.0000
     24 C12       -0.9573    2.7162    5.4710 C.ar      1 RES1    0.0000
     25 H5        -1.6280    3.2024    5.8921 H         1 RES1    0.0000
     26 C13       -1.2725    1.7439    4.5618 C.ar      1 RES1    0.0000
     27 H6        -2.1675    1.5558    4.3910 H         1 RES1    0.0000
     28 C14       -0.3268   -4.4482   -2.0786 C.3       1 RES1    0.0000
     29 H7         0.3417   -5.1267   -1.9584 H         1 RES1    0.0000
     30 H8        -0.1747   -3.9914   -2.9090 H         1 RES1    0.0000
     31 H9        -1.1963   -4.8554   -2.0917 H         1 RES1    0.0000
     32 C15        3.3965   -1.6806    0.0812 C.3       1 RES1    0.0000
     33 H10        4.1395   -1.1928    0.4422 H         1 RES1    0.0000
     34 H11        3.2913   -1.4620   -0.8483 H         1 RES1    0.0000
     35 H12        3.5559   -2.6226    0.1725 H         1 RES1    0.0000
     36 C16        3.0089    1.3523    2.7692 C.3       1 RES1    0.0000
     37 H13        2.8487    2.2924    2.8759 H         1 RES1    0.0000
     38 H14        2.9181    1.1145    1.8431 H         1 RES1    0.0000
     39 H15        3.8969    1.1430    3.0674 H         1 RES1    0.0000
     40 C17        3.3958    1.5747    6.1318 C.3       1 RES1    0.0000
     41 H16        2.9157    1.3874    6.9420 H         1 RES1    0.0000
     42 H17        4.2741    1.8964    6.3474 H         1 RES1    0.0000
     43 H18        3.4679    0.7723    5.6094 H         1 RES1    0.0000
@<TRIPOS>BOND
     1    1   10 1
     2    2   19 2
     3    3   21 1
     4    4   22 1
     5    5    9 2
     6    6    9 2
     7    7    8 1
     8    9   23 1
     9   10   11 ar
    10   11   12 1
    11   13   11 ar
    12   14   13 ar
    13   15   14 1
    14   16   14 ar
    15   17   16 1
    16   18    7 1
    17   19    7 1
    18   20   19 1
    19   21   20 ar
    20   22   21 ar
    21   23   22 ar
    22   24   23 ar
    23   25   24 1
    24   26   20 ar
    25   27   26 1
    26   28   13 1
    27   29   28 1
    28   30   28 1
    29   31   28 1
    30   32    1 1
    31   33   32 1
    32   34   32 1
    33   35   32 1
    34   36    3 1
    35   37   36 1
    36   38   36 1
    37   39   36 1
    38   40    4 1
    39   41   40 1
    40   42   40 1
    41   43   40 1
    42   10   18 ar
    43   16   18 ar
    44   24   26 ar
@<TRIPOS>SUBSTRUCTURE
     1 RES1 1

@<TRIPOS>CRYSIN
   8.5612    9.6856   10.1660  91.9210  98.7610 100.4490   2 1

