# MOL2 file generated by ConQuest
# Please check atom types

@<TRIPOS>MOLECULE
IPUQAL
   107   109     1
SMALL
NO_CHARGES
****
Generated from CSD

@<TRIPOS>ATOM
      1 N1         4.3582    9.1837   15.6475 N.pl3     1 RES1    0.0000
      2 N2         4.8344   11.1908    9.4430 N.am      1 RES1    0.0000
      3 H1         4.0433   11.2794    9.7918 H         1 RES1    0.0000
      4 N3         7.7117   12.7572    4.2306 N.am      1 RES1    0.0000
      5 H2         7.0081   13.2045    3.9680 H         1 RES1    0.0000
      6 O1         3.4567    9.7779   16.2293 O.2       1 RES1    0.0000
      7 O2         5.0913    8.3534   16.1831 O.2       1 RES1    0.0000
      8 O3         2.2959    9.9329   13.7973 O.3       1 RES1    0.0000
      9 O4         2.8896   10.5728   11.2264 O.3       1 RES1    0.0000
     10 O5         2.8593   12.5911    8.5342 O.3       1 RES1    0.0000
     11 O6         5.2815   13.7964    4.5381 O.3       1 RES1    0.0000
     12 O7         6.9175   10.4006    9.9251 O.2       1 RES1    0.0000
     13 O8         8.4768   11.5247    5.9830 O.2       1 RES1    0.0000
     14 O9         7.5779   14.1952    2.0559 O.3       1 RES1    0.0000
     15 C1         4.6271    9.5068   14.2404 C.ar      1 RES1    0.0000
     16 C2         3.6017    9.9175   13.3951 C.ar      1 RES1    0.0000
     17 C3         3.9245   10.2136   12.0638 C.ar      1 RES1    0.0000
     18 C4         5.2496   10.1816   11.6126 C.ar      1 RES1    0.0000
     19 C5         6.2401    9.7597   12.5023 C.ar      1 RES1    0.0000
     20 H3         7.1434    9.7202   12.2105 H         1 RES1    0.0000
     21 C6         5.9280    9.3992   13.8002 C.ar      1 RES1    0.0000
     22 H4         6.6054    9.0791   14.3838 H         1 RES1    0.0000
     23 C7         5.7442   10.5847   10.2343 C.2       1 RES1    0.0000
     24 C8         5.0276   11.7968    8.1864 C.ar      1 RES1    0.0000
     25 C9         3.9458   12.5599    7.7240 C.ar      1 RES1    0.0000
     26 C10        4.0280   13.2238    6.5074 C.ar      1 RES1    0.0000
     27 H5         3.2913   13.7385    6.1990 H         1 RES1    0.0000
     28 C11        5.1821   13.1387    5.7386 C.ar      1 RES1    0.0000
     29 C12        6.2731   12.3741    6.1689 C.ar      1 RES1    0.0000
     30 C13        6.1602   11.7093    7.4058 C.ar      1 RES1    0.0000
     31 H6         6.8896   11.1827    7.7123 H         1 RES1    0.0000
     32 C14        7.5810   12.1772    5.4597 C.2       1 RES1    0.0000
     33 C15        8.8137   12.6863    3.3573 C.ar      1 RES1    0.0000
     34 C16        8.7188   13.4533    2.1802 C.ar      1 RES1    0.0000
     35 C17        9.7375   13.4192    1.2391 C.ar      1 RES1    0.0000
     36 H7         9.6707   13.9375    0.4455 H         1 RES1    0.0000
     37 C18       10.8565   12.6247    1.4620 C.ar      1 RES1    0.0000
     38 H8        11.5491   12.6011    0.8116 H         1 RES1    0.0000
     39 C19       10.9789   11.8658    2.6161 C.ar      1 RES1    0.0000
     40 C20        9.9520   11.9100    3.5638 C.ar      1 RES1    0.0000
     41 H9        10.0317   11.4023    4.3629 H         1 RES1    0.0000
     42 C21        1.7728   11.2490   14.0321 C.3       1 RES1    0.0000
     43 H10        0.8422   11.1821   14.3333 H         1 RES1    0.0000
     44 H11        1.8112   11.7686   13.2025 H         1 RES1    0.0000
     45 H12        2.3075   11.6950   14.7229 H         1 RES1    0.0000
     46 C22        2.0357    9.4680   10.8386 C.3       1 RES1    0.0000
     47 H13        1.2740    9.8081   10.3239 H         1 RES1    0.0000
     48 H14        1.7095    9.0102   11.6405 H         1 RES1    0.0000
     49 H15        2.5460    8.8386   10.2878 H         1 RES1    0.0000
     50 C23        7.5097   15.0557    0.9081 C.3       1 RES1    0.0000
     51 H16        6.6549   15.5352    0.9090 H         1 RES1    0.0000
     52 H17        7.5807   14.5176    0.0920 H         1 RES1    0.0000
     53 H18        8.2466   15.7018    0.9397 H         1 RES1    0.0000
     54 C24       12.1857   11.0007    2.8575 C.3       1 RES1    0.0000
     55 H19       12.9538   11.3692    2.3736 H         1 RES1    0.0000
     56 H20       12.0042   10.0917    2.5395 H         1 RES1    0.0000
     57 H21       12.3850   10.9776    3.8165 H         1 RES1    0.0000
     58 C25        1.7414   13.4015    8.1219 C.3       1 RES1    0.0000
     59 H22        1.4522   13.1441    7.2109 H         1 RES1    0.0000
     60 H23        2.0001   14.3574    8.1091 H         1 RES1    0.0000
     61 C26        0.6194   13.1825    9.1012 C.3       1 RES1    0.0000
     62 H24        0.4114   12.2152    9.1317 H         1 RES1    0.0000
     63 H25       -0.1864   13.6502    8.7674 H         1 RES1    0.0000
     64 C27        0.9078   13.6601   10.5099 C.3       1 RES1    0.0000
     65 H26        1.1688   14.6140   10.4790 H         1 RES1    0.0000
     66 H27        1.6735   13.1481   10.8740 H         1 RES1    0.0000
     67 C28       -0.2854   13.5010   11.4450 C.3       1 RES1    0.0000
     68 H28       -0.0117   13.7576   12.3602 H         1 RES1    0.0000
     69 H29       -0.5513   12.5468   11.4656 H         1 RES1    0.0000
     70 C29       -1.4927   14.3427   11.0343 C.3       1 RES1    0.0000
     71 H30       -1.1948   15.2721   10.8686 H         1 RES1    0.0000
     72 H31       -1.8576   13.9880   10.1850 H         1 RES1    0.0000
     73 C30       -2.5999   14.3566   12.0813 C.3       1 RES1    0.0000
     74 H32       -2.8987   13.4268   12.2429 H         1 RES1    0.0000
     75 H33       -2.2314   14.7063   12.9319 H         1 RES1    0.0000
     76 C31       -3.8069   15.1984   11.6871 C.3       1 RES1    0.0000
     77 H34       -4.2100   14.8226   10.8650 H         1 RES1    0.0000
     78 H35       -3.5077   16.1201   11.4836 H         1 RES1    0.0000
     79 C32       -4.8641   15.2474   12.7838 C.3       1 RES1    0.0000
     80 H36       -5.6163   15.8011   12.4882 H         1 RES1    0.0000
     81 H37       -4.4745   15.6337   13.5957 H         1 RES1    0.0000
     82 H38       -5.1809   14.3401   12.9734 H         1 RES1    0.0000
     83 C33        4.1850   14.6437    4.1433 C.3       1 RES1    0.0000
     84 H39        4.0494   15.3606    4.8120 H         1 RES1    0.0000
     85 H40        3.3513   14.1137    4.0780 H         1 RES1    0.0000
     86 C34        4.5262   15.2435    2.8023 C.3       1 RES1    0.0000
     87 H41        4.6101   14.5226    2.1283 H         1 RES1    0.0000
     88 H42        5.3961   15.7116    2.8605 H         1 RES1    0.0000
     89 C35        3.4436   16.2306    2.3617 C.3       1 RES1    0.0000
     90 H43        2.5569   15.8020    2.4619 H         1 RES1    0.0000
     91 H44        3.4668   17.0205    2.9579 H         1 RES1    0.0000
     92 C36        3.6098   16.6939    0.9157 C.3       1 RES1    0.0000
     93 H45        4.5153   17.0778    0.7990 H         1 RES1    0.0000
     94 H46        3.5318   15.9125    0.3138 H         1 RES1    0.0000
     95 C37        2.5690   17.7379    0.5198 C.3       1 RES1    0.0000
     96 H47        1.6668   17.3418    0.6186 H         1 RES1    0.0000
     97 H48        2.6314   18.5040    1.1453 H         1 RES1    0.0000
     98 C38        2.7242   18.2529   -0.9018 C.3       1 RES1    0.0000
     99 H49        2.6528   17.4932   -1.5331 H         1 RES1    0.0000
    100 H50        3.6240   18.6515   -1.0064 H         1 RES1    0.0000
    101 C39        1.6679   19.2987   -1.2559 C.3       1 RES1    0.0000
    102 H51        0.7694   18.9048   -1.1255 H         1 RES1    0.0000
    103 H52        1.7541   20.0654   -0.6349 H         1 RES1    0.0000
    104 C40        1.7814   19.8055   -2.6838 C.3       1 RES1    0.0000
    105 H53        1.1259   20.5187   -2.8299 H         1 RES1    0.0000
    106 H54        1.6086   19.0685   -3.3060 H         1 RES1    0.0000
    107 H55        2.6846   20.1552   -2.8353 H         1 RES1    0.0000
@<TRIPOS>BOND
     1    1    6 2
     2    2    3 1
     3    4    5 1
     4    7    1 2
     5    8   16 1
     6    9   17 1
     7   10   25 1
     8   11   28 1
     9   12   23 2
    10   13   32 2
    11   14   34 1
    12   15    1 1
    13   16   15 ar
    14   17   16 ar
    15   18   17 ar
    16   19   18 ar
    17   20   19 1
    18   21   15 ar
    19   22   21 1
    20   23    2 1
    21   24    2 1
    22   25   24 ar
    23   26   25 ar
    24   27   26 1
    25   28   26 ar
    26   29   28 ar
    27   30   24 ar
    28   31   30 1
    29   32    4 1
    30   33    4 1
    31   34   33 ar
    32   35   34 ar
    33   36   35 1
    34   37   35 ar
    35   38   37 1
    36   39   37 ar
    37   40   33 ar
    38   41   40 1
    39   42    8 1
    40   43   42 1
    41   44   42 1
    42   45   42 1
    43   46    9 1
    44   47   46 1
    45   48   46 1
    46   49   46 1
    47   50   14 1
    48   51   50 1
    49   52   50 1
    50   53   50 1
    51   54   39 1
    52   55   54 1
    53   56   54 1
    54   57   54 1
    55   58   10 1
    56   59   58 1
    57   60   58 1
    58   61   58 1
    59   62   61 1
    60   63   61 1
    61   64   61 1
    62   65   64 1
    63   66   64 1
    64   67   64 1
    65   68   67 1
    66   69   67 1
    67   70   67 1
    68   71   70 1
    69   72   70 1
    70   73   70 1
    71   74   73 1
    72   75   73 1
    73   76   73 1
    74   77   76 1
    75   78   76 1
    76   79   76 1
    77   80   79 1
    78   81   79 1
    79   82   79 1
    80   83   11 1
    81   84   83 1
    82   85   83 1
    83   86   83 1
    84   87   86 1
    85   88   86 1
    86   89   86 1
    87   90   89 1
    88   91   89 1
    89   92   89 1
    90   93   92 1
    91   94   92 1
    92   95   92 1
    93   96   95 1
    94   97   95 1
    95   98   95 1
    96   99   98 1
    97  100   98 1
    98  101   98 1
    99  102  101 1
   100  103  101 1
   101  104  101 1
   102  105  104 1
   103  106  104 1
   104  107  104 1
   105   18   23 1
   106   19   21 ar
   107   29   30 ar
   108   29   32 1
   109   39   40 ar
@<TRIPOS>SUBSTRUCTURE
     1 RES1 1

@<TRIPOS>CRYSIN
   8.3080   12.7370   19.3940  72.4370  77.7440  89.5520   2 1

