# MOL2 file generated by ConQuest
# Please check atom types

@<TRIPOS>MOLECULE
IPUWEW
    45    45     1
SMALL
NO_CHARGES
****
Generated from CSD

@<TRIPOS>ATOM
      1 O1         2.7451    6.5963    6.5592 O.2       1 RES1    0.0000
      2 O2         5.4602    8.0219    6.2785 O.3       1 RES1    0.0000
      3 H1         6.1879    7.5868    6.4904 H         1 RES1    0.0000
      4 O3         6.7876    4.7346    3.8956 O.2       1 RES1    0.0000
      5 O4         5.2043    3.8358    2.5138 O.3       1 RES1    0.0000
      6 O5        -1.4635    5.0701   10.9068 O.2       1 RES1    0.0000
      7 O6        -2.2535    3.4666   12.1212 O.2       1 RES1    0.0000
      8 N1         2.3459    4.1920    7.7709 N.2       1 RES1    0.0000
      9 N2         3.4100    4.4468    6.9208 N.am      1 RES1    0.0000
     10 H2         3.9600    3.7785    6.6523 H         1 RES1    0.0000
     11 N3         4.5603    5.0230    4.2572 N.am      1 RES1    0.0000
     12 H3         3.7889    4.8370    3.9671 H         1 RES1    0.0000
     13 N4        -1.4809    3.8958   11.2900 N.pl3     1 RES1    0.0000
     14 C1         1.3195    2.5778    9.2093 C.ar      1 RES1    0.0000
     15 C2         0.3707    3.4626    9.7220 C.ar      1 RES1    0.0000
     16 H4         0.3193    4.3601    9.4144 H         1 RES1    0.0000
     17 C3        -0.4906    2.9900   10.6922 C.ar      1 RES1    0.0000
     18 C4        -0.4776    1.6790   11.1793 C.ar      1 RES1    0.0000
     19 H5        -1.0983    1.3876   11.8378 H         1 RES1    0.0000
     20 C5         0.4820    0.8267   10.6598 C.ar      1 RES1    0.0000
     21 H6         0.5367   -0.0679   10.9742 H         1 RES1    0.0000
     22 C6         1.3640    1.2630    9.6843 C.ar      1 RES1    0.0000
     23 H7         2.0083    0.6606    9.3334 H         1 RES1    0.0000
     24 C7         2.3328    2.9980    8.2432 C.2       1 RES1    0.0000
     25 H8         2.9929    2.3772    7.9598 H         1 RES1    0.0000
     26 C8         3.5338    5.6689    6.3662 C.2       1 RES1    0.0000
     27 C9         4.7545    5.8254    5.4622 C.3       1 RES1    0.0000
     28 H9         5.5508    5.4675    5.9506 H         1 RES1    0.0000
     29 C10        5.0179    7.2821    5.1329 C.3       1 RES1    0.0000
     30 H10        5.7071    7.3362    4.4245 H         1 RES1    0.0000
     31 H11        4.1877    7.6916    4.7821 H         1 RES1    0.0000
     32 C11        5.6301    4.5494    3.5690 C.2       1 RES1    0.0000
     33 C12        6.1843    3.3180    1.5261 C.3       1 RES1    0.0000
     34 C13        7.0778    2.2689    2.1738 C.3       1 RES1    0.0000
     35 H12        7.7201    2.7091    2.7689 H         1 RES1    0.0000
     36 H13        7.5613    1.7771    1.4789 H         1 RES1    0.0000
     37 H14        6.5269    1.6457    2.6919 H         1 RES1    0.0000
     38 C14        5.2657    2.6365    0.5074 C.3       1 RES1    0.0000
     39 H15        4.7543    1.9275    0.9513 H         1 RES1    0.0000
     40 H16        5.8060    2.2481   -0.2118 H         1 RES1    0.0000
     41 H17        4.6481    3.2980    0.1309 H         1 RES1    0.0000
     42 C15        6.9474    4.4530    0.8744 C.3       1 RES1    0.0000
     43 H18        6.3231    5.1675    0.6301 H         1 RES1    0.0000
     44 H19        7.3990    4.1227    0.0702 H         1 RES1    0.0000
     45 H20        7.6129    4.8024    1.5032 H         1 RES1    0.0000
@<TRIPOS>BOND
     1    1   26 2
     2    2    3 1
     3    4   32 2
     4    5   32 1
     5    6   13 2
     6    7   13 2
     7    8    9 1
     8    9   10 1
     9   11   12 1
    10   13   17 1
    11   14   15 ar
    12   15   16 1
    13   17   15 ar
    14   18   17 ar
    15   19   18 1
    16   20   18 ar
    17   21   20 1
    18   22   14 ar
    19   23   22 1
    20   24    8 2
    21   25   24 1
    22   26    9 1
    23   27   11 1
    24   28   27 1
    25   29    2 1
    26   30   29 1
    27   31   29 1
    28   32   11 1
    29   33    5 1
    30   34   33 1
    31   35   34 1
    32   36   34 1
    33   37   34 1
    34   38   33 1
    35   39   38 1
    36   40   38 1
    37   41   38 1
    38   42   33 1
    39   43   42 1
    40   44   42 1
    41   45   42 1
    42   14   24 1
    43   20   22 ar
    44   26   27 1
    45   27   29 1
@<TRIPOS>SUBSTRUCTURE
     1 RES1 1

@<TRIPOS>CRYSIN
   5.1176    6.1315   13.6700  80.7940  89.4780  83.8570   1 1

