# MOL2 file generated by ConQuest
# Please check atom types

@<TRIPOS>MOLECULE
IPUZEZ
    36    38     1
SMALL
NO_CHARGES
****
Generated from CSD

@<TRIPOS>ATOM
      1 N1         9.6046    2.7067    7.0744 N.pl3     1 RES1    0.0000
      2 O1         9.2190    1.8284    6.3443 O.2       1 RES1    0.0000
      3 O2        10.2834    2.5450    8.0622 O.2       1 RES1    0.0000
      4 O3         9.9058    5.0226    7.4084 O.3       1 RES1    0.0000
      5 O4         5.7505    5.2446    9.3849 O.2       1 RES1    0.0000
      6 O5         4.0547    6.1565    3.2464 O.3       1 RES1    0.0000
      7 C1         4.2256    7.4086    2.6207 C.3       1 RES1    0.0000
      8 H1         3.5123    7.5540    1.9963 H         1 RES1    0.0000
      9 H2         5.0660    7.4214    2.1549 H         1 RES1    0.0000
     10 H3         4.2159    8.1018    3.2853 H         1 RES1    0.0000
     11 C2         4.9788    5.7697    4.1790 C.ar      1 RES1    0.0000
     12 C3         6.0333    6.5430    4.6127 C.ar      1 RES1    0.0000
     13 H4         6.1712    7.3894    4.2533 H         1 RES1    0.0000
     14 C4         6.8872    6.0489    5.5891 C.ar      1 RES1    0.0000
     15 H5         7.5919    6.5785    5.8850 H         1 RES1    0.0000
     16 C5         6.7167    4.7940    6.1324 C.ar      1 RES1    0.0000
     17 C6         5.6695    4.0186    5.6610 C.ar      1 RES1    0.0000
     18 H6         5.5442    3.1615    5.9999 H         1 RES1    0.0000
     19 C7         4.8095    4.4996    4.6954 C.ar      1 RES1    0.0000
     20 H7         4.1112    3.9654    4.3901 H         1 RES1    0.0000
     21 C8         7.6386    4.2531    7.2030 C.3       1 RES1    0.0000
     22 H8         7.3056    3.3864    7.5167 H         1 RES1    0.0000
     23 C9         9.1107    4.1045    6.7186 C.3       1 RES1    0.0000
     24 H9         9.1706    4.2549    5.7519 H         1 RES1    0.0000
     25 C10        9.1397    5.5491    8.4234 C.2       1 RES1    0.0000
     26 C11        7.8684    5.1609    8.3789 C.2       1 RES1    0.0000
     27 C12        6.9248    5.5689    9.4086 C.2       1 RES1    0.0000
     28 C13        7.5323    6.3628   10.5387 C.3       1 RES1    0.0000
     29 H10        7.8222    5.7477   11.2304 H         1 RES1    0.0000
     30 H11        6.8472    6.9325   10.9223 H         1 RES1    0.0000
     31 C14        8.7064    7.2241   10.1298 C.3       1 RES1    0.0000
     32 H12        9.0909    7.6285   10.9223 H         1 RES1    0.0000
     33 H13        8.3883    7.9386    9.5568 H         1 RES1    0.0000
     34 C15        9.7856    6.4451    9.3976 C.3       1 RES1    0.0000
     35 H14       10.3834    7.0574    8.9388 H         1 RES1    0.0000
     36 H15       10.3057    5.9265   10.0308 H         1 RES1    0.0000
@<TRIPOS>BOND
     1    1    2 2
     2    3    1 2
     3    4   23 1
     4    5   27 2
     5    6    7 1
     6    7    8 1
     7    9    7 1
     8   10    7 1
     9   11    6 1
    10   12   11 ar
    11   13   12 1
    12   14   12 ar
    13   15   14 1
    14   16   14 ar
    15   17   16 ar
    16   18   17 1
    17   19   11 ar
    18   20   19 1
    19   21   16 1
    20   22   21 1
    21   23    1 1
    22   24   23 1
    23   25    4 1
    24   26   21 1
    25   27   26 1
    26   28   27 1
    27   29   28 1
    28   30   28 1
    29   31   28 1
    30   32   31 1
    31   33   31 1
    32   34   25 1
    33   35   34 1
    34   36   34 1
    35   17   19 ar
    36   21   23 1
    37   25   26 2
    38   31   34 1
@<TRIPOS>SUBSTRUCTURE
     1 RES1 1

@<TRIPOS>CRYSIN
  22.0833    7.0950   20.9180  90.0000 119.3600  90.0000  15 1

