# MOL2 file generated by ConQuest
# Please check atom types

@<TRIPOS>MOLECULE
IQAJAL
    49    51     1
SMALL
NO_CHARGES
****
Generated from CSD

@<TRIPOS>ATOM
      1 O1        -2.9194    8.3384   14.4396 O.2       1 RES1    0.0000
      2 N1        -2.2710    8.3699   15.4952 N.pl3     1 RES1    0.0000
      3 N2        -0.4137    6.3596   12.1736 N.2       1 RES1    0.0000
      4 C1        -0.3543    7.1705   14.3966 C.ar      1 RES1    0.0000
      5 N3        -0.9984    7.0491   13.2236 N.3       1 RES1    0.0000
      6 H1        -1.7773    7.4010   13.1236 H         1 RES1    0.0000
      7 C2        -0.9518    7.7775   15.5365 C.ar      1 RES1    0.0000
      8 N4         1.6041    7.2983   18.1625 N.pl3     1 RES1    0.0000
      9 O2         0.9706    7.6985   19.1335 O.2       1 RES1    0.0000
     10 C3         1.6095    6.7363   15.7608 C.ar      1 RES1    0.0000
     11 H2         2.4810    6.4213   15.8421 H         1 RES1    0.0000
     12 C4        -0.3103    7.7996   16.7655 C.ar      1 RES1    0.0000
     13 H3        -0.7320    8.1650   17.5113 H         1 RES1    0.0000
     14 O3         2.7652    6.9178   18.2268 O.2       1 RES1    0.0000
     15 C5         0.9450    7.2789   16.8702 C.ar      1 RES1    0.0000
     16 O4        -2.7175    8.8832   16.5134 O.2       1 RES1    0.0000
     17 O5         1.1498    5.3900    8.4202 O.3       1 RES1    0.0000
     18 C6        -1.1983    6.0626   11.2020 C.2       1 RES1    0.0000
     19 C7         0.9626    6.6764   14.5616 C.ar      1 RES1    0.0000
     20 H4         1.3989    6.3006   13.8319 H         1 RES1    0.0000
     21 C8        -1.5908    2.8882   11.1741 C.2       1 RES1    0.0000
     22 H5        -1.4206    2.7557   12.0775 H         1 RES1    0.0000
     23 C9        -2.6675    6.3990   11.1380 C.3       1 RES1    0.0000
     24 H6        -3.0030    6.1238   10.2706 H         1 RES1    0.0000
     25 H7        -2.7593    7.3636   11.1888 H         1 RES1    0.0000
     26 C10       -0.5467    5.3893   10.0135 C.3       1 RES1    0.0000
     27 H8        -1.2570    5.0859    9.4115 H         1 RES1    0.0000
     28 C11        1.4873    4.3060    9.2869 C.3       1 RES1    0.0000
     29 H9         2.3326    4.4807    9.7296 H         1 RES1    0.0000
     30 H10        1.5697    3.4838    8.7786 H         1 RES1    0.0000
     31 C12        0.3938    6.2963    9.2144 C.3       1 RES1    0.0000
     32 H11       -0.1075    6.9115    8.6572 H         1 RES1    0.0000
     33 H12        0.9711    6.8044    9.8050 H         1 RES1    0.0000
     34 C13       -0.4176    2.8649   10.2438 C.3       1 RES1    0.0000
     35 H13       -0.7266    2.7269    9.3361 H         1 RES1    0.0000
     36 H14        0.1672    2.1275   10.4772 H         1 RES1    0.0000
     37 C14       -2.8418    3.0806   10.8173 C.2       1 RES1    0.0000
     38 H15       -3.0312    3.0971    9.9066 H         1 RES1    0.0000
     39 C15       -3.5758    5.7680   12.2293 C.3       1 RES1    0.0000
     40 H16       -3.0095    5.3770   12.9137 H         1 RES1    0.0000
     41 H17       -4.0895    6.4759   12.6481 H         1 RES1    0.0000
     42 C16        0.3591    4.1813   10.3257 C.3       1 RES1    0.0000
     43 H18        0.7346    4.2809   11.2249 H         1 RES1    0.0000
     44 C17       -4.5449    4.6949   11.7335 C.3       1 RES1    0.0000
     45 H19       -5.3467    4.7243   12.2808 H         1 RES1    0.0000
     46 H20       -4.8031    4.9062   10.8216 H         1 RES1    0.0000
     47 C18       -3.9829    3.2746   11.7663 C.3       1 RES1    0.0000
     48 H21       -3.6840    3.0741   12.6678 H         1 RES1    0.0000
     49 H22       -4.6906    2.6493   11.5430 H         1 RES1    0.0000
@<TRIPOS>BOND
     1    1    2 2
     2    2    7 1
     3    3    5 1
     4    4    5 1
     5    5    6 1
     6    7    4 ar
     7    8    9 2
     8   10   11 1
     9   12    7 ar
    10   13   12 1
    11   14    8 2
    12   15    8 1
    13   16    2 2
    14   17   28 1
    15   18    3 2
    16   19    4 ar
    17   20   19 1
    18   21   22 1
    19   23   18 1
    20   24   23 1
    21   25   23 1
    22   26   18 1
    23   27   26 1
    24   28   29 1
    25   30   28 1
    26   31   17 1
    27   32   31 1
    28   33   31 1
    29   34   21 1
    30   35   34 1
    31   36   34 1
    32   37   21 2
    33   38   37 1
    34   39   23 1
    35   40   39 1
    36   41   39 1
    37   42   26 1
    38   43   42 1
    39   44   39 1
    40   45   44 1
    41   46   44 1
    42   47   37 1
    43   48   47 1
    44   49   47 1
    45   10   19 ar
    46   10   15 ar
    47   12   15 ar
    48   26   31 1
    49   28   42 1
    50   34   42 1
    51   44   47 1
@<TRIPOS>SUBSTRUCTURE
     1 RES1 1

@<TRIPOS>CRYSIN
  14.8687    7.1875   33.2730  90.0000  99.7480  90.0000  15 1

