# MOL2 file generated by ConQuest
# Please check atom types

@<TRIPOS>MOLECULE
IQAVEB
    81    82     1
SMALL
NO_CHARGES
****
Generated from CSD

@<TRIPOS>ATOM
      1 O1         5.8457    0.3121   -3.5755 O.2       1 RES1    0.0000
      2 O2         3.8935   -0.4649   -3.0165 O.2       1 RES1    0.0000
      3 N1         6.5473    1.8018    0.0520 N.3       1 RES1    0.0000
      4 N2         4.4594    0.4097    0.8498 N.2       1 RES1    0.0000
      5 N3         4.9540    0.1105   -2.7358 N.pl3     1 RES1    0.0000
      6 C1         5.1562    0.5404   -1.3858 C.2       1 RES1    0.0000
      7 C2         6.2500    1.3635   -1.1529 C.2       1 RES1    0.0000
      8 C3         4.2428    0.0921   -0.3741 C.2       1 RES1    0.0000
      9 C4         7.5928    2.6810    0.4282 C.ar      1 RES1    0.0000
     10 C5         8.4616    3.2427   -0.4917 C.ar      1 RES1    0.0000
     11 C6         9.4736    4.1017   -0.0588 C.ar      1 RES1    0.0000
     12 C7         9.5780    4.3595    1.3058 C.ar      1 RES1    0.0000
     13 C8         8.7238    3.7868    2.2540 C.ar      1 RES1    0.0000
     14 C9         7.7234    2.9416    1.7905 C.ar      1 RES1    0.0000
     15 C10       10.4268    4.6946   -1.0988 C.3       1 RES1    0.0000
     16 C11       11.1773    3.5824   -1.7858 C.3       1 RES1    0.0000
     17 C12        9.5996    5.4523   -2.1857 C.3       1 RES1    0.0000
     18 C13       11.3809    5.7083   -0.5059 C.3       1 RES1    0.0000
     19 C14        8.9019    4.1127    3.7480 C.3       1 RES1    0.0000
     20 C15       10.3242    3.7444    4.1903 C.3       1 RES1    0.0000
     21 C16        7.9264    3.3430    4.6350 C.3       1 RES1    0.0000
     22 C17        8.6722    5.6107    3.9598 C.3       1 RES1    0.0000
     23 C18        3.5922    0.0331    1.9058 C.ar      1 RES1    0.0000
     24 C19        4.1999   -0.2182    3.1316 C.ar      1 RES1    0.0000
     25 C20        3.4526   -0.5607    4.2491 C.ar      1 RES1    0.0000
     26 C21        2.0595   -0.5920    4.1150 C.ar      1 RES1    0.0000
     27 C22        1.4172   -0.3112    2.9104 C.ar      1 RES1    0.0000
     28 C23        2.2043   -0.0037    1.7999 C.ar      1 RES1    0.0000
     29 C24        4.1634   -0.8480    5.5738 C.3       1 RES1    0.0000
     30 C25        5.1775   -1.9813    5.3691 C.3       1 RES1    0.0000
     31 C26        3.1978   -1.2549    6.6749 C.3       1 RES1    0.0000
     32 C27        4.9150    0.4189    6.0231 C.3       1 RES1    0.0000
     33 C28       -0.1228   -0.2780    2.7998 C.3       1 RES1    0.0000
     34 C29       -0.8134   -0.5975    4.1292 C.3       1 RES1    0.0000
     35 C30       -0.5873   -1.3138    1.7740 C.3       1 RES1    0.0000
     36 C31       -0.5672    1.1186    2.3481 C.3       1 RES1    0.0000
     37 H1         6.7951    1.6269   -1.8869 H         1 RES1    0.0000
     38 H2         3.4858   -0.4327   -0.6070 H         1 RES1    0.0000
     39 H3         8.3562    3.0558   -1.4164 H         1 RES1    0.0000
     40 H4        10.2606    4.9478    1.6046 H         1 RES1    0.0000
     41 H5         7.1236    2.5347    2.4046 H         1 RES1    0.0000
     42 H6        10.5583    3.0005   -2.2116 H         1 RES1    0.0000
     43 H7        11.7690    3.9452   -2.4351 H         1 RES1    0.0000
     44 H8        11.6755    3.0963   -1.1388 H         1 RES1    0.0000
     45 H9         9.1111    6.1567   -1.7764 H         1 RES1    0.0000
     46 H10       10.1853    5.8114   -2.8398 H         1 RES1    0.0000
     47 H11        8.9952    4.8474   -2.5998 H         1 RES1    0.0000
     48 H12       11.9103    5.2838    0.1600 H         1 RES1    0.0000
     49 H13       11.9440    6.0637   -1.1811 H         1 RES1    0.0000
     50 H14       10.8792    6.4108   -0.1082 H         1 RES1    0.0000
     51 H15       10.4554    2.8099    4.0844 H         1 RES1    0.0000
     52 H16       10.9538    4.2149    3.6562 H         1 RES1    0.0000
     53 H17       10.4452    3.9801    5.1032 H         1 RES1    0.0000
     54 H18        7.0345    3.5502    4.3833 H         1 RES1    0.0000
     55 H19        8.0784    2.4122    4.5268 H         1 RES1    0.0000
     56 H20        8.0630    3.5833    5.5432 H         1 RES1    0.0000
     57 H21        8.8286    5.8280    4.8726 H         1 RES1    0.0000
     58 H22        9.2699    6.1051    3.4115 H         1 RES1    0.0000
     59 H23        7.7767    5.8298    3.7315 H         1 RES1    0.0000
     60 H24        5.1444   -0.1574    3.2045 H         1 RES1    0.0000
     61 H25        1.5339   -0.8185    4.8726 H         1 RES1    0.0000
     62 H26        1.7915    0.1740    0.9646 H         1 RES1    0.0000
     63 H27        4.7160   -2.7713    5.1126 H         1 RES1    0.0000
     64 H28        5.7911   -1.7364    4.6844 H         1 RES1    0.0000
     65 H29        5.6502   -2.1388    6.1784 H         1 RES1    0.0000
     66 H30        2.5714   -0.5552    6.8160 H         1 RES1    0.0000
     67 H31        2.7360   -2.0430    6.4114 H         1 RES1    0.0000
     68 H32        3.6770   -1.4206    7.4772 H         1 RES1    0.0000
     69 H33        5.3929    0.2394    6.8255 H         1 RES1    0.0000
     70 H34        5.5252    0.6804    5.3432 H         1 RES1    0.0000
     71 H35        4.2919    1.1196    6.1784 H         1 RES1    0.0000
     72 H36       -0.5453    0.0377    4.7832 H         1 RES1    0.0000
     73 H37       -1.7560   -0.5570    4.0186 H         1 RES1    0.0000
     74 H38       -0.5649   -1.4694    4.4138 H         1 RES1    0.0000
     75 H39       -1.5301   -1.2595    1.6728 H         1 RES1    0.0000
     76 H40       -0.1682   -1.1417    0.9388 H         1 RES1    0.0000
     77 H41       -0.3493   -2.1839    2.0728 H         1 RES1    0.0000
     78 H42       -0.3142    1.7594    3.0022 H         1 RES1    0.0000
     79 H43       -0.1546    1.3313    1.5199 H         1 RES1    0.0000
     80 H44       -1.5110    1.1306    2.2446 H         1 RES1    0.0000
     81 H45        5.9606    1.5320    0.7214 H         1 RES1    0.0000
@<TRIPOS>BOND
     1    1    5 2
     2    2    5 2
     3    3    7 1
     4    4    8 2
     5    5    6 1
     6    6    7 2
     7    7   37 1
     8    8    6 1
     9    9    3 1
    10   10    9 ar
    11   11   10 ar
    12   12   11 ar
    13   13   12 ar
    14   14    9 ar
    15   15   11 1
    16   16   15 1
    17   17   15 1
    18   18   15 1
    19   19   13 1
    20   20   19 1
    21   21   19 1
    22   22   19 1
    23   23    4 1
    24   24   23 ar
    25   25   24 ar
    26   26   25 ar
    27   27   26 ar
    28   28   23 ar
    29   29   25 1
    30   30   29 1
    31   31   29 1
    32   32   29 1
    33   33   27 1
    34   34   33 1
    35   35   33 1
    36   36   33 1
    37   38    8 1
    38   39   10 1
    39   40   12 1
    40   41   14 1
    41   42   16 1
    42   43   16 1
    43   44   16 1
    44   45   17 1
    45   46   17 1
    46   47   17 1
    47   48   18 1
    48   49   18 1
    49   50   18 1
    50   51   20 1
    51   52   20 1
    52   53   20 1
    53   54   21 1
    54   55   21 1
    55   56   21 1
    56   57   22 1
    57   58   22 1
    58   59   22 1
    59   60   24 1
    60   61   26 1
    61   62   28 1
    62   63   30 1
    63   64   30 1
    64   65   30 1
    65   66   31 1
    66   67   31 1
    67   68   31 1
    68   69   32 1
    69   70   32 1
    70   71   32 1
    71   72   34 1
    72   73   34 1
    73   74   34 1
    74   75   35 1
    75   76   35 1
    76   77   35 1
    77   78   36 1
    78   79   36 1
    79   80   36 1
    80   81    3 1
    81   13   14 ar
    82   27   28 ar
@<TRIPOS>SUBSTRUCTURE
     1 RES1 1

@<TRIPOS>CRYSIN
  13.6374    9.2069   23.8174  90.0000  98.9420  90.0000 231 1

