# MOL2 file generated by ConQuest
# Please check atom types

@<TRIPOS>MOLECULE
IQAYUV
    52    54     1
SMALL
NO_CHARGES
****
Generated from CSD

@<TRIPOS>ATOM
      1 O1        -0.6352    0.9955   11.2542 O.3       1 RES1    0.0000
      2 O2         5.1394    3.8471    6.1539 O.2       1 RES1    0.0000
      3 O3         5.9052    2.7593    4.4606 O.2       1 RES1    0.0000
      4 O4         0.9320    3.1755    3.1362 O.3       1 RES1    0.0000
      5 N1         2.6734    2.6802    7.0902 N.pl3     1 RES1    0.0000
      6 H1         2.9727    3.5056    7.1418 H         1 RES1    0.0000
      7 N2         4.9914    3.1413    5.1681 N.pl3     1 RES1    0.0000
      8 C1         2.6692    6.0981    3.0314 C.3       1 RES1    0.0000
      9 H2         3.0555    6.5249    2.2387 H         1 RES1    0.0000
     10 H3         2.8086    6.6728    3.8133 H         1 RES1    0.0000
     11 H4         1.7089    5.9610    2.8941 H         1 RES1    0.0000
     12 C2         3.3461    4.7503    3.2650 C.3       1 RES1    0.0000
     13 H5         4.3179    4.8923    3.3918 H         1 RES1    0.0000
     14 H6         3.2233    4.1823    2.4639 H         1 RES1    0.0000
     15 C3         2.7788    4.0203    4.4928 C.3       1 RES1    0.0000
     16 H7         2.8730    4.6316    5.2786 H         1 RES1    0.0000
     17 C4         3.5774    2.7392    4.7981 C.3       1 RES1    0.0000
     18 H8         3.6142    2.1854    3.9667 H         1 RES1    0.0000
     19 C5         3.0072    1.8658    5.9408 C.3       1 RES1    0.0000
     20 H9         2.1430    1.4921    5.6026 H         1 RES1    0.0000
     21 C6         3.9031    0.6715    6.2288 C.ar      1 RES1    0.0000
     22 C7         3.8514   -0.4534    5.4124 C.ar      1 RES1    0.0000
     23 H10        3.2582   -0.4659    4.6704 H         1 RES1    0.0000
     24 C8         4.6491   -1.5513    5.6637 C.ar      1 RES1    0.0000
     25 H11        4.6027   -2.3093    5.0930 H         1 RES1    0.0000
     26 C9         5.5136   -1.5529    6.7390 C.ar      1 RES1    0.0000
     27 H12        6.0621   -2.3093    6.9123 H         1 RES1    0.0000
     28 C10        5.5747   -0.4430    7.5637 C.ar      1 RES1    0.0000
     29 H13        6.1659   -0.4400    8.3078 H         1 RES1    0.0000
     30 C11        4.7808    0.6617    7.3113 C.ar      1 RES1    0.0000
     31 H14        4.8346    1.4200    7.8809 H         1 RES1    0.0000
     32 C12        1.3231    3.7204    4.3241 C.2       1 RES1    0.0000
     33 C13        0.2648    3.9085    5.1277 C.2       1 RES1    0.0000
     34 H15        0.2708    4.2673    6.0070 H         1 RES1    0.0000
     35 C14       -0.8828    3.4532    4.3829 C.2       1 RES1    0.0000
     36 H16       -1.7861    3.4557    4.6768 H         1 RES1    0.0000
     37 C15       -0.4319    3.0295    3.2072 C.2       1 RES1    0.0000
     38 H17       -0.9760    2.6754    2.5133 H         1 RES1    0.0000
     39 C16        1.8775    2.1638    8.1205 C.ar      1 RES1    0.0000
     40 C17        1.1902    0.9611    8.0284 C.ar      1 RES1    0.0000
     41 H18        1.2966    0.4197    7.2555 H         1 RES1    0.0000
     42 C18        0.3453    0.5375    9.0552 C.ar      1 RES1    0.0000
     43 H19       -0.1321   -0.2792    8.9675 H         1 RES1    0.0000
     44 C19        0.1994    1.2996   10.1973 C.ar      1 RES1    0.0000
     45 C20        0.9246    2.4811   10.3190 C.ar      1 RES1    0.0000
     46 H20        0.8551    2.9953   11.1150 H         1 RES1    0.0000
     47 C21        1.7396    2.9137    9.3010 C.ar      1 RES1    0.0000
     48 H21        2.2161    3.7293    9.3966 H         1 RES1    0.0000
     49 C22       -1.4174   -0.1847   11.1210 C.3       1 RES1    0.0000
     50 H22       -1.9685   -0.3032   11.9227 H         1 RES1    0.0000
     51 H23       -0.8250   -0.9577   11.0142 H         1 RES1    0.0000
     52 H24       -1.9965   -0.1054   10.3341 H         1 RES1    0.0000
@<TRIPOS>BOND
     1    1   44 1
     2    2    7 2
     3    3    7 2
     4    4   32 1
     5    5    6 1
     6    7   17 1
     7    8    9 1
     8   10    8 1
     9   11    8 1
    10   12    8 1
    11   13   12 1
    12   14   12 1
    13   15   12 1
    14   16   15 1
    15   17   15 1
    16   18   17 1
    17   19    5 1
    18   20   19 1
    19   21   19 1
    20   22   21 ar
    21   23   22 1
    22   24   22 ar
    23   25   24 1
    24   26   24 ar
    25   27   26 1
    26   28   26 ar
    27   29   28 1
    28   30   21 ar
    29   31   30 1
    30   32   15 1
    31   33   32 2
    32   34   33 1
    33   35   33 1
    34   36   35 1
    35   37    4 1
    36   38   37 1
    37   39    5 1
    38   40   39 ar
    39   41   40 1
    40   42   40 ar
    41   43   42 1
    42   44   42 ar
    43   45   44 ar
    44   46   45 1
    45   47   39 ar
    46   48   47 1
    47   49    1 1
    48   50   49 1
    49   51   49 1
    50   52   49 1
    51   17   19 1
    52   28   30 ar
    53   35   37 2
    54   45   47 ar
@<TRIPOS>SUBSTRUCTURE
     1 RES1 1

@<TRIPOS>CRYSIN
  10.1090   18.4893   10.7267  90.0000  90.0110  90.0000   9 1

