# MOL2 file generated by ConQuest
# Please check atom types

@<TRIPOS>MOLECULE
IQEQEA
    52    53     1
SMALL
NO_CHARGES
****
Generated from CSD

@<TRIPOS>ATOM
      1 O1         1.7701    4.3204   -5.9440 O.3       1 RES1    0.0000
      2 O2         6.6171   -1.2621   -5.9298 O.3       1 RES1    0.0000
      3 N1         1.1266    4.4387   -4.6678 N.2       1 RES1    0.0000
      4 N2         2.5876    2.6542   -4.1936 N.3       1 RES1    0.0000
      5 H1         2.9021    2.6696   -4.9944 H         1 RES1    0.0000
      6 N3         5.0448    0.7638   -4.6443 N.3       1 RES1    0.0000
      7 C1         1.6315    3.5627   -3.8775 C.2       1 RES1    0.0000
      8 C2         3.1211    1.6569   -3.2811 C.3       1 RES1    0.0000
      9 H2         2.6818    0.8085   -3.4467 H         1 RES1    0.0000
     10 H3         2.9204    1.9217   -2.3699 H         1 RES1    0.0000
     11 C3         4.6168    1.4736   -3.4260 C.3       1 RES1    0.0000
     12 H4         5.0365    2.3484   -3.4162 H         1 RES1    0.0000
     13 H5         4.9435    0.9851   -2.6538 H         1 RES1    0.0000
     14 C4         4.6933   -0.6565   -4.5926 C.3       1 RES1    0.0000
     15 H6         3.7299   -0.7521   -4.5375 H         1 RES1    0.0000
     16 H7         5.0827   -1.0605   -3.8018 H         1 RES1    0.0000
     17 C5         5.2025   -1.3572   -5.8222 C.3       1 RES1    0.0000
     18 H8         4.9466   -2.2920   -5.7886 H         1 RES1    0.0000
     19 H9         4.7945   -0.9624   -6.6083 H         1 RES1    0.0000
     20 C6         6.9908    0.0993   -6.0018 C.3       1 RES1    0.0000
     21 H10        6.6159    0.4928   -6.8056 H         1 RES1    0.0000
     22 H11        7.9576    0.1643   -6.0597 H         1 RES1    0.0000
     23 C7         6.5085    0.8741   -4.7919 C.3       1 RES1    0.0000
     24 H12        6.9398    0.5302   -3.9940 H         1 RES1    0.0000
     25 H13        6.7546    1.8077   -4.8875 H         1 RES1    0.0000
     26 H14        1.2765    4.7752   -6.5434 H         1 RES1    0.0000
     27 C1E        1.0787    3.5627   -2.4864 C.2       1 RES1    0.0000
     28 N1E        1.5837    4.4387   -1.6961 N.2       1 RES1    0.0000
     29 O1E        0.9401    4.3204   -0.4199 O.3       1 RES1    0.0000
     30 H14E       1.4337    4.7752    0.1795 H         1 RES1    0.0000
     31 N2E        0.1227    2.6542   -2.1704 N.3       1 RES1    0.0000
     32 H1E       -0.1919    2.6696   -1.3695 H         1 RES1    0.0000
     33 C2E       -0.4109    1.6569   -3.0828 C.3       1 RES1    0.0000
     34 H2E        0.0284    0.8085   -2.9172 H         1 RES1    0.0000
     35 H3E       -0.2102    1.9217   -3.9940 H         1 RES1    0.0000
     36 C3E       -1.9066    1.4736   -2.9380 C.3       1 RES1    0.0000
     37 N3E       -2.3345    0.7638   -1.7197 N.3       1 RES1    0.0000
     38 C4E       -1.9831   -0.6565   -1.7713 C.3       1 RES1    0.0000
     39 H6E       -1.0197   -0.7521   -1.8264 H         1 RES1    0.0000
     40 H7E       -2.3725   -1.0605   -2.5621 H         1 RES1    0.0000
     41 C5E       -2.4923   -1.3572   -0.5417 C.3       1 RES1    0.0000
     42 O2E       -3.9068   -1.2621   -0.4341 O.3       1 RES1    0.0000
     43 C6E       -4.2805    0.0993   -0.3621 C.3       1 RES1    0.0000
     44 H10E      -3.9056    0.4928    0.4417 H         1 RES1    0.0000
     45 H11E      -5.2474    0.1643   -0.3042 H         1 RES1    0.0000
     46 C7E       -3.7982    0.8741   -1.5720 C.3       1 RES1    0.0000
     47 H12E      -4.2296    0.5302   -2.3699 H         1 RES1    0.0000
     48 H13E      -4.0443    1.8077   -1.4764 H         1 RES1    0.0000
     49 H8E       -2.2363   -2.2920   -0.5753 H         1 RES1    0.0000
     50 H9E       -2.0842   -0.9624    0.2444 H         1 RES1    0.0000
     51 H4E       -2.3263    2.3484   -2.9478 H         1 RES1    0.0000
     52 H5E       -2.2332    0.9851   -3.7102 H         1 RES1    0.0000
@<TRIPOS>BOND
     1    1    3 1
     2    2   17 1
     3    3    7 2
     4    4    5 1
     5    6   11 1
     6    7    4 1
     7    8    4 1
     8    9    8 1
     9   10    8 1
    10   11    8 1
    11   12   11 1
    12   13   11 1
    13   14    6 1
    14   15   14 1
    15   16   14 1
    16   17   14 1
    17   18   17 1
    18   19   17 1
    19   20    2 1
    20   21   20 1
    21   22   20 1
    22   23    6 1
    23   24   23 1
    24   25   23 1
    25   26    1 1
    26   27    7 1
    27   28   27 2
    28   29   28 1
    29   30   29 1
    30   31   27 1
    31   32   31 1
    32   33   31 1
    33   34   33 1
    34   35   33 1
    35   36   33 1
    36   37   36 1
    37   38   37 1
    38   39   38 1
    39   40   38 1
    40   41   38 1
    41   42   41 1
    42   43   42 1
    43   44   43 1
    44   45   43 1
    45   46   37 1
    46   47   46 1
    47   48   46 1
    48   49   41 1
    49   50   41 1
    50   51   36 1
    51   52   36 1
    52   20   23 1
    53   43   46 1
@<TRIPOS>SUBSTRUCTURE
     1 RES1 1

@<TRIPOS>CRYSIN
  22.2740    6.1299   13.8340  90.0000 113.0680  90.0000  15 1

