# MOL2 file generated by ConQuest
# Please check atom types

@<TRIPOS>MOLECULE
IQIKOI
    31    32     1
SMALL
NO_CHARGES
****
Generated from CSD

@<TRIPOS>ATOM
      1 N1         5.0577    0.4718    2.8382 N.pl3     1 RES1    0.0000
      2 O1         3.9098    0.5136    3.2302 O.2       1 RES1    0.0000
      3 O2         6.0034    0.2825    3.5901 O.2       1 RES1    0.0000
      4 N2         5.6975    2.9616    1.9601 N.ar      1 RES1    0.0000
      5 N3         4.5291   -4.0861    0.5183 N.3       1 RES1    0.0000
      6 C1         5.3311    0.6569    1.4024 C.ar      1 RES1    0.0000
      7 C2         5.6865    1.9665    1.0247 C.ar      1 RES1    0.0000
      8 C3         6.0448    4.1697    1.5430 C.ar      1 RES1    0.0000
      9 H1         6.0565    4.8683    2.1853 H         1 RES1    0.0000
     10 C4         6.3915    4.4911    0.2395 C.ar      1 RES1    0.0000
     11 H2         6.6295    5.3805    0.0083 H         1 RES1    0.0000
     12 C5         6.3840    3.4988   -0.7125 C.ar      1 RES1    0.0000
     13 H3         6.6250    3.6923   -1.6109 H         1 RES1    0.0000
     14 C6         6.0172    2.2003   -0.3432 C.ar      1 RES1    0.0000
     15 C7         5.9672    1.0925   -1.2332 C.ar      1 RES1    0.0000
     16 H4         6.1843    1.2261   -2.1495 H         1 RES1    0.0000
     17 C8         5.6203   -0.1420   -0.8150 C.ar      1 RES1    0.0000
     18 H5         5.6031   -0.8504   -1.4489 H         1 RES1    0.0000
     19 C9         5.2742   -0.4328    0.5552 C.ar      1 RES1    0.0000
     20 C10        4.9103   -1.7592    0.9937 C.2       1 RES1    0.0000
     21 H6         4.6881   -1.8802    1.9100 H         1 RES1    0.0000
     22 C11        4.8669   -2.8405    0.1823 C.2       1 RES1    0.0000
     23 H7         5.1021   -2.6972   -0.7256 H         1 RES1    0.0000
     24 C12        4.2035   -4.4355    1.8862 C.3       1 RES1    0.0000
     25 H8         3.4793   -3.8579    2.2067 H         1 RES1    0.0000
     26 H9         4.9940   -4.3116    2.4522 H         1 RES1    0.0000
     27 H10        3.9178   -5.3721    1.9255 H         1 RES1    0.0000
     28 C13        4.6264   -5.1856   -0.4373 C.3       1 RES1    0.0000
     29 H11        4.7875   -4.8266   -1.3345 H         1 RES1    0.0000
     30 H12        3.7892   -5.6950   -0.4349 H         1 RES1    0.0000
     31 H13        5.3678   -5.7743   -0.1835 H         1 RES1    0.0000
@<TRIPOS>BOND
     1    1    2 2
     2    3    1 2
     3    4    7 ar
     4    5   22 1
     5    6    1 1
     6    7    6 ar
     7    8    4 ar
     8    9    8 1
     9   10    8 ar
    10   11   10 1
    11   12   10 ar
    12   13   12 1
    13   14    7 ar
    14   15   14 ar
    15   16   15 1
    16   17   15 ar
    17   18   17 1
    18   19    6 ar
    19   20   19 1
    20   21   20 1
    21   22   20 2
    22   23   22 1
    23   24    5 1
    24   25   24 1
    25   26   24 1
    26   27   24 1
    27   28    5 1
    28   29   28 1
    29   30   28 1
    30   31   28 1
    31   12   14 ar
    32   17   19 ar
@<TRIPOS>SUBSTRUCTURE
     1 RES1 1

@<TRIPOS>CRYSIN
   7.3056   13.9174   12.4289  90.0000 106.5300  90.0000  14 1

