# MOL2 file generated by ConQuest
# Please check atom types

@<TRIPOS>MOLECULE
IQIKIC
    27    27     1
SMALL
NO_CHARGES
****
Generated from CSD

@<TRIPOS>ATOM
      1 O1         0.3135    3.5079    8.7302 O.2       1 RES1    0.0000
      2 O2        -0.1492    2.3354   10.4605 O.2       1 RES1    0.0000
      3 N1         3.4625    1.1605    4.5568 N.1       1 RES1    0.0000
      4 N2         0.3472    2.4405    9.3437 N.pl3     1 RES1    0.0000
      5 N3         0.1655   -1.9289   12.3516 N.3       1 RES1    0.0000
      6 C1         2.2565    0.6134    6.7883 C.ar      1 RES1    0.0000
      7 C2         2.3216   -0.6878    7.3248 C.ar      1 RES1    0.0000
      8 H1         2.7717   -1.3764    6.8498 H         1 RES1    0.0000
      9 C3         1.7401   -0.9576    8.5225 C.ar      1 RES1    0.0000
     10 H2         1.7941   -1.8460    8.8560 H         1 RES1    0.0000
     11 C4         1.0525    0.0150    9.3106 C.ar      1 RES1    0.0000
     12 C5         0.9890    1.3068    8.7058 C.ar      1 RES1    0.0000
     13 C6         1.5882    1.5990    7.4798 C.ar      1 RES1    0.0000
     14 H3         1.5352    2.4773    7.1229 H         1 RES1    0.0000
     15 C7         2.9233    0.9249    5.5545 C.1       1 RES1    0.0000
     16 C8         0.5108   -0.3463   10.5863 C.2       1 RES1    0.0000
     17 H4         0.0277    0.3148   11.0681 H         1 RES1    0.0000
     18 C9         0.6451   -1.5845   11.1559 C.2       1 RES1    0.0000
     19 H5         1.1145   -2.2468   10.6624 H         1 RES1    0.0000
     20 C10       -0.5682   -0.9772   13.1826 C.3       1 RES1    0.0000
     21 H6        -1.3409   -0.6361   12.6852 H         1 RES1    0.0000
     22 H7         0.0209   -0.2319   13.4226 H         1 RES1    0.0000
     23 H8        -0.8762   -1.4255   13.9980 H         1 RES1    0.0000
     24 C11        0.3854   -3.2537   12.8949 C.3       1 RES1    0.0000
     25 H9         0.8826   -3.7953   12.2463 H         1 RES1    0.0000
     26 H10       -0.4782   -3.6782   13.0812 H         1 RES1    0.0000
     27 H11        0.9011   -3.1846   13.7259 H         1 RES1    0.0000
@<TRIPOS>BOND
     1    1    4 2
     2    2    4 2
     3    3   15 3
     4    4   12 1
     5    5   18 1
     6    6    7 ar
     7    7    8 1
     8    9    7 ar
     9   10    9 1
    10   11    9 ar
    11   12   11 ar
    12   13    6 ar
    13   14   13 1
    14   15    6 1
    15   16   11 1
    16   17   16 1
    17   18   16 2
    18   19   18 1
    19   20    5 1
    20   21   20 1
    21   22   20 1
    22   23   20 1
    23   24    5 1
    24   25   24 1
    25   26   24 1
    26   27   24 1
    27   12   13 ar
@<TRIPOS>SUBSTRUCTURE
     1 RES1 1

@<TRIPOS>CRYSIN
   7.2055    7.8564    9.9993 101.5540  92.5080 103.2290   2 1

