# MOL2 file generated by ConQuest
# Please check atom types

@<TRIPOS>MOLECULE
IQILAW
    39    39     1
SMALL
NO_CHARGES
****
Generated from CSD

@<TRIPOS>ATOM
      1 O1         5.4295    2.6795    1.8016 O.2       1 RES1    0.0000
      2 O2        -3.5893    5.7866    2.6294 O.2       1 RES1    0.0000
      3 O3        -5.5463    4.3671    3.8651 O.3       1 RES1    0.0000
      4 H1        -5.7261    3.8690    3.2004 H         1 RES1    0.0000
      5 N1         5.4287    1.8605   -0.3163 N.am      1 RES1    0.0000
      6 H2         4.9612    1.8202   -1.0846 H         1 RES1    0.0000
      7 N2        -4.1880    4.1676    4.0662 N.am      1 RES1    0.0000
      8 H3        -3.9648    3.5265    4.6579 H         1 RES1    0.0000
      9 C1         6.7550    1.4010   -0.4290 C.ar      1 RES1    0.0000
     10 C2         7.5877    1.1794    0.6683 C.ar      1 RES1    0.0000
     11 H4         7.2730    1.3429    1.5499 H         1 RES1    0.0000
     12 C3         8.8794    0.7160    0.4603 C.ar      1 RES1    0.0000
     13 H5         9.4493    0.5711    1.2062 H         1 RES1    0.0000
     14 C4         9.3518    0.4634   -0.8149 C.ar      1 RES1    0.0000
     15 H6        10.2391    0.1488   -0.9436 H         1 RES1    0.0000
     16 C5         8.5179    0.6734   -1.9044 C.ar      1 RES1    0.0000
     17 H7         8.8335    0.4967   -2.7821 H         1 RES1    0.0000
     18 C6         7.2275    1.1391   -1.7156 C.ar      1 RES1    0.0000
     19 H8         6.6615    1.2809   -2.4660 H         1 RES1    0.0000
     20 C7         4.8385    2.4582    0.7438 C.2       1 RES1    0.0000
     21 C8         3.4026    2.8539    0.5173 C.3       1 RES1    0.0000
     22 H9         2.9500    2.1325    0.0130 H         1 RES1    0.0000
     23 H10        3.3830    3.6698   -0.0438 H         1 RES1    0.0000
     24 C9         2.6201    3.1201    1.7909 C.3       1 RES1    0.0000
     25 H11        3.0606    3.8457    2.3006 H         1 RES1    0.0000
     26 H12        2.6215    2.3053    2.3541 H         1 RES1    0.0000
     27 C10        1.1844    3.5180    1.4835 C.3       1 RES1    0.0000
     28 H13        1.1897    4.3277    0.9128 H         1 RES1    0.0000
     29 H14        0.7510    2.7903    0.9711 H         1 RES1    0.0000
     30 C11        0.3685    3.7985    2.7320 C.3       1 RES1    0.0000
     31 H15        0.8140    4.5121    3.2539 H         1 RES1    0.0000
     32 H16        0.3463    2.9825    3.2928 H         1 RES1    0.0000
     33 C12       -1.0629    4.2285    2.4259 C.3       1 RES1    0.0000
     34 H17       -1.0466    5.0483    1.8710 H         1 RES1    0.0000
     35 H18       -1.5135    3.5172    1.9050 H         1 RES1    0.0000
     36 C13       -1.8544    4.4982    3.6968 C.3       1 RES1    0.0000
     37 H19       -1.8409    3.6884    4.2672 H         1 RES1    0.0000
     38 H20       -1.4207    5.2312    4.2007 H         1 RES1    0.0000
     39 C14       -3.2909    4.8763    3.4061 C.2       1 RES1    0.0000
@<TRIPOS>BOND
     1    1   20 2
     2    2   39 2
     3    3    4 1
     4    5    6 1
     5    7    3 1
     6    8    7 1
     7    9    5 1
     8   10    9 ar
     9   11   10 1
    10   12   10 ar
    11   13   12 1
    12   14   12 ar
    13   15   14 1
    14   16   14 ar
    15   17   16 1
    16   18    9 ar
    17   19   18 1
    18   20    5 1
    19   21   20 1
    20   22   21 1
    21   23   21 1
    22   24   21 1
    23   25   24 1
    24   26   24 1
    25   27   24 1
    26   28   27 1
    27   29   27 1
    28   30   27 1
    29   31   30 1
    30   32   30 1
    31   33   30 1
    32   34   33 1
    33   35   33 1
    34   36   33 1
    35   37   36 1
    36   38   36 1
    37   39    7 1
    38   16   18 ar
    39   36   39 1
@<TRIPOS>SUBSTRUCTURE
     1 RES1 1

@<TRIPOS>CRYSIN
  10.9943    7.7488   16.3980  90.0000  98.6200  90.0000 231 1

