# MOL2 file generated by ConQuest
# Please check atom types

@<TRIPOS>MOLECULE
IQOMUX
    46    48     1
SMALL
NO_CHARGES
****
Generated from CSD

@<TRIPOS>ATOM
      1 O1         1.3650    0.6891    9.4048 O.3       1 RES1    0.0000
      2 H1         1.4720    0.1505   10.0142 H         1 RES1    0.0000
      3 O2        -2.3490    3.7409    9.7606 O.2       1 RES1    0.0000
      4 O3        -1.4474    5.6769   10.0782 O.2       1 RES1    0.0000
      5 O4        -0.4182    1.2290    6.0144 O.2       1 RES1    0.0000
      6 O5         0.0800    4.1109   13.0871 O.3       1 RES1    0.0000
      7 N1        -1.4085    4.4617    9.9817 N.pl3     1 RES1    0.0000
      8 C1        -0.0410    0.9528    9.2387 C.3       1 RES1    0.0000
      9 C2        -0.1745    2.0727    8.2040 C.3       1 RES1    0.0000
     10 H2        -1.1333    2.2329    8.0794 H         1 RES1    0.0000
     11 C3         0.4331    3.3735    8.6608 C.3       1 RES1    0.0000
     12 H3         1.3927    3.1982    8.7595 H         1 RES1    0.0000
     13 C4        -0.0633    3.8251   10.0715 C.3       1 RES1    0.0000
     14 H4         0.5582    4.5142   10.3857 H         1 RES1    0.0000
     15 C5        -0.0077    2.6845   11.0815 C.3       1 RES1    0.0000
     16 H5         0.9405    2.4884   11.2308 H         1 RES1    0.0000
     17 C6        -0.6435    1.3933   10.5799 C.3       1 RES1    0.0000
     18 H6        -1.5986    1.5259   10.4744 H         1 RES1    0.0000
     19 H7        -0.5097    0.6932   11.2375 H         1 RES1    0.0000
     20 C7         0.3891    1.6308    6.8404 C.2       1 RES1    0.0000
     21 C8         1.8258    1.7013    6.5710 C.3       1 RES1    0.0000
     22 H8         2.0001    1.3906    5.6799 H         1 RES1    0.0000
     23 H9         2.2964    1.1475    7.1995 H         1 RES1    0.0000
     24 H10        2.1234    2.6099    6.6586 H         1 RES1    0.0000
     25 C9        -0.7592   -0.3397    8.7932 C.3       1 RES1    0.0000
     26 H11       -0.6506   -1.0150    9.4677 H         1 RES1    0.0000
     27 H12       -0.3799   -0.6476    7.9672 H         1 RES1    0.0000
     28 H13       -1.6941   -0.1588    8.6697 H         1 RES1    0.0000
     29 C10        0.3256    4.5114    7.6776 C.ar      1 RES1    0.0000
     30 C11        1.3314    5.4477    7.6372 C.ar      1 RES1    0.0000
     31 H14        2.0760    5.3551    8.1871 H         1 RES1    0.0000
     32 C12        1.2407    6.4847    6.8135 C.ar      1 RES1    0.0000
     33 H15        1.9023    7.1351    6.8292 H         1 RES1    0.0000
     34 C13        0.2461    6.6159    5.9886 C.ar      1 RES1    0.0000
     35 H16        0.2349    7.3257    5.3881 H         1 RES1    0.0000
     36 C14       -0.7522    5.7514    5.9953 C.ar      1 RES1    0.0000
     37 H17       -1.4767    5.8619    5.4252 H         1 RES1    0.0000
     38 C15       -0.6969    4.6854    6.8583 C.ar      1 RES1    0.0000
     39 H18       -1.3953    4.0709    6.8662 H         1 RES1    0.0000
     40 C16       -0.5700    3.1402   12.4126 C.2       1 RES1    0.0000
     41 C17       -1.6344    2.8060   13.0545 C.2       1 RES1    0.0000
     42 H19       -2.2420    2.1639   12.7605 H         1 RES1    0.0000
     43 C18       -1.7759    3.5379   14.2655 C.2       1 RES1    0.0000
     44 H20       -2.4692    3.4605   14.8794 H         1 RES1    0.0000
     45 C19       -0.6612    4.4065   14.3643 C.2       1 RES1    0.0000
     46 H21       -0.4466    5.0058   15.0421 H         1 RES1    0.0000
@<TRIPOS>BOND
     1    1    2 1
     2    3    7 2
     3    4    7 2
     4    5   20 2
     5    6   40 1
     6    7   13 1
     7    8    1 1
     8    9    8 1
     9   10    9 1
    10   11    9 1
    11   12   11 1
    12   13   11 1
    13   14   13 1
    14   15   13 1
    15   16   15 1
    16   17    8 1
    17   18   17 1
    18   19   17 1
    19   20    9 1
    20   21   20 1
    21   22   21 1
    22   23   21 1
    23   24   21 1
    24   25    8 1
    25   26   25 1
    26   27   25 1
    27   28   25 1
    28   29   11 1
    29   30   29 ar
    30   31   30 1
    31   32   30 ar
    32   33   32 1
    33   34   32 ar
    34   35   34 1
    35   36   34 ar
    36   37   36 1
    37   38   29 ar
    38   39   38 1
    39   40   15 1
    40   41   40 2
    41   42   41 1
    42   43   41 1
    43   44   43 1
    44   45    6 1
    45   46   45 1
    46   15   17 1
    47   36   38 ar
    48   43   45 2
@<TRIPOS>SUBSTRUCTURE
     1 RES1 1

