# MOL2 file generated by ConQuest
# Please check atom types

@<TRIPOS>MOLECULE
IQOMOR
    49    51     1
SMALL
NO_CHARGES
****
Generated from CSD

@<TRIPOS>ATOM
      1 O1        -1.4671   13.2489    5.4902 O.3       1 RES1    0.0000
      2 H1        -1.5886   13.7652    4.8646 H         1 RES1    0.0000
      3 O2         1.2777    8.2289    4.6965 O.2       1 RES1    0.0000
      4 O3         2.2208   10.1303    5.0636 O.2       1 RES1    0.0000
      5 O4         0.3457   12.6576    8.8865 O.2       1 RES1    0.0000
      6 N1         1.2362    9.4447    4.8498 N.pl3     1 RES1    0.0000
      7 C1        -0.0623   12.9907    5.6308 C.3       1 RES1    0.0000
      8 C2         0.0861   11.8471    6.6920 C.3       1 RES1    0.0000
      9 H2         1.0449   11.6722    6.7972 H         1 RES1    0.0000
     10 C3        -0.5641   10.5397    6.2220 C.3       1 RES1    0.0000
     11 H3        -1.5216   10.7326    6.1443 H         1 RES1    0.0000
     12 C4        -0.1135   10.1025    4.8189 C.3       1 RES1    0.0000
     13 H4        -0.7517    9.4238    4.5147 H         1 RES1    0.0000
     14 C5        -0.1448   11.2378    3.7828 C.3       1 RES1    0.0000
     15 H5        -1.0920   11.4627    3.6685 H         1 RES1    0.0000
     16 C6         0.5188   12.5091    4.3066 C.3       1 RES1    0.0000
     17 H6         1.4678   12.3440    4.4209 H         1 RES1    0.0000
     18 H7         0.4191   13.2114    3.6456 H         1 RES1    0.0000
     19 C7        -0.4465   12.2760    8.0528 C.2       1 RES1    0.0000
     20 C8        -1.9052   12.2260    8.3513 C.3       1 RES1    0.0000
     21 H8        -2.0593   12.5300    9.2490 H         1 RES1    0.0000
     22 H9        -2.2195   11.3239    8.2610 H         1 RES1    0.0000
     23 H10       -2.3769   12.7923    7.7361 H         1 RES1    0.0000
     24 C9         0.6683   14.2371    6.0917 C.3       1 RES1    0.0000
     25 H11        0.2975   14.5369    6.9242 H         1 RES1    0.0000
     26 H12        0.5703   14.9269    5.4307 H         1 RES1    0.0000
     27 H13        1.6000   14.0372    6.2095 H         1 RES1    0.0000
     28 C10       -0.4547    9.3739    7.2055 C.ar      1 RES1    0.0000
     29 C11        0.6365    9.1810    8.0185 C.ar      1 RES1    0.0000
     30 H14        1.3326    9.7972    8.0060 H         1 RES1    0.0000
     31 C12        0.7141    8.0679    8.8682 C.ar      1 RES1    0.0000
     32 H15        1.4574    7.9402    9.4114 H         1 RES1    0.0000
     33 C13       -0.3343    7.1616    8.8831 C.ar      1 RES1    0.0000
     34 H16       -0.3061    6.4301    9.4571 H         1 RES1    0.0000
     35 C14       -1.3976    7.3364    8.0666 C.ar      1 RES1    0.0000
     36 H17       -2.0906    6.7174    8.0711 H         1 RES1    0.0000
     37 C15       -1.4618    8.4440    7.2146 C.ar      1 RES1    0.0000
     38 H18       -2.1932    8.5509    6.6509 H         1 RES1    0.0000
     39 C16        0.3269   10.7548    2.4209 C.ar      1 RES1    0.0000
     40 C17        1.5001   11.1504    1.8297 C.ar      1 RES1    0.0000
     41 H19        2.0527   11.7569    2.2665 H         1 RES1    0.0000
     42 C18        1.8790   10.6494    0.5706 C.ar      1 RES1    0.0000
     43 H20        2.6679   10.9394    0.1715 H         1 RES1    0.0000
     44 C19        1.0911    9.7431   -0.0618 C.ar      1 RES1    0.0000
     45 H21        1.3447    9.4086   -0.8908 H         1 RES1    0.0000
     46 C20       -0.0735    9.3225    0.5157 C.ar      1 RES1    0.0000
     47 H22       -0.6021    8.6869    0.0892 H         1 RES1    0.0000
     48 C21       -0.4672    9.8485    1.7473 C.ar      1 RES1    0.0000
     49 H23       -1.2780    9.5848    2.1190 H         1 RES1    0.0000
@<TRIPOS>BOND
     1    1    2 1
     2    3    6 2
     3    4    6 2
     4    5   19 2
     5    6   12 1
     6    7    1 1
     7    8    7 1
     8    9    8 1
     9   10    8 1
    10   11   10 1
    11   12   10 1
    12   13   12 1
    13   14   12 1
    14   15   14 1
    15   16    7 1
    16   17   16 1
    17   18   16 1
    18   19    8 1
    19   20   19 1
    20   21   20 1
    21   22   20 1
    22   23   20 1
    23   24    7 1
    24   25   24 1
    25   26   24 1
    26   27   24 1
    27   28   10 1
    28   29   28 ar
    29   30   29 1
    30   31   29 ar
    31   32   31 1
    32   33   31 ar
    33   34   33 1
    34   35   33 ar
    35   36   35 1
    36   37   28 ar
    37   38   37 1
    38   39   14 1
    39   40   39 ar
    40   41   40 1
    41   42   40 ar
    42   43   42 1
    43   44   42 ar
    44   45   44 1
    45   46   44 ar
    46   47   46 1
    47   48   39 ar
    48   49   48 1
    49   14   16 1
    50   35   37 ar
    51   46   48 ar
@<TRIPOS>SUBSTRUCTURE
     1 RES1 1

