# MOL2 file generated by ConQuest
# Please check atom types

@<TRIPOS>MOLECULE
IQOMIL
    37    39     1
SMALL
NO_CHARGES
****
Generated from CSD

@<TRIPOS>ATOM
      1 O1        -2.2354    1.8070   12.4136 O.2       1 RES1    0.0000
      2 O2        -3.2909   -0.0259   12.7612 O.2       1 RES1    0.0000
      3 O3         0.8635    2.7865   13.2829 O.3       1 RES1    0.0000
      4 O4        -0.6111    0.5951    9.2779 O.3       1 RES1    0.0000
      5 N1         2.1193   -2.7044    7.8767 N.1       1 RES1    0.0000
      6 N2         4.4892    0.2063   10.1174 N.1       1 RES1    0.0000
      7 N3        -2.2765    0.6001   12.5322 N.pl3     1 RES1    0.0000
      8 C1         1.3354   -1.0756   10.8696 C.2       1 RES1    0.0000
      9 C2         0.0725   -1.8676   10.7866 C.3       1 RES1    0.0000
     10 H1         0.1042   -2.5806   11.4434 H         1 RES1    0.0000
     11 H2         0.0139   -2.2758    9.9092 H         1 RES1    0.0000
     12 C3        -1.1921   -1.0180   11.0293 C.3       1 RES1    0.0000
     13 H3        -1.9293   -1.6440   11.1851 H         1 RES1    0.0000
     14 C4        -1.0102   -0.2012   12.3345 C.3       1 RES1    0.0000
     15 H4        -0.9195   -0.8280   13.0827 H         1 RES1    0.0000
     16 C5         0.2216    0.6910   12.2997 C.3       1 RES1    0.0000
     17 H5         0.1401    1.2938   11.5314 H         1 RES1    0.0000
     18 C6         1.4652   -0.2049   12.0801 C.3       1 RES1    0.0000
     19 H6         2.2491    0.3582   11.9842 H         1 RES1    0.0000
     20 H7         1.5955   -0.7646   12.8613 H         1 RES1    0.0000
     21 C7         2.3138   -1.1734    9.9491 C.2       1 RES1    0.0000
     22 C8         2.2023   -2.0333    8.7999 C.1       1 RES1    0.0000
     23 C9         3.5292   -0.4145   10.0487 C.1       1 RES1    0.0000
     24 C10       -1.5844   -0.1665    9.8705 C.2       1 RES1    0.0000
     25 C11       -1.2263    1.3200    8.2927 C.2       1 RES1    0.0000
     26 H8        -0.7993    1.9247    7.7307 H         1 RES1    0.0000
     27 C12       -2.5196    1.0343    8.2579 C.2       1 RES1    0.0000
     28 H9        -3.1506    1.3965    7.6782 H         1 RES1    0.0000
     29 C13       -2.7591    0.0704    9.2733 C.2       1 RES1    0.0000
     30 H10       -3.5761   -0.3209    9.4835 H         1 RES1    0.0000
     31 C14        0.4101    1.5228   13.5228 C.2       1 RES1    0.0000
     32 C15        1.0076    3.3755   14.5085 C.2       1 RES1    0.0000
     33 H11        1.3074    4.2457   14.6424 H         1 RES1    0.0000
     34 C16        0.6641    2.5434   15.4764 C.2       1 RES1    0.0000
     35 H12        0.6780    2.7155   16.3895 H         1 RES1    0.0000
     36 C17        0.2700    1.3361   14.8448 C.2       1 RES1    0.0000
     37 H13       -0.0280    0.5624   15.2655 H         1 RES1    0.0000
@<TRIPOS>BOND
     1    1    7 2
     2    2    7 2
     3    3   31 1
     4    4   24 1
     5    5   22 3
     6    6   23 3
     7    7   14 1
     8    8    9 1
     9    9   10 1
    10   11    9 1
    11   12    9 1
    12   13   12 1
    13   14   12 1
    14   15   14 1
    15   16   14 1
    16   17   16 1
    17   18    8 1
    18   19   18 1
    19   20   18 1
    20   21    8 2
    21   22   21 1
    22   23   21 1
    23   24   12 1
    24   25    4 1
    25   26   25 1
    26   27   25 2
    27   28   27 1
    28   29   24 2
    29   30   29 1
    30   31   16 1
    31   32    3 1
    32   33   32 1
    33   34   32 2
    34   35   34 1
    35   36   31 2
    36   37   36 1
    37   16   18 1
    38   27   29 1
    39   34   36 1
@<TRIPOS>SUBSTRUCTURE
     1 RES1 1

@<TRIPOS>CRYSIN
  10.8560   10.0610   14.5000  90.0000 101.8200  90.0000  14 1

