# MOL2 file generated by ConQuest
# Please check atom types

@<TRIPOS>MOLECULE
IQONUY
    57    53     2
SMALL
NO_CHARGES
****
Generated from CSD

@<TRIPOS>ATOM
      1 O1         7.7422    2.3663   11.7552 O.3       1 RES1    0.0000
      2 O2         7.7904    1.1488    9.7584 O.3       1 RES1    0.0000
      3 O3         6.9110   -1.1041   11.0482 O.3       1 RES1    0.0000
      4 O4         5.0407   -1.5540   12.4246 O.3       1 RES1    0.0000
      5 O5         9.0761   -1.3856   12.8667 O.3       1 RES1    0.0000
      6 O6         8.9645    1.1815   14.0783 O.3       1 RES1    0.0000
      7 O7        11.0099    1.1206   15.2275 O.3       1 RES1    0.0000
      8 O8        13.6070   -0.9542   16.8765 O.2       1 RES1    0.0000
      9 O9        12.4431   -1.3796   15.1393 O.2       1 RES1    0.0000
     10 N1        13.2549   -0.6992   15.7448 N.pl3     1 RES1    0.0000
     11 C1         7.2212    1.2709   11.0348 C.3       1 RES1    0.0000
     12 H1         6.2548    1.3957   10.9339 H         1 RES1    0.0000
     13 C2         7.4638   -0.0161   11.7960 C.3       1 RES1    0.0000
     14 H2         6.9960    0.0389   12.6552 H         1 RES1    0.0000
     15 C3         8.9338   -0.2228   12.0656 C.3       1 RES1    0.0000
     16 H3         9.3965   -0.3664   11.2135 H         1 RES1    0.0000
     17 C4         9.5368    1.0132   12.7619 C.3       1 RES1    0.0000
     18 C5         9.1549    2.2505   11.9676 C.3       1 RES1    0.0000
     19 H4         9.4692    3.0369   12.4404 H         1 RES1    0.0000
     20 H5         9.6023    2.2237   11.1069 H         1 RES1    0.0000
     21 C6        11.0406    0.9730   12.8773 C.2       1 RES1    0.0000
     22 H6        11.5432    0.8629   12.1016 H         1 RES1    0.0000
     23 C7        11.6743    1.0884   14.0234 C.2       1 RES1    0.0000
     24 C8         9.7077    0.5583   15.0932 C.3       1 RES1    0.0000
     25 H7         9.7876   -0.3878   14.8956 H         1 RES1    0.0000
     26 H8         9.2338    0.6482   15.9351 H         1 RES1    0.0000
     27 C9        13.1433    1.2226   14.1907 C.ar      1 RES1    0.0000
     28 C10       13.8763    0.4348   15.0614 C.ar      1 RES1    0.0000
     29 C11       15.2531    0.6455   15.2445 C.ar      1 RES1    0.0000
     30 H9        15.7302    0.1235   15.8486 H         1 RES1    0.0000
     31 C12       15.8929    1.6359   14.5208 C.ar      1 RES1    0.0000
     32 H10       16.8040    1.7862   14.6304 H         1 RES1    0.0000
     33 C13       15.1825    2.3767   13.6601 C.ar      1 RES1    0.0000
     34 H11       15.6176    3.0262   13.1555 H         1 RES1    0.0000
     35 C14       13.8200    2.2036   13.5001 C.ar      1 RES1    0.0000
     36 H12       13.3531    2.7578   12.9162 H         1 RES1    0.0000
     37 C15        7.4730    2.2358    8.8866 C.3       1 RES1    0.0000
     38 H13        7.8907    2.0935    8.0332 H         1 RES1    0.0000
     39 H14        7.7955    3.0557    9.2672 H         1 RES1    0.0000
     40 H15        6.5220    2.2881    8.7727 H         1 RES1    0.0000
     41 C16        6.1965   -2.0694   11.8162 C.3       1 RES1    0.0000
     42 H16        5.9446   -2.8061   11.2381 H         1 RES1    0.0000
     43 H17        6.7841   -2.4196   12.5039 H         1 RES1    0.0000
     44 C17        4.0477   -1.1729   11.4788 C.3       1 RES1    0.0000
     45 H18        3.2810   -0.8280   11.9430 H         1 RES1    0.0000
     46 H19        3.7908   -1.9365   10.9598 H         1 RES1    0.0000
     47 H20        4.4019   -0.4952   10.8993 H         1 RES1    0.0000
     48 C18        9.9893   -2.3472   12.4073 C.3       1 RES1    0.0000
     49 H21       10.0087   -3.0879   13.0186 H         1 RES1    0.0000
     50 H22       10.8645   -1.9566   12.3496 H         1 RES1    0.0000
     51 H23        9.7190   -2.6558   11.5394 H         1 RES1    0.0000
     52 H24        6.7093   -2.8880   11.9041 Du        2 SUP2    0.0000
     53 H25        5.9999   -1.7272   12.7014 Du        2 SUP2    0.0000
     54 H26        3.2257   -1.2937   11.0002 Du        2 SUP2    0.0000
     55 H27        4.4306   -0.3221   11.2496 Du        2 SUP2    0.0000
     56 H28        3.8747   -1.1997   12.4231 Du        2 SUP2    0.0000
     57 O10        5.0366   -2.2948   11.1011 Du        2 SUP2    0.0000
@<TRIPOS>BOND
     1    1   11 1
     2    2   11 1
     3    3   13 1
     4    4   41 1
     5    5   15 1
     6    6   17 1
     7    7   23 1
     8    8   10 2
     9    9   10 2
    10   10   28 1
    11   11   12 1
    12   13   11 1
    13   14   13 1
    14   15   13 1
    15   16   15 1
    16   17   15 1
    17   18    1 1
    18   19   18 1
    19   20   18 1
    20   21   17 1
    21   22   21 1
    22   23   21 2
    23   24    6 1
    24   25   24 1
    25   26   24 1
    26   27   23 1
    27   28   27 ar
    28   29   28 ar
    29   30   29 1
    30   31   29 ar
    31   32   31 1
    32   33   31 ar
    33   34   33 1
    34   35   27 ar
    35   36   35 1
    36   37    2 1
    37   38   37 1
    38   39   37 1
    39   40   37 1
    40   41    3 1
    41   42   41 1
    42   43   41 1
    43   44    4 1
    44   45   44 1
    45   46   44 1
    46   47   44 1
    47   48    5 1
    48   49   48 1
    49   50   48 1
    50   51   48 1
    51    7   24 1
    52   17   18 1
    53   33   35 ar
@<TRIPOS>SUBSTRUCTURE
     1 RES1 1
     2 SUP2 52

@<TRIPOS>CRYSIN
  10.2370   13.4200   14.4170  90.0000  90.0000  90.0000  19 1

