# MOL2 file generated by ConQuest
# Please check atom types

@<TRIPOS>MOLECULE
IQONEI
    41    44     1
SMALL
NO_CHARGES
****
Generated from CSD

@<TRIPOS>ATOM
      1 O1         4.4895   -1.6691    4.5934 O.3       1 RES1    0.0000
      2 O2         4.3625    0.9855    6.5163 O.2       1 RES1    0.0000
      3 O3         4.2495    2.7225    5.2922 O.2       1 RES1    0.0000
      4 O4         7.1024    2.0007    2.8463 O.3       1 RES1    0.0000
      5 N1         4.8457   -2.5696    2.4538 N.pl3     1 RES1    0.0000
      6 H1         5.4829   -2.7690    1.8646 H         1 RES1    0.0000
      7 N2         4.3962    1.5305    5.4385 N.pl3     1 RES1    0.0000
      8 C1         5.5088   -2.0744    3.6438 C.3       1 RES1    0.0000
      9 C2         6.3941   -0.8609    3.3123 C.3       1 RES1    0.0000
     10 H2         7.3245   -1.1358    3.3188 H         1 RES1    0.0000
     11 H3         6.1828   -0.5471    2.4188 H         1 RES1    0.0000
     12 C3         6.2042    0.2872    4.3029 C.3       1 RES1    0.0000
     13 H4         6.3661   -0.0658    5.2029 H         1 RES1    0.0000
     14 C4         4.7315    0.7138    4.2291 C.3       1 RES1    0.0000
     15 H5         4.6088    1.2722    3.4327 H         1 RES1    0.0000
     16 C5         3.8015   -0.5158    4.1152 C.3       1 RES1    0.0000
     17 H6         3.0242   -0.3642    4.6914 H         1 RES1    0.0000
     18 C6         6.2635   -3.2054    4.3184 C.3       1 RES1    0.0000
     19 H7         6.6998   -2.8733    5.1070 H         1 RES1    0.0000
     20 H8         6.9202   -3.5567    3.7137 H         1 RES1    0.0000
     21 H9         5.6482   -3.9001    4.5632 H         1 RES1    0.0000
     22 C7         3.3060   -0.7284    2.7063 C.ar      1 RES1    0.0000
     23 C8         3.8157   -1.7840    1.9397 C.ar      1 RES1    0.0000
     24 C9         3.2784   -2.0278    0.6733 C.ar      1 RES1    0.0000
     25 H10        3.5969   -2.7353    0.1606 H         1 RES1    0.0000
     26 C10        2.2799   -1.2177    0.1852 C.ar      1 RES1    0.0000
     27 H11        1.9214   -1.3941   -0.6539 H         1 RES1    0.0000
     28 C11        1.7947   -0.1444    0.9168 C.ar      1 RES1    0.0000
     29 H12        1.1332    0.4075    0.5672 H         1 RES1    0.0000
     30 C12        2.3107    0.0882    2.1689 C.ar      1 RES1    0.0000
     31 H13        1.9894    0.8054    2.6675 H         1 RES1    0.0000
     32 C13        7.1263    1.4342    4.0983 C.2       1 RES1    0.0000
     33 C14        7.9654    2.1241    4.8856 C.2       1 RES1    0.0000
     34 H14        8.1535    1.9508    5.7804 H         1 RES1    0.0000
     35 C15        8.5165    3.1749    4.0880 C.2       1 RES1    0.0000
     36 H15        9.1358    3.8118    4.3638 H         1 RES1    0.0000
     37 C16        7.9736    3.0722    2.8669 C.2       1 RES1    0.0000
     38 C17        8.1231    3.8054    1.5862 C.3       1 RES1    0.0000
     39 H16        8.5902    4.6300    1.7429 H         1 RES1    0.0000
     40 H17        7.2552    3.9931    1.2224 H         1 RES1    0.0000
     41 H18        8.6211    3.2680    0.9660 H         1 RES1    0.0000
@<TRIPOS>BOND
     1    1    8 1
     2    2    7 2
     3    3    7 2
     4    4   32 1
     5    5    6 1
     6    7   14 1
     7    8    5 1
     8    9    8 1
     9   10    9 1
    10   11    9 1
    11   12    9 1
    12   13   12 1
    13   14   12 1
    14   15   14 1
    15   16    1 1
    16   17   16 1
    17   18    8 1
    18   19   18 1
    19   20   18 1
    20   21   18 1
    21   22   16 1
    22   23    5 1
    23   24   23 ar
    24   25   24 1
    25   26   24 ar
    26   27   26 1
    27   28   26 ar
    28   29   28 1
    29   30   22 ar
    30   31   30 1
    31   32   12 1
    32   33   32 2
    33   34   33 1
    34   35   33 1
    35   36   35 1
    36   37    4 1
    37   38   37 1
    38   39   38 1
    39   40   38 1
    40   41   38 1
    41   14   16 1
    42   22   23 ar
    43   28   30 ar
    44   35   37 2
@<TRIPOS>SUBSTRUCTURE
     1 RES1 1

@<TRIPOS>CRYSIN
   7.6540   16.0430   13.1450  90.0000  99.9100  90.0000 231 1

