# MOL2 file generated by ConQuest
# Please check atom types

@<TRIPOS>MOLECULE
IQOPAG
    45    47     1
SMALL
NO_CHARGES
****
Generated from CSD

@<TRIPOS>ATOM
      1 O1         5.3133    8.3931    3.0582 O.3       1 RES1    0.0000
      2 O2         4.9133    9.7781    1.3268 O.3       1 RES1    0.0000
      3 O3         2.2213    9.3593    3.4390 O.3       1 RES1    0.0000
      4 O4         1.5246    6.5735    4.6888 O.3       1 RES1    0.0000
      5 O5         0.0285    4.9106    4.0200 O.3       1 RES1    0.0000
      6 O6         6.0663    6.2046    1.1451 O.2       1 RES1    0.0000
      7 O7         4.7592    4.1710   -2.2483 O.2       1 RES1    0.0000
      8 O8         4.0775    5.7233   -0.9446 O.2       1 RES1    0.0000
      9 N1         4.4761    4.5954   -1.1373 N.pl3     1 RES1    0.0000
     10 C1         4.0675    7.9408    2.5036 C.3       1 RES1    0.0000
     11 C2         3.9563    8.7443    1.2005 C.3       1 RES1    0.0000
     12 H1         4.1545    8.1838    0.4345 H         1 RES1    0.0000
     13 H2         3.0642    9.1117    1.0978 H         1 RES1    0.0000
     14 C3         5.9323    9.2350    2.1054 C.3       1 RES1    0.0000
     15 H3         6.4300    9.9396    2.5504 H         1 RES1    0.0000
     16 H4         6.5448    8.7257    1.5512 H         1 RES1    0.0000
     17 C4         2.9458    8.1559    3.5546 C.3       1 RES1    0.0000
     18 H5         3.3480    8.1222    4.4480 H         1 RES1    0.0000
     19 C5         2.0095    6.9721    3.4054 C.3       1 RES1    0.0000
     20 H6         1.2608    7.2047    2.8191 H         1 RES1    0.0000
     21 C6         2.8709    5.9396    2.7563 C.2       1 RES1    0.0000
     22 H7         2.6342    5.0431    2.6910 H         1 RES1    0.0000
     23 C7         4.0112    6.4338    2.2826 C.2       1 RES1    0.0000
     24 C8         5.0359    5.6907    1.5279 C.2       1 RES1    0.0000
     25 C9         4.8056    4.2221    1.2750 C.ar      1 RES1    0.0000
     26 C10        4.6016    3.6896    0.0044 C.ar      1 RES1    0.0000
     27 C11        4.4968    2.3372   -0.2254 C.ar      1 RES1    0.0000
     28 H8         4.3749    2.0140   -1.0894 H         1 RES1    0.0000
     29 C12        4.5738    1.4744    0.8333 C.ar      1 RES1    0.0000
     30 H9         4.4975    0.5581    0.6906 H         1 RES1    0.0000
     31 C13        4.7635    1.9593    2.1117 C.ar      1 RES1    0.0000
     32 H10        4.8127    1.3675    2.8275 H         1 RES1    0.0000
     33 C14        4.8812    3.3279    2.3336 C.ar      1 RES1    0.0000
     34 H11        5.0124    3.6454    3.1969 H         1 RES1    0.0000
     35 C15        0.1947    6.1163    4.6972 C.3       1 RES1    0.0000
     36 H12       -0.0948    6.0035    5.6151 H         1 RES1    0.0000
     37 H13       -0.3730    6.7884    4.2885 H         1 RES1    0.0000
     38 C16        0.5527    3.7931    4.7364 C.3       1 RES1    0.0000
     39 H14        0.4129    2.9919    4.2276 H         1 RES1    0.0000
     40 H15        0.1055    3.7175    5.5815 H         1 RES1    0.0000
     41 H16        1.4932    3.9198    4.8825 H         1 RES1    0.0000
     42 C17        2.8866   10.4978    3.9736 C.3       1 RES1    0.0000
     43 H17        2.3347   11.2745    3.8581 H         1 RES1    0.0000
     44 H18        3.7202   10.6257    3.5160 H         1 RES1    0.0000
     45 H19        3.0535   10.3605    4.9098 H         1 RES1    0.0000
@<TRIPOS>BOND
     1    1   10 1
     2    2   11 1
     3    3   17 1
     4    4   19 1
     5    5   35 1
     6    6   24 2
     7    7    9 2
     8    8    9 2
     9    9   26 1
    10   10   11 1
    11   11   12 1
    12   13   11 1
    13   14    1 1
    14   15   14 1
    15   16   14 1
    16   17   10 1
    17   18   17 1
    18   19   17 1
    19   20   19 1
    20   21   19 1
    21   22   21 1
    22   23   10 1
    23   24   23 1
    24   25   24 1
    25   26   25 ar
    26   27   26 ar
    27   28   27 1
    28   29   27 ar
    29   30   29 1
    30   31   29 ar
    31   32   31 1
    32   33   25 ar
    33   34   33 1
    34   35    4 1
    35   36   35 1
    36   37   35 1
    37   38    5 1
    38   39   38 1
    39   40   38 1
    40   41   38 1
    41   42    3 1
    42   43   42 1
    43   44   42 1
    44   45   42 1
    45    2   14 1
    46   21   23 2
    47   31   33 ar
@<TRIPOS>SUBSTRUCTURE
     1 RES1 1

@<TRIPOS>CRYSIN
   7.1310   11.6280   20.9910  90.0000  90.0000  90.0000  19 1

