# MOL2 file generated by ConQuest
# Please check atom types

@<TRIPOS>MOLECULE
IQOPOT
    68    72     1
SMALL
NO_CHARGES
****
Generated from CSD

@<TRIPOS>ATOM
      1 C1         2.4332   10.1745    4.2064 C.3       1 RES1    0.0000
      2 H1         1.5373    9.8218    4.0229 H         1 RES1    0.0000
      3 C2         3.0085    9.4679    5.4238 C.3       1 RES1    0.0000
      4 H2         2.3068    9.0621    5.9749 H         1 RES1    0.0000
      5 C3         3.9523    8.4132    4.8387 C.3       1 RES1    0.0000
      6 H3         3.7374    7.5099    5.1502 H         1 RES1    0.0000
      7 C4         3.8391    8.5432    3.3337 C.3       1 RES1    0.0000
      8 H4         4.7441    8.5240    2.9583 H         1 RES1    0.0000
      9 O1         3.2928    9.8614    3.1138 O.3       1 RES1    0.0000
     10 C5         2.3630   11.6792    4.3010 C.2       1 RES1    0.0000
     11 N1         1.1951   12.1879    4.4299 N.2       1 RES1    0.0000
     12 O2         1.2555   13.5897    4.4714 O.3       1 RES1    0.0000
     13 C6        -0.0802   14.0747    4.6152 C.3       1 RES1    0.0000
     14 H5        -0.6645   13.5954    4.0077 H         1 RES1    0.0000
     15 H6        -0.1083   15.0153    4.3786 H         1 RES1    0.0000
     16 C7        -0.5554   13.9051    5.9766 C.1       1 RES1    0.0000
     17 N2        -0.8926   13.7774    7.0365 N.1       1 RES1    0.0000
     18 C8         3.5581   12.4457    4.1685 C.1       1 RES1    0.0000
     19 N3         4.5053   13.0641    4.0208 N.1       1 RES1    0.0000
     20 O3         3.8474   10.3249    6.1834 O.3       1 RES1    0.0000
     21 C9         5.0764    9.6239    6.4227 C.3       1 RES1    0.0000
     22 C10        6.2021   10.6030    6.5015 C.3       1 RES1    0.0000
     23 H7         6.0806   11.1693    7.2653 H         1 RES1    0.0000
     24 H8         6.2153   11.1399    5.7048 H         1 RES1    0.0000
     25 H9         7.0335   10.1304    6.5820 H         1 RES1    0.0000
     26 C11        4.9507    8.7467    7.6445 C.3       1 RES1    0.0000
     27 H10        4.8367    9.2972    8.4230 H         1 RES1    0.0000
     28 H11        5.7450    8.2165    7.7397 H         1 RES1    0.0000
     29 H12        4.1895    8.1690    7.5458 H         1 RES1    0.0000
     30 O4         5.2342    8.8326    5.2561 O.3       1 RES1    0.0000
     31 C12        3.0299    7.4783    2.6531 C.3       1 RES1    0.0000
     32 H13        2.8208    7.7552    1.7476 H         1 RES1    0.0000
     33 H14        3.5449    6.6575    2.6066 H         1 RES1    0.0000
     34 O5         1.8158    7.2454    3.3793 O.3       1 RES1    0.0000
     35 C13        0.6215    6.9503    2.6078 C.3       1 RES1    0.0000
     36 C14       -0.3901    6.4348    3.6416 C.ar      1 RES1    0.0000
     37 C15       -1.5497    5.8108    3.2272 C.ar      1 RES1    0.0000
     38 H15       -1.7274    5.7260    2.3183 H         1 RES1    0.0000
     39 C16       -2.4613    5.3032    4.1602 C.ar      1 RES1    0.0000
     40 H16       -3.2333    4.8736    3.8699 H         1 RES1    0.0000
     41 C17       -2.2175    5.4400    5.4987 C.ar      1 RES1    0.0000
     42 H17       -2.8250    5.1076    6.1202 H         1 RES1    0.0000
     43 C18       -1.0844    6.0606    5.9173 C.ar      1 RES1    0.0000
     44 H18       -0.9199    6.1488    6.8285 H         1 RES1    0.0000
     45 C19       -0.1703    6.5648    5.0102 C.ar      1 RES1    0.0000
     46 H19        0.5959    6.9944    5.3161 H         1 RES1    0.0000
     47 C20        0.1752    8.2753    1.9686 C.ar      1 RES1    0.0000
     48 C21       -0.7182    9.0971    2.6445 C.ar      1 RES1    0.0000
     49 H20       -1.1249    8.7919    3.4235 H         1 RES1    0.0000
     50 C22       -1.0133   10.3712    2.1697 C.ar      1 RES1    0.0000
     51 H21       -1.6307   10.9003    2.6221 H         1 RES1    0.0000
     52 C23       -0.4083   10.8483    1.0512 C.ar      1 RES1    0.0000
     53 H22       -0.5901   11.7097    0.7522 H         1 RES1    0.0000
     54 C24        0.4736   10.0501    0.3646 C.ar      1 RES1    0.0000
     55 H23        0.8844   10.3735   -0.4049 H         1 RES1    0.0000
     56 C25        0.7604    8.7648    0.8071 C.ar      1 RES1    0.0000
     57 H24        1.3464    8.2289    0.3234 H         1 RES1    0.0000
     58 C26        0.8810    5.8108    1.6252 C.ar      1 RES1    0.0000
     59 C27        1.6472    4.7278    2.0501 C.ar      1 RES1    0.0000
     60 H25        2.0588    4.7526    2.8837 H         1 RES1    0.0000
     61 C28        1.8009    3.6142    1.2442 C.ar      1 RES1    0.0000
     62 H26        2.3159    2.8963    1.5336 H         1 RES1    0.0000
     63 C29        1.1935    3.5701    0.0149 C.ar      1 RES1    0.0000
     64 H27        1.2993    2.8195   -0.5251 H         1 RES1    0.0000
     65 C30        0.4356    4.6170   -0.4204 C.ar      1 RES1    0.0000
     66 H28        0.0264    4.5819   -1.2546 H         1 RES1    0.0000
     67 C31        0.2777    5.7305    0.3819 C.ar      1 RES1    0.0000
     68 H29       -0.2430    6.4393    0.0812 H         1 RES1    0.0000
@<TRIPOS>BOND
     1    1    2 1
     2    3    1 1
     3    4    3 1
     4    5    3 1
     5    6    5 1
     6    7    5 1
     7    8    7 1
     8    9    1 1
     9   10    1 1
    10   11   10 2
    11   12   11 1
    12   13   12 1
    13   14   13 1
    14   15   13 1
    15   16   13 1
    16   17   16 3
    17   18   10 1
    18   19   18 3
    19   20    3 1
    20   21   20 1
    21   22   21 1
    22   23   22 1
    23   24   22 1
    24   25   22 1
    25   26   21 1
    26   27   26 1
    27   28   26 1
    28   29   26 1
    29   30    5 1
    30   31    7 1
    31   32   31 1
    32   33   31 1
    33   34   31 1
    34   35   34 1
    35   36   35 1
    36   37   36 ar
    37   38   37 1
    38   39   37 ar
    39   40   39 1
    40   41   39 ar
    41   42   41 1
    42   43   41 ar
    43   44   43 1
    44   45   36 ar
    45   46   45 1
    46   47   35 1
    47   48   47 ar
    48   49   48 1
    49   50   48 ar
    50   51   50 1
    51   52   50 ar
    52   53   52 1
    53   54   52 ar
    54   55   54 1
    55   56   47 ar
    56   57   56 1
    57   58   35 1
    58   59   58 ar
    59   60   59 1
    60   61   59 ar
    61   62   61 1
    62   63   61 ar
    63   64   63 1
    64   65   63 ar
    65   66   65 1
    66   67   58 ar
    67   68   67 1
    68    7    9 1
    69   21   30 1
    70   43   45 ar
    71   54   56 ar
    72   65   67 ar
@<TRIPOS>SUBSTRUCTURE
     1 RES1 1

@<TRIPOS>CRYSIN
   8.2650   11.3050   29.8370  90.0000  90.0000  90.0000  19 1

