# MOL2 file generated by ConQuest
# Please check atom types

@<TRIPOS>MOLECULE
IQOPIO
    32    32     1
SMALL
NO_CHARGES
****
Generated from CSD

@<TRIPOS>ATOM
      1 O1        -2.5774   14.2329    1.3757 O.2       1 RES1    0.0000
      2 O2        -0.9007   13.2934    0.4775 O.2       1 RES1    0.0000
      3 N1        -1.4122   13.9813    1.3386 N.pl3     1 RES1    0.0000
      4 N2         5.6697   10.9303    2.6591 N.1       1 RES1    0.0000
      5 N3         3.1671   12.7029    5.7723 N.1       1 RES1    0.0000
      6 C1        -0.5581   14.5863    2.4269 C.3       1 RES1    0.0000
      7 H1        -0.8957   14.3006    3.2903 H         1 RES1    0.0000
      8 H2        -0.6279   15.5525    2.3853 H         1 RES1    0.0000
      9 C2         0.9066   14.1858    2.3071 C.3       1 RES1    0.0000
     10 H3         1.1552   14.2241    1.3598 H         1 RES1    0.0000
     11 C3         1.1170   12.7380    2.7980 C.3       1 RES1    0.0000
     12 H4         1.0405   12.7177    3.7656 H         1 RES1    0.0000
     13 H5         0.4142   12.1763    2.4353 H         1 RES1    0.0000
     14 C4         2.4360   12.1775    2.4049 C.2       1 RES1    0.0000
     15 C5         2.6340   11.8056    0.9721 C.3       1 RES1    0.0000
     16 H6         3.5081   11.4260    0.8573 H         1 RES1    0.0000
     17 H7         2.5517   12.5882    0.4229 H         1 RES1    0.0000
     18 H8         1.9695   11.1627    0.7140 H         1 RES1    0.0000
     19 C6         3.4200   12.0183    3.3074 C.2       1 RES1    0.0000
     20 C7         4.6875   11.4290    2.9529 C.1       1 RES1    0.0000
     21 C8         3.2819   12.3955    4.6770 C.1       1 RES1    0.0000
     22 C9         1.7848   15.1610    3.0614 C.ar      1 RES1    0.0000
     23 C10        2.9001   15.6893    2.4481 C.ar      1 RES1    0.0000
     24 H9         3.0939   15.4568    1.5690 H         1 RES1    0.0000
     25 C11        3.7393   16.5631    3.1289 C.ar      1 RES1    0.0000
     26 H10        4.4953   16.9059    2.7082 H         1 RES1    0.0000
     27 C12        3.4491   16.9162    4.4159 C.ar      1 RES1    0.0000
     28 H11        3.9972   17.5179    4.8661 H         1 RES1    0.0000
     29 C13        2.3537   16.3881    5.0496 C.ar      1 RES1    0.0000
     30 H12        2.1716   16.6175    5.9326 H         1 RES1    0.0000
     31 C14        1.5212   15.5150    4.3791 C.ar      1 RES1    0.0000
     32 H13        0.7785   15.1612    4.8116 H         1 RES1    0.0000
@<TRIPOS>BOND
     1    1    3 2
     2    2    3 2
     3    3    6 1
     4    4   20 3
     5    5   21 3
     6    6    7 1
     7    8    6 1
     8    9    6 1
     9   10    9 1
    10   11    9 1
    11   12   11 1
    12   13   11 1
    13   14   11 1
    14   15   14 1
    15   16   15 1
    16   17   15 1
    17   18   15 1
    18   19   14 2
    19   20   19 1
    20   21   19 1
    21   22    9 1
    22   23   22 ar
    23   24   23 1
    24   25   23 ar
    25   26   25 1
    26   27   25 ar
    27   28   27 1
    28   29   27 ar
    29   30   29 1
    30   31   22 ar
    31   32   31 1
    32   29   31 ar
@<TRIPOS>SUBSTRUCTURE
     1 RES1 1

@<TRIPOS>CRYSIN
   8.3170   14.7110   22.7390  90.0000  90.0000  90.0000  61 1

