# MOL2 file generated by ConQuest
# Please check atom types

@<TRIPOS>MOLECULE
IQOQUB
    57    60     1
SMALL
NO_CHARGES
****
Generated from CSD

@<TRIPOS>ATOM
      1 O1        -1.7110    1.1938    5.2344 O.3       1 RES1    0.0000
      2 O2         1.5497    2.7407    4.8698 O.3       1 RES1    0.0000
      3 O3         0.4488    2.8180    2.7815 O.3       1 RES1    0.0000
      4 O4        -2.7301    2.7201    6.6868 O.3       1 RES1    0.0000
      5 O5        -2.8177    6.2766   10.7000 O.2       1 RES1    0.0000
      6 O6         3.0405    7.2927    5.6655 O.2       1 RES1    0.0000
      7 O7         4.4319    6.3285    7.0000 O.2       1 RES1    0.0000
      8 N1         1.0063    1.1798   10.3058 N.1       1 RES1    0.0000
      9 N2        -3.2197    1.2038    9.7516 N.1       1 RES1    0.0000
     10 N3         3.2984    6.5398    6.5910 N.pl3     1 RES1    0.0000
     11 C1        -1.9779    1.5479    6.5791 C.3       1 RES1    0.0000
     12 H1        -2.4749    0.8175    7.0029 H         1 RES1    0.0000
     13 C2        -0.7229    1.8076    7.3809 C.2       1 RES1    0.0000
     14 C3         0.4736    1.8779    6.8219 C.2       1 RES1    0.0000
     15 H2         1.2279    1.9984    7.3522 H         1 RES1    0.0000
     16 C4         0.6123    1.7628    5.3392 C.3       1 RES1    0.0000
     17 H3         0.9166    0.8622    5.0991 H         1 RES1    0.0000
     18 C5        -0.7114    2.0544    4.6813 C.3       1 RES1    0.0000
     19 H4        -0.9578    2.9856    4.8613 H         1 RES1    0.0000
     20 C6        -0.5449    1.8700    3.1933 C.3       1 RES1    0.0000
     21 H5        -0.2554    0.9664    2.9937 H         1 RES1    0.0000
     22 H6        -1.3828    2.0356    2.7344 H         1 RES1    0.0000
     23 C7         1.6936    2.6415    3.4481 C.3       1 RES1    0.0000
     24 H7         2.0763    1.7705    3.2128 H         1 RES1    0.0000
     25 C8        -4.1219    2.5464    6.3738 C.3       1 RES1    0.0000
     26 H8        -4.2085    1.9790    5.6039 H         1 RES1    0.0000
     27 H9        -4.5177    3.4011    6.1880 H         1 RES1    0.0000
     28 H10       -4.5697    2.1413    7.1213 H         1 RES1    0.0000
     29 C9        -0.9461    2.1647    8.8642 C.3       1 RES1    0.0000
     30 C10        0.1524    1.6052    9.6842 C.1       1 RES1    0.0000
     31 C11       -2.2212    1.5840    9.3646 C.1       1 RES1    0.0000
     32 C12       -0.9869    3.7146    9.0694 C.2       1 RES1    0.0000
     33 C13       -1.9692    4.2978    9.7569 C.2       1 RES1    0.0000
     34 H11       -2.6691    3.7749   10.0749 H         1 RES1    0.0000
     35 C14       -1.9778    5.7368   10.0269 C.2       1 RES1    0.0000
     36 H12       -1.3016    6.2602    9.6601 H         1 RES1    0.0000
     37 C15        0.1306    4.4753    8.4499 C.ar      1 RES1    0.0000
     38 C16        1.3906    4.5065    9.0418 C.ar      1 RES1    0.0000
     39 H13        1.5351    4.0593    9.8440 H         1 RES1    0.0000
     40 C17        2.4259    5.1961    8.4489 C.ar      1 RES1    0.0000
     41 H14        3.2682    5.2223    8.8432 H         1 RES1    0.0000
     42 C18        2.1837    5.8467    7.2553 C.ar      1 RES1    0.0000
     43 C19        0.9527    5.8679    6.6605 C.ar      1 RES1    0.0000
     44 H15        0.8138    6.3406    5.8720 H         1 RES1    0.0000
     45 C20       -0.0850    5.1654    7.2612 C.ar      1 RES1    0.0000
     46 H16       -0.9273    5.1568    6.8669 H         1 RES1    0.0000
     47 C21        2.6346    3.7357    3.0397 C.ar      1 RES1    0.0000
     48 C22        2.1887    5.0317    2.8704 C.ar      1 RES1    0.0000
     49 H17        1.2853    5.2282    2.9683 H         1 RES1    0.0000
     50 C23        3.0876    6.0398    2.5515 C.ar      1 RES1    0.0000
     51 H18        2.7814    6.9109    2.4360 H         1 RES1    0.0000
     52 C24        4.4259    5.7658    2.4057 C.ar      1 RES1    0.0000
     53 H19        5.0245    6.4448    2.1934 H         1 RES1    0.0000
     54 C25        4.8703    4.4777    2.5779 C.ar      1 RES1    0.0000
     55 H20        5.7766    4.2871    2.4908 H         1 RES1    0.0000
     56 C26        3.9789    3.4511    2.8802 C.ar      1 RES1    0.0000
     57 H21        4.2852    2.5776    2.9741 H         1 RES1    0.0000
@<TRIPOS>BOND
     1    1   11 1
     2    2   16 1
     3    3   20 1
     4    4   11 1
     5    5   35 2
     6    6   10 2
     7    7   10 2
     8    8   30 3
     9    9   31 3
    10   10   42 1
    11   11   12 1
    12   13   11 1
    13   14   13 2
    14   15   14 1
    15   16   14 1
    16   17   16 1
    17   18    1 1
    18   19   18 1
    19   20   18 1
    20   21   20 1
    21   22   20 1
    22   23    2 1
    23   24   23 1
    24   25    4 1
    25   26   25 1
    26   27   25 1
    27   28   25 1
    28   29   13 1
    29   30   29 1
    30   31   29 1
    31   32   29 1
    32   33   32 2
    33   34   33 1
    34   35   33 1
    35   36   35 1
    36   37   32 1
    37   38   37 ar
    38   39   38 1
    39   40   38 ar
    40   41   40 1
    41   42   40 ar
    42   43   42 ar
    43   44   43 1
    44   45   37 ar
    45   46   45 1
    46   47   23 1
    47   48   47 ar
    48   49   48 1
    49   50   48 ar
    50   51   50 1
    51   52   50 ar
    52   53   52 1
    53   54   52 ar
    54   55   54 1
    55   56   47 ar
    56   57   56 1
    57    3   23 1
    58   16   18 1
    59   43   45 ar
    60   54   56 ar
@<TRIPOS>SUBSTRUCTURE
     1 RES1 1

@<TRIPOS>CRYSIN
   8.3550   14.8910    9.9750  90.0000 101.2500  90.0000   4 1

