# MOL2 file generated by ConQuest
# Please check atom types

@<TRIPOS>MOLECULE
IQOQUA
    85    89     1
SMALL
NO_CHARGES
****
Generated from CSD

@<TRIPOS>ATOM
      1 O1        -2.7646    0.6351    5.8211 O.3       1 RES1    0.0000
      2 O2        -4.0265    3.3976    4.8872 O.3       1 RES1    0.0000
      3 O3        -5.0133    2.4373    6.6557 O.3       1 RES1    0.0000
      4 O4        -3.7120   -2.0894    6.0005 O.3       1 RES1    0.0000
      5 O5         0.1363    2.8341    3.2204 O.3       1 RES1    0.0000
      6 O6         1.7831    0.6473    3.2964 O.2       1 RES1    0.0000
      7 O7         1.9987    0.6986    1.0737 O.3       1 RES1    0.0000
      8 N1        -0.8862    3.8018    6.2203 N.1       1 RES1    0.0000
      9 N2        -0.9417    1.9755    3.2947 N.2       1 RES1    0.0000
     10 C1        -2.8319    1.2933    4.5656 C.3       1 RES1    0.0000
     11 H1        -2.8413    0.6146    3.8587 H         1 RES1    0.0000
     12 C2        -4.1703    2.0480    4.5341 C.3       1 RES1    0.0000
     13 H2        -4.6273    1.9432    3.6737 H         1 RES1    0.0000
     14 C3        -4.9676    1.4063    5.6862 C.3       1 RES1    0.0000
     15 H3        -5.8611    1.1162    5.4067 H         1 RES1    0.0000
     16 C4        -4.1094    0.2542    6.1653 C.3       1 RES1    0.0000
     17 H4        -4.1865    0.1717    7.1389 H         1 RES1    0.0000
     18 C5        -4.5247   -1.0407    5.5182 C.3       1 RES1    0.0000
     19 H5        -5.4542   -1.2269    5.7226 H         1 RES1    0.0000
     20 H6        -4.4334   -0.9716    4.5551 H         1 RES1    0.0000
     21 C6        -4.9690    3.6624    5.9343 C.3       1 RES1    0.0000
     22 C7        -4.4203    4.7454    6.8327 C.3       1 RES1    0.0000
     23 H7        -4.3883    5.5742    6.3511 H         1 RES1    0.0000
     24 H8        -3.5354    4.5054    7.1179 H         1 RES1    0.0000
     25 H9        -4.9885    4.8421    7.6002 H         1 RES1    0.0000
     26 C8        -6.3353    4.0007    5.3574 C.3       1 RES1    0.0000
     27 H10       -6.2833    4.8286    4.8759 H         1 RES1    0.0000
     28 H11       -6.9725    4.0852    6.0708 H         1 RES1    0.0000
     29 H12       -6.6133    3.3011    4.7611 H         1 RES1    0.0000
     30 C9        -3.7143   -3.3090    5.2338 C.3       1 RES1    0.0000
     31 C10       -2.9891   -3.0851    3.8983 C.ar      1 RES1    0.0000
     32 C11       -3.2103   -3.8814    2.7761 C.ar      1 RES1    0.0000
     33 H13       -3.8582   -4.5461    2.8059 H         1 RES1    0.0000
     34 C12       -2.4786   -3.6943    1.6207 C.ar      1 RES1    0.0000
     35 H14       -2.6347   -4.2343    0.8798 H         1 RES1    0.0000
     36 C13       -1.5208   -2.7137    1.5625 C.ar      1 RES1    0.0000
     37 H15       -1.0486   -2.5691    0.7748 H         1 RES1    0.0000
     38 C14       -1.2641   -1.9531    2.6686 C.ar      1 RES1    0.0000
     39 H16       -0.5903   -1.3128    2.6379 H         1 RES1    0.0000
     40 C15       -1.9885   -2.1221    3.8256 C.ar      1 RES1    0.0000
     41 H17       -1.8083   -1.5884    4.5656 H         1 RES1    0.0000
     42 C16       -2.8567   -4.3050    6.0344 C.ar      1 RES1    0.0000
     43 C17       -2.2827   -3.9501    7.2536 C.ar      1 RES1    0.0000
     44 H18       -2.4463   -3.1091    7.6156 H         1 RES1    0.0000
     45 C18       -1.4675   -4.8491    7.9298 C.ar      1 RES1    0.0000
     46 H19       -1.0685   -4.5913    8.7297 H         1 RES1    0.0000
     47 C19       -1.2425   -6.0927    7.4451 C.ar      1 RES1    0.0000
     48 H20       -0.7039   -6.6881    7.9129 H         1 RES1    0.0000
     49 C20       -1.8154   -6.4628    6.2631 C.ar      1 RES1    0.0000
     50 H21       -1.6659   -7.3140    5.9197 H         1 RES1    0.0000
     51 C21       -2.6225   -5.5676    5.5739 C.ar      1 RES1    0.0000
     52 H22       -3.0147   -5.8363    4.7749 H         1 RES1    0.0000
     53 C22       -5.1723   -3.7944    5.0908 C.ar      1 RES1    0.0000
     54 C23       -5.7466   -4.5642    6.0805 C.ar      1 RES1    0.0000
     55 H23       -5.2210   -4.8850    6.7777 H         1 RES1    0.0000
     56 C24       -7.1083   -4.8692    6.0498 C.ar      1 RES1    0.0000
     57 H24       -7.4815   -5.3957    6.7196 H         1 RES1    0.0000
     58 C25       -7.8937   -4.3970    5.0391 C.ar      1 RES1    0.0000
     59 H25       -8.8026   -4.5890    5.0278 H         1 RES1    0.0000
     60 C26       -7.3490   -3.6453    4.0518 C.ar      1 RES1    0.0000
     61 H26       -7.8915   -3.3282    3.3666 H         1 RES1    0.0000
     62 C27       -5.9657   -3.3359    4.0453 C.ar      1 RES1    0.0000
     63 H27       -5.5961   -2.8357    3.3545 H         1 RES1    0.0000
     64 C28       -1.6044    2.1391    4.3968 C.2       1 RES1    0.0000
     65 C29       -1.2320    3.0618    5.4083 C.1       1 RES1    0.0000
     66 C30        0.8670    2.4782    2.0489 C.3       1 RES1    0.0000
     67 H28        1.5024    3.1814    1.8397 H         1 RES1    0.0000
     68 H29        0.2560    2.3951    1.3008 H         1 RES1    0.0000
     69 C31        1.6040    1.1770    2.2420 C.2       1 RES1    0.0000
     70 C32        2.7281   -0.5558    1.0576 C.3       1 RES1    0.0000
     71 H30        2.4536   -1.0823    1.8243 H         1 RES1    0.0000
     72 H31        2.4789   -1.0484    0.2602 H         1 RES1    0.0000
     73 C33        4.1353   -0.4248    1.0834 C.3       1 RES1    0.0000
     74 H32        4.5229   -1.3128    1.1117 H         1 RES1    0.0000
     75 H33        4.3832    0.0249    1.9059 H         1 RES1    0.0000
     76 C34        4.7609    0.3299   -0.0792 C.3       1 RES1    0.0000
     77 H34        4.1557    1.0574   -0.3353 H         1 RES1    0.0000
     78 C35        6.0475    0.9332    0.3927 C.3       1 RES1    0.0000
     79 H35        5.8809    1.4755    1.1683 H         1 RES1    0.0000
     80 H36        6.4198    1.4777   -0.3046 H         1 RES1    0.0000
     81 H37        6.6649    0.2327    0.6173 H         1 RES1    0.0000
     82 C36        5.0234   -0.5152   -1.2911 C.3       1 RES1    0.0000
     83 H38        4.2004   -0.9015   -1.5957 H         1 RES1    0.0000
     84 H39        5.6425   -1.2134   -1.0665 H         1 RES1    0.0000
     85 H40        5.3965    0.0316   -1.9867 H         1 RES1    0.0000
@<TRIPOS>BOND
     1    1   10 1
     2    2   12 1
     3    3   14 1
     4    4   18 1
     5    5    9 1
     6    6   69 2
     7    7   69 1
     8    8   65 3
     9    9   64 2
    10   10   11 1
    11   12   10 1
    12   13   12 1
    13   14   12 1
    14   15   14 1
    15   16    1 1
    16   17   16 1
    17   18   16 1
    18   19   18 1
    19   20   18 1
    20   21    2 1
    21   22   21 1
    22   23   22 1
    23   24   22 1
    24   25   22 1
    25   26   21 1
    26   27   26 1
    27   28   26 1
    28   29   26 1
    29   30    4 1
    30   31   30 1
    31   32   31 ar
    32   33   32 1
    33   34   32 ar
    34   35   34 1
    35   36   34 ar
    36   37   36 1
    37   38   36 ar
    38   39   38 1
    39   40   31 ar
    40   41   40 1
    41   42   30 1
    42   43   42 ar
    43   44   43 1
    44   45   43 ar
    45   46   45 1
    46   47   45 ar
    47   48   47 1
    48   49   47 ar
    49   50   49 1
    50   51   42 ar
    51   52   51 1
    52   53   30 1
    53   54   53 ar
    54   55   54 1
    55   56   54 ar
    56   57   56 1
    57   58   56 ar
    58   59   58 1
    59   60   58 ar
    60   61   60 1
    61   62   53 ar
    62   63   62 1
    63   64   10 1
    64   65   64 1
    65   66    5 1
    66   67   66 1
    67   68   66 1
    68   69   66 1
    69   70    7 1
    70   71   70 1
    71   72   70 1
    72   73   70 1
    73   74   73 1
    74   75   73 1
    75   76   73 1
    76   77   76 1
    77   78   76 1
    78   79   78 1
    79   80   78 1
    80   81   78 1
    81   82   76 1
    82   83   82 1
    83   84   82 1
    84   85   82 1
    85    3   21 1
    86   14   16 1
    87   38   40 ar
    88   49   51 ar
    89   60   62 ar
@<TRIPOS>SUBSTRUCTURE
     1 RES1 1

@<TRIPOS>CRYSIN
   9.1070   22.5950    9.2600  90.0000 119.2500  90.0000   4 1

