# MOL2 file generated by ConQuest
# Please check atom types

@<TRIPOS>MOLECULE
IQORUC
    47    49     1
SMALL
NO_CHARGES
****
Generated from CSD

@<TRIPOS>ATOM
      1 O1         2.8203    6.1409   13.8265 O.3       1 RES1    0.0000
      2 O2         1.8003    9.4753   12.7168 O.3       1 RES1    0.0000
      3 O3         2.7191    8.3061   10.9162 O.3       1 RES1    0.0000
      4 O4         0.0325    8.2268   14.3528 O.3       1 RES1    0.0000
      5 O5        -0.9503    7.8908   16.3530 O.2       1 RES1    0.0000
      6 O6         0.7794    5.4592   14.7449 O.3       1 RES1    0.0000
      7 O7         2.9249    9.8486   17.2381 O.2       1 RES1    0.0000
      8 O8         3.2993   10.9098   15.4288 O.2       1 RES1    0.0000
      9 N1         2.6319   10.2107   16.1243 N.pl3     1 RES1    0.0000
     10 C1         1.3678    8.4465   14.8839 C.3       1 RES1    0.0000
     11 C2         1.8858    7.2899   15.7599 C.3       1 RES1    0.0000
     12 H1         2.7423    7.5422   16.1368 H         1 RES1    0.0000
     13 H2         1.2682    7.1541   16.4960 H         1 RES1    0.0000
     14 C3         2.0476    5.9802   15.0086 C.3       1 RES1    0.0000
     15 H3         2.5174    5.3504   15.5946 H         1 RES1    0.0000
     16 C4         2.2692    7.1262   12.9554 C.3       1 RES1    0.0000
     17 H4         1.3620    6.8700   12.6872 H         1 RES1    0.0000
     18 C5         2.2501    8.4869   13.6386 C.3       1 RES1    0.0000
     19 H5         3.1648    8.7103   13.9122 H         1 RES1    0.0000
     20 C6         2.7066    9.5298   11.6168 C.3       1 RES1    0.0000
     21 H6         3.6080    9.7128   11.9553 H         1 RES1    0.0000
     22 C7         3.1665    7.2215   11.7389 C.3       1 RES1    0.0000
     23 H7         4.0836    7.3727   12.0156 H         1 RES1    0.0000
     24 H8         3.1324    6.3914   11.2391 H         1 RES1    0.0000
     25 C8         1.2907    9.8053   15.6122 C.3       1 RES1    0.0000
     26 H9         0.9603   10.4813   15.0010 H         1 RES1    0.0000
     27 H10        0.6682    9.7398   16.3532 H         1 RES1    0.0000
     28 C9         0.8101    4.1756   14.1157 C.3       1 RES1    0.0000
     29 H11        1.0101    4.2815   13.1825 H         1 RES1    0.0000
     30 H12       -0.0448    3.7509   14.2134 H         1 RES1    0.0000
     31 H13        1.4865    3.6334   14.5280 H         1 RES1    0.0000
     32 C10       -1.0109    7.9053   15.1599 C.2       1 RES1    0.0000
     33 C11       -2.2003    7.5952   14.3524 C.3       1 RES1    0.0000
     34 H14       -2.0708    6.7593   13.8988 H         1 RES1    0.0000
     35 H15       -2.3381    8.2914   13.7046 H         1 RES1    0.0000
     36 H16       -2.9689    7.5345   14.9252 H         1 RES1    0.0000
     37 C12        2.3082   10.6248   10.6632 C.ar      1 RES1    0.0000
     38 C13        2.9349   11.8439   10.7241 C.ar      1 RES1    0.0000
     39 H17        3.5507   12.0096   11.4019 H         1 RES1    0.0000
     40 C14        2.6635   12.8320    9.7918 C.ar      1 RES1    0.0000
     41 H18        3.1092   13.6476    9.8266 H         1 RES1    0.0000
     42 C15        1.7264   12.5912    8.8143 C.ar      1 RES1    0.0000
     43 H19        1.5347   13.2509    8.1866 H         1 RES1    0.0000
     44 C16        1.0674   11.3817    8.7552 C.ar      1 RES1    0.0000
     45 H20        0.4308   11.2276    8.0952 H         1 RES1    0.0000
     46 C17        1.3579   10.3994    9.6798 C.ar      1 RES1    0.0000
     47 H21        0.9138    9.5828    9.6437 H         1 RES1    0.0000
@<TRIPOS>BOND
     1    1   14 1
     2    2   18 1
     3    3   20 1
     4    4   10 1
     5    5   32 2
     6    6   14 1
     7    7    9 2
     8    8    9 2
     9    9   25 1
    10   10   11 1
    11   11   12 1
    12   13   11 1
    13   14   11 1
    14   15   14 1
    15   16    1 1
    16   17   16 1
    17   18   10 1
    18   19   18 1
    19   20    2 1
    20   21   20 1
    21   22    3 1
    22   23   22 1
    23   24   22 1
    24   25   10 1
    25   26   25 1
    26   27   25 1
    27   28    6 1
    28   29   28 1
    29   30   28 1
    30   31   28 1
    31   32    4 1
    32   33   32 1
    33   34   33 1
    34   35   33 1
    35   36   33 1
    36   37   20 1
    37   38   37 ar
    38   39   38 1
    39   40   38 ar
    40   41   40 1
    41   42   40 ar
    42   43   42 1
    43   44   42 ar
    44   45   44 1
    45   46   37 ar
    46   47   46 1
    47   16   18 1
    48   16   22 1
    49   44   46 ar
@<TRIPOS>SUBSTRUCTURE
     1 RES1 1

@<TRIPOS>CRYSIN
   8.3000    9.6300   22.3130  90.0000  90.0000  90.0000  19 1

