# MOL2 file generated by ConQuest
# Please check atom types

@<TRIPOS>MOLECULE
IQUSUJ
    46    49     1
SMALL
NO_CHARGES
****
Generated from CSD

@<TRIPOS>ATOM
      1 O1         3.5060   -0.5684    4.3006 O.3       1 RES1    0.0000
      2 O2         6.4783   -0.1888    7.1061 O.3       1 RES1    0.0000
      3 O3         5.8478    2.0789    1.1752 O.3       1 RES1    0.0000
      4 O4         7.4151    1.4652    5.9874 O.2       1 RES1    0.0000
      5 O5         4.0781    0.9339    0.4097 O.2       1 RES1    0.0000
      6 O6         3.0988    7.1112    5.2857 O.2       1 RES1    0.0000
      7 O7         5.0829    7.7237    4.8083 O.2       1 RES1    0.0000
      8 N1         4.2250    6.8679    4.9078 N.pl3     1 RES1    0.0000
      9 N2         2.6773   -0.5059    2.2533 N.3       1 RES1    0.0000
     10 C1         5.4937    0.5189    5.0099 C.2       1 RES1    0.0000
     11 C2         3.6530   -0.0340    3.0338 C.2       1 RES1    0.0000
     12 C3         5.2459    2.8503    4.1063 C.ar      1 RES1    0.0000
     13 C4         4.5171   -0.3752    5.1891 C.2       1 RES1    0.0000
     14 C5         3.5087   -2.9815    7.6973 C.ar      1 RES1    0.0000
     15 C6         4.5536   -2.8566    8.6001 C.ar      1 RES1    0.0000
     16 C7         5.5412   -1.9214    8.3955 C.ar      1 RES1    0.0000
     17 C8         5.5791    1.3885    3.7798 C.3       1 RES1    0.0000
     18 C9         4.4502   -1.2366    6.3468 C.ar      1 RES1    0.0000
     19 C10        4.0454    3.1674    4.7130 C.ar      1 RES1    0.0000
     20 C11        6.5123    0.6570    6.0177 C.2       1 RES1    0.0000
     21 C12        3.4459   -2.1837    6.5765 C.ar      1 RES1    0.0000
     22 C13        4.6498    0.8374    2.7192 C.2       1 RES1    0.0000
     23 C14        4.5921    5.4708    4.6361 C.ar      1 RES1    0.0000
     24 C15        4.7963    1.2538    1.3419 C.2       1 RES1    0.0000
     25 C16        5.4743   -1.1184    7.2697 C.ar      1 RES1    0.0000
     26 C17        6.1055    3.8799    3.7708 C.ar      1 RES1    0.0000
     27 C18        3.7095    4.4763    4.9860 C.ar      1 RES1    0.0000
     28 C19        5.7949    5.1936    4.0403 C.ar      1 RES1    0.0000
     29 C20        6.0862    2.5572   -0.1834 C.3       1 RES1    0.0000
     30 C21        7.1498    3.5595   -0.1280 C.3       1 RES1    0.0000
     31 H1         2.6515   -0.2716    1.3977 H         1 RES1    0.0000
     32 H2         2.2167   -1.1698    2.5815 H         1 RES1    0.0000
     33 H3         2.7012   -2.2644    5.9073 H         1 RES1    0.0000
     34 H4         2.8079   -3.6096    7.8219 H         1 RES1    0.0000
     35 H5         5.2827    2.9349   -0.5439 H         1 RES1    0.0000
     36 H6         6.3569    1.8027   -0.7392 H         1 RES1    0.0000
     37 H7         6.7478    4.4076   -0.0084 H         1 RES1    0.0000
     38 H8         7.6171    3.5386   -0.9548 H         1 RES1    0.0000
     39 H9         7.7151    3.3464    0.5810 H         1 RES1    0.0000
     40 H10        4.5578   -3.4613    9.4334 H         1 RES1    0.0000
     41 H11        6.4093    5.9116    3.7889 H         1 RES1    0.0000
     42 H12        6.5139    1.3641    3.4773 H         1 RES1    0.0000
     43 H13        6.9096    3.6556    3.3814 H         1 RES1    0.0000
     44 H14        3.3856    2.4607    4.9575 H         1 RES1    0.0000
     45 H15        2.8854    4.7021    5.4223 H         1 RES1    0.0000
     46 H16        6.2626   -1.8215    9.0242 H         1 RES1    0.0000
@<TRIPOS>BOND
     1    1   11 1
     2    2   20 1
     3    3   24 1
     4    4   20 2
     5    5   24 2
     6    6    8 2
     7    7    8 2
     8    8   23 1
     9    9   11 1
    10   10   13 2
    11   11   22 2
    12   12   17 1
    13   13    1 1
    14   14   15 ar
    15   15   16 ar
    16   16   25 ar
    17   17   10 1
    18   18   13 1
    19   19   12 ar
    20   20   10 1
    21   21   14 ar
    22   22   17 1
    23   23   27 ar
    24   24   22 1
    25   25    2 1
    26   26   12 ar
    27   27   19 ar
    28   28   23 ar
    29   29    3 1
    30   30   29 1
    31   31    9 1
    32   32    9 1
    33   33   21 1
    34   34   14 1
    35   35   29 1
    36   36   29 1
    37   37   30 1
    38   38   30 1
    39   39   30 1
    40   40   15 1
    41   41   28 1
    42   42   17 1
    43   43   26 1
    44   44   19 1
    45   45   27 1
    46   46   16 1
    47   18   21 ar
    48   18   25 ar
    49   26   28 ar
@<TRIPOS>SUBSTRUCTURE
     1 RES1 1

@<TRIPOS>CRYSIN
   5.6807   20.8890   16.9210  90.0000  95.6290  90.0000  14 1

