# MOL2 file generated by ConQuest
# Please check atom types

@<TRIPOS>MOLECULE
IQUSAQ
    23    23     1
SMALL
NO_CHARGES
****
Generated from CSD

@<TRIPOS>ATOM
      1 N1         1.8135    1.5585   10.7839 N.pl3     1 RES1    0.0000
      2 O1         2.2042    7.9958   15.0104 O.2       1 RES1    0.0000
      3 O2         0.9206    6.3117   14.2984 O.3       1 RES1    0.0000
      4 O3         1.7865    1.6157    9.5648 O.2       1 RES1    0.0000
      5 O4         1.5156    0.5531   11.4023 O.2       1 RES1    0.0000
      6 C1         2.0739    6.9491   14.4270 C.2       1 RES1    0.0000
      7 C2         3.2228    6.2180   13.7857 C.3       1 RES1    0.0000
      8 H1         3.6928    6.8387   13.2067 H         1 RES1    0.0000
      9 H2         3.8395    5.9478   14.4845 H         1 RES1    0.0000
     10 C3         2.8613    5.0004   12.9778 C.ar      1 RES1    0.0000
     11 C4         2.6832    3.7845   13.6154 C.ar      1 RES1    0.0000
     12 H3         2.8014    3.7297   14.5370 H         1 RES1    0.0000
     13 C5         2.3329    2.6560   12.9078 C.ar      1 RES1    0.0000
     14 H4         2.1967    1.8446   13.3412 H         1 RES1    0.0000
     15 C6         2.1899    2.7601   11.5367 C.ar      1 RES1    0.0000
     16 C7         2.3815    3.9435   10.8678 C.ar      1 RES1    0.0000
     17 H5         2.2880    3.9911    9.9437 H         1 RES1    0.0000
     18 C8         2.7191    5.0640   11.6083 C.ar      1 RES1    0.0000
     19 H6         2.8523    5.8754   11.1735 H         1 RES1    0.0000
     20 C9        -0.2260    6.9149   14.9279 C.3       1 RES1    0.0000
     21 H7        -0.0195    7.1160   15.8441 H         1 RES1    0.0000
     22 H8        -0.9677    6.3070   14.8939 H         1 RES1    0.0000
     23 H9        -0.4543    7.7256   14.4675 H         1 RES1    0.0000
@<TRIPOS>BOND
     1    1    4 2
     2    2    6 2
     3    3    6 1
     4    5    1 2
     5    6    7 1
     6    7    8 1
     7    9    7 1
     8   10    7 1
     9   11   10 ar
    10   12   11 1
    11   13   11 ar
    12   14   13 1
    13   15    1 1
    14   16   15 ar
    15   17   16 1
    16   18   10 ar
    17   19   18 1
    18   20    3 1
    19   21   20 1
    20   22   20 1
    21   23   20 1
    22   13   15 ar
    23   16   18 ar
@<TRIPOS>SUBSTRUCTURE
     1 RES1 1

@<TRIPOS>CRYSIN
   7.4844    7.9473   15.4501  90.0000  90.0000  90.0000  33 4

