# MOL2 file generated by ConQuest
# Please check atom types

@<TRIPOS>MOLECULE
IQUTIY
    44    45     1
SMALL
NO_CHARGES
****
Generated from CSD

@<TRIPOS>ATOM
      1 O1         3.4539    6.4614   12.6519 O.3       1 RES1    0.0000
      2 O2         4.3605    3.5978    7.8274 O.3       1 RES1    0.0000
      3 O3         4.1006    4.3793   12.2557 O.2       1 RES1    0.0000
      4 O4         4.2461    5.8402    7.8741 O.2       1 RES1    0.0000
      5 N1         3.5279    4.5658    9.6181 N.am      1 RES1    0.0000
      6 H1         3.4264    3.7582    9.8947 H         1 RES1    0.0000
      7 C1         3.1366    5.6368   10.4764 C.3       1 RES1    0.0000
      8 H2         3.5565    6.4571   10.1440 H         1 RES1    0.0000
      9 C2         1.6029    5.8761   10.5333 C.3       1 RES1    0.0000
     10 H3         1.4261    6.6098   11.1594 H         1 RES1    0.0000
     11 C3         3.6330    5.3969   11.8857 C.2       1 RES1    0.0000
     12 C4         3.8056    6.3036   14.0441 C.3       1 RES1    0.0000
     13 H4         3.2772    5.6018   14.4300 H         1 RES1    0.0000
     14 H5         3.6372    7.1255   14.5119 H         1 RES1    0.0000
     15 H6         4.7362    6.0801   14.1147 H         1 RES1    0.0000
     16 C5         7.3179    4.2592    5.9639 C.ar      1 RES1    0.0000
     17 H7         7.0032    4.9890    5.4801 H         1 RES1    0.0000
     18 C6         6.4444    3.4252    6.5980 C.ar      1 RES1    0.0000
     19 C7         4.0438    4.7654    8.4080 C.2       1 RES1    0.0000
     20 C8         4.9653    3.6975    6.5001 C.3       1 RES1    0.0000
     21 H8         4.8188    4.5857    6.1392 H         1 RES1    0.0000
     22 H9         4.5524    3.0554    5.9025 H         1 RES1    0.0000
     23 C9         6.9352    2.3463    7.3083 C.ar      1 RES1    0.0000
     24 H10        6.3437    1.7791    7.7489 H         1 RES1    0.0000
     25 C10        1.0079    6.2367    9.1923 C.3       1 RES1    0.0000
     26 H11        1.3536    5.6438    8.4934 H         1 RES1    0.0000
     27 N2         1.1771    7.5674    8.8315 N.pl3     1 RES1    0.0000
     28 C11        0.7877    4.6760   10.9580 C.3       1 RES1    0.0000
     29 H12        1.2482    3.8603   10.7052 H         1 RES1    0.0000
     30 H13        0.6781    4.6763   11.9210 H         1 RES1    0.0000
     31 O5         1.5329    8.3917    9.5987 O.2       1 RES1    0.0000
     32 C12        8.7054    4.0017    6.0482 C.ar      1 RES1    0.0000
     33 H14        9.3203    4.5458    5.6110 H         1 RES1    0.0000
     34 C13       -0.4938    5.9957    9.4132 C.3       1 RES1    0.0000
     35 H15       -0.9489    5.8512    8.5685 H         1 RES1    0.0000
     36 H16       -0.9031    6.7513    9.8640 H         1 RES1    0.0000
     37 C14        8.2643    2.1062    7.3721 C.ar      1 RES1    0.0000
     38 H17        8.5735    1.3559    7.8274 H         1 RES1    0.0000
     39 C15        9.1234    2.9169    6.8018 C.ar      1 RES1    0.0000
     40 H18       10.0341    2.7592    6.9042 H         1 RES1    0.0000
     41 C16       -0.5534    4.7280   10.2954 C.3       1 RES1    0.0000
     42 H19       -1.2623    4.7973   10.9534 H         1 RES1    0.0000
     43 H20       -0.7026    3.9368    9.7536 H         1 RES1    0.0000
     44 O6         1.0031    7.8327    7.6908 O.2       1 RES1    0.0000
@<TRIPOS>BOND
     1    1   11 1
     2    2   19 1
     3    3   11 2
     4    4   19 2
     5    5    6 1
     6    7    5 1
     7    8    7 1
     8    9    7 1
     9   10    9 1
    10   11    7 1
    11   12    1 1
    12   13   12 1
    13   14   12 1
    14   15   12 1
    15   16   17 1
    16   18   16 ar
    17   19    5 1
    18   20    2 1
    19   21   20 1
    20   22   20 1
    21   23   18 ar
    22   24   23 1
    23   25    9 1
    24   26   25 1
    25   27   25 1
    26   28    9 1
    27   29   28 1
    28   30   28 1
    29   31   27 2
    30   32   16 ar
    31   33   32 1
    32   34   25 1
    33   35   34 1
    34   36   34 1
    35   37   23 ar
    36   38   37 1
    37   39   32 ar
    38   40   39 1
    39   41   28 1
    40   42   41 1
    41   43   41 1
    42   44   27 2
    43   18   20 1
    44   34   41 1
    45   37   39 ar
@<TRIPOS>SUBSTRUCTURE
     1 RES1 1

@<TRIPOS>CRYSIN
   7.9027    9.3253   12.3325  73.1350  72.9320  81.3050   2 1

