# MOL2 file generated by ConQuest
# Please check atom types

@<TRIPOS>MOLECULE
IQUVUN
    39    40     1
SMALL
NO_CHARGES
****
Generated from CSD

@<TRIPOS>ATOM
      1 N1         8.3126   -0.3782    2.5103 N.am      1 RES1    0.0000
      2 C1         7.3226   -1.3740    2.0901 C.3       1 RES1    0.0000
      3 H1         7.6290   -1.8145    1.2952 H         1 RES1    0.0000
      4 H2         6.4858   -0.9384    1.9120 H         1 RES1    0.0000
      5 H3         7.2030   -2.0216    2.7895 H         1 RES1    0.0000
      6 C2         9.0278    0.1676    1.5024 C.2       1 RES1    0.0000
      7 O1         9.0361   -0.2561    0.3730 O.2       1 RES1    0.0000
      8 N2         9.7657    1.3381    1.8185 N.am      1 RES1    0.0000
      9 C3        10.4006    2.0383    0.6978 C.3       1 RES1    0.0000
     10 H4        10.5421    2.9575    0.9342 H         1 RES1    0.0000
     11 H5         9.8317    1.9892   -0.0745 H         1 RES1    0.0000
     12 H6        11.2456    1.6254    0.5003 H         1 RES1    0.0000
     13 C4        10.0241    1.7762    3.0842 C.2       1 RES1    0.0000
     14 O2        10.7633    2.7325    3.2639 O.2       1 RES1    0.0000
     15 C5         9.4469    0.9563    4.2272 C.3       1 RES1    0.0000
     16 C6        10.5366   -0.0874    4.5721 C.3       1 RES1    0.0000
     17 H7        10.6204   -0.7134    3.8484 H         1 RES1    0.0000
     18 H8        10.2893   -0.5554    5.3735 H         1 RES1    0.0000
     19 H9        11.3762    0.3579    4.7064 H         1 RES1    0.0000
     20 C7         9.1652    1.8767    5.4237 C.3       1 RES1    0.0000
     21 H10       10.0048    2.2131    5.7750 H         1 RES1    0.0000
     22 H11        8.6390    2.6356    5.1290 H         1 RES1    0.0000
     23 C8         8.4246    1.1490    6.5165 C.3       1 RES1    0.0000
     24 H12        8.2102    1.7738    7.2272 H         1 RES1    0.0000
     25 H13        8.9990    0.4620    6.8888 H         1 RES1    0.0000
     26 C9         7.1412    0.5063    6.0146 C.3       1 RES1    0.0000
     27 H14        6.7386   -0.0024    6.7367 H         1 RES1    0.0000
     28 H15        6.5174    1.2041    5.7588 H         1 RES1    0.0000
     29 C10        7.3707   -0.4069    4.8343 C.3       1 RES1    0.0000
     30 H16        6.4954   -0.6703    4.4782 H         1 RES1    0.0000
     31 N3         8.0783   -1.6278    5.2504 N.3       1 RES1    0.0000
     32 O3         7.0416   -2.5913    5.5721 O.3       1 RES1    0.0000
     33 C11        7.3982   -3.2568    6.7545 C.3       1 RES1    0.0000
     34 H17        8.2102   -3.7487    6.6120 H         1 RES1    0.0000
     35 H18        6.6960   -3.8612    7.0054 H         1 RES1    0.0000
     36 H19        7.5328   -2.6140    7.4555 H         1 RES1    0.0000
     37 C12        8.1072    0.3698    3.7496 C.3       1 RES1    0.0000
     38 H20        7.5369    1.1335    3.5197 H         1 RES1    0.0000
     39 H21        8.6156   -1.9629    4.6142 H         1 RES1    0.0000
@<TRIPOS>BOND
     1    1    2 1
     2    2    3 1
     3    4    2 1
     4    5    2 1
     5    6    1 1
     6    7    6 2
     7    8    6 1
     8    9    8 1
     9   10    9 1
    10   11    9 1
    11   12    9 1
    12   13    8 1
    13   14   13 2
    14   15   13 1
    15   16   15 1
    16   17   16 1
    17   18   16 1
    18   19   16 1
    19   20   15 1
    20   21   20 1
    21   22   20 1
    22   23   20 1
    23   24   23 1
    24   25   23 1
    25   26   23 1
    26   27   26 1
    27   28   26 1
    28   29   26 1
    29   30   29 1
    30   31   29 1
    31   32   31 1
    32   33   32 1
    33   34   33 1
    34   35   33 1
    35   36   33 1
    36   37    1 1
    37   38   37 1
    38   39   31 1
    39   15   37 1
    40   29   37 1
@<TRIPOS>SUBSTRUCTURE
     1 RES1 1

@<TRIPOS>CRYSIN
  13.7410   11.9690   16.1900  90.0000  90.0000  90.0000  61 1

