# MOL2 file generated by ConQuest
# Please check atom types

@<TRIPOS>MOLECULE
IQUVOH
    39    40     1
SMALL
NO_CHARGES
****
Generated from CSD

@<TRIPOS>ATOM
      1 N1        -3.3665    1.9205    7.6112 N.am      1 RES1    0.0000
      2 C1        -4.3717    1.9121    6.5573 C.3       1 RES1    0.0000
      3 H1        -4.7806    1.0443    6.5120 H         1 RES1    0.0000
      4 H2        -3.9550    2.1135    5.7167 H         1 RES1    0.0000
      5 H3        -5.0421    2.5726    6.7495 H         1 RES1    0.0000
      6 C2        -3.6896    1.3657    8.7962 C.2       1 RES1    0.0000
      7 O1        -4.7445    0.7869    8.9870 O.2       1 RES1    0.0000
      8 N2        -2.7362    1.4546    9.8255 N.am      1 RES1    0.0000
      9 C3        -3.1239    0.9257   11.1341 C.3       1 RES1    0.0000
     10 H4        -3.1618   -0.0328   11.0929 H         1 RES1    0.0000
     11 H5        -3.9864    1.2699   11.3756 H         1 RES1    0.0000
     12 H6        -2.4769    1.1925   11.7914 H         1 RES1    0.0000
     13 C4        -1.4856    2.0094    9.6960 C.2       1 RES1    0.0000
     14 O2        -0.7511    2.1435   10.6530 O.2       1 RES1    0.0000
     15 C5        -1.0536    2.2815    8.2647 C.3       1 RES1    0.0000
     16 C6        -0.5905    0.9246    7.7195 C.3       1 RES1    0.0000
     17 H7         0.1772    0.6258    8.2132 H         1 RES1    0.0000
     18 H8        -0.3583    1.0141    6.7922 H         1 RES1    0.0000
     19 H9        -1.2990    0.2834    7.8111 H         1 RES1    0.0000
     20 C7         0.1296    3.2393    8.1970 C.3       1 RES1    0.0000
     21 H10        0.8106    2.9387    8.8188 H         1 RES1    0.0000
     22 H11        0.5093    3.2037    7.3048 H         1 RES1    0.0000
     23 C8        -0.2255    4.6736    8.5186 C.3       1 RES1    0.0000
     24 H12        0.5533    5.2384    8.3928 H         1 RES1    0.0000
     25 H13       -0.5012    4.7412    9.4457 H         1 RES1    0.0000
     26 C9        -1.3474    5.1462    7.6175 C.3       1 RES1    0.0000
     27 H14       -1.0530    5.1177    6.6942 H         1 RES1    0.0000
     28 H15       -1.5681    6.0662    7.8337 H         1 RES1    0.0000
     29 C10       -2.5875    4.2777    7.7795 C.3       1 RES1    0.0000
     30 H16       -3.2831    4.5838    7.1603 H         1 RES1    0.0000
     31 N3        -3.0558    4.4424    9.1588 N.3       1 RES1    0.0000
     32 O3        -4.4816    4.1760    9.1422 O.3       1 RES1    0.0000
     33 C11       -4.9090    4.1577   10.4840 C.3       1 RES1    0.0000
     34 H17       -4.3712    3.5382   10.9823 H         1 RES1    0.0000
     35 H18       -5.8293    3.8872   10.5225 H         1 RES1    0.0000
     36 H19       -4.8176    5.0364   10.8604 H         1 RES1    0.0000
     37 C12       -2.2342    2.8182    7.4676 C.3       1 RES1    0.0000
     38 H20       -1.9713    2.7891    6.5233 H         1 RES1    0.0000
     39 H21       -3.0322    5.3486    9.3490 H         1 RES1    0.0000
@<TRIPOS>BOND
     1    1    2 1
     2    2    3 1
     3    4    2 1
     4    5    2 1
     5    6    1 1
     6    7    6 2
     7    8    6 1
     8    9    8 1
     9   10    9 1
    10   11    9 1
    11   12    9 1
    12   13    8 1
    13   14   13 2
    14   15   13 1
    15   16   15 1
    16   17   16 1
    17   18   16 1
    18   19   16 1
    19   20   15 1
    20   21   20 1
    21   22   20 1
    22   23   20 1
    23   24   23 1
    24   25   23 1
    25   26   23 1
    26   27   26 1
    27   28   26 1
    28   29   26 1
    29   30   29 1
    30   31   29 1
    31   32   31 1
    32   33   32 1
    33   34   33 1
    34   35   33 1
    35   36   33 1
    36   37    1 1
    37   38   37 1
    38   39   31 1
    39   15   37 1
    40   29   37 1
@<TRIPOS>SUBSTRUCTURE
     1 RES1 1

@<TRIPOS>CRYSIN
   7.7828   13.1190   12.9000  90.0000 103.1030  90.0000 231 1

