# MOL2 file generated by ConQuest
# Please check atom types

@<TRIPOS>MOLECULE
IRARUQ
    52    55     1
SMALL
NO_CHARGES
****
Generated from CSD

@<TRIPOS>ATOM
      1 O1        -1.3933    7.3095    4.6763 O.3       1 RES1    0.0000
      2 O2         1.5706    7.0388    0.8921 O.2       1 RES1    0.0000
      3 N1         1.0383    8.7317    3.8502 N.2       1 RES1    0.0000
      4 N2         0.8398    7.7535    2.9057 N.am      1 RES1    0.0000
      5 N3        -0.4919    6.2713    4.2284 N.3       1 RES1    0.0000
      6 C1        -0.6871    8.1053    5.5965 C.3       1 RES1    0.0000
      7 H1        -0.3151    7.5216    6.3043 H         1 RES1    0.0000
      8 H2        -1.3189    8.7346    6.0258 H         1 RES1    0.0000
      9 C2         0.4367    8.8932    4.9768 C.2       1 RES1    0.0000
     10 C3         0.9048   10.0697    5.7720 C.ar      1 RES1    0.0000
     11 C4         0.3289   10.3847    7.0049 C.ar      1 RES1    0.0000
     12 H3        -0.3407    9.8159    7.3664 H         1 RES1    0.0000
     13 C5         0.7182   11.5144    7.7102 C.ar      1 RES1    0.0000
     14 H4         0.3117   11.7144    8.5458 H         1 RES1    0.0000
     15 C6         1.6924   12.3478    7.2025 C.ar      1 RES1    0.0000
     16 H5         1.9500   13.1302    7.6766 H         1 RES1    0.0000
     17 C7         2.2899   12.0344    5.9980 C.ar      1 RES1    0.0000
     18 H6         2.9707   12.5989    5.6503 H         1 RES1    0.0000
     19 C8         1.9109   10.9098    5.2918 C.ar      1 RES1    0.0000
     20 H7         2.3403   10.7052    4.4688 H         1 RES1    0.0000
     21 C9         1.6447    7.8695    1.7822 C.2       1 RES1    0.0000
     22 C10        2.5703    9.0538    1.6933 C.3       1 RES1    0.0000
     23 H8         3.0941    8.9973    0.8672 H         1 RES1    0.0000
     24 H9         3.1756    9.0543    2.4640 H         1 RES1    0.0000
     25 H10        2.0437    9.8804    1.6906 H         1 RES1    0.0000
     26 C11       -0.1325    6.6280    2.8618 C.3       1 RES1    0.0000
     27 H11        0.3449    5.8424    2.4681 H         1 RES1    0.0000
     28 C12       -1.2991    6.9509    1.9388 C.ar      1 RES1    0.0000
     29 C13       -1.8468    8.2315    1.8729 C.ar      1 RES1    0.0000
     30 H12       -1.4658    8.9353    2.3844 H         1 RES1    0.0000
     31 C14       -2.9448    8.4825    1.0633 C.ar      1 RES1    0.0000
     32 H13       -3.3146    9.3573    1.0233 H         1 RES1    0.0000
     33 C15       -3.5036    7.4625    0.3127 C.ar      1 RES1    0.0000
     34 H14       -4.2661    7.6342   -0.2275 H         1 RES1    0.0000
     35 C16       -2.9530    6.1896    0.3486 C.ar      1 RES1    0.0000
     36 H15       -3.3233    5.4936   -0.1816 H         1 RES1    0.0000
     37 C17       -1.8563    5.9387    1.1645 C.ar      1 RES1    0.0000
     38 H16       -1.4829    5.0653    1.1937 H         1 RES1    0.0000
     39 C18       -1.2854    5.0310    4.3073 C.3       1 RES1    0.0000
     40 H17       -0.7650    4.2764    3.9332 H         1 RES1    0.0000
     41 H18       -2.1141    5.1291    3.7740 H         1 RES1    0.0000
     42 C19       -1.6371    4.7443    5.7498 C.ar      1 RES1    0.0000
     43 C20       -0.6584    4.3857    6.6713 C.ar      1 RES1    0.0000
     44 H19        0.2465    4.3167    6.3910 H         1 RES1    0.0000
     45 C21       -0.9877    4.1274    7.9943 C.ar      1 RES1    0.0000
     46 H20       -0.3095    3.8783    8.6122 H         1 RES1    0.0000
     47 C22       -2.3060    4.2312    8.4175 C.ar      1 RES1    0.0000
     48 H21       -2.5330    4.0568    9.3233 H         1 RES1    0.0000
     49 C23       -3.2874    4.5903    7.5102 C.ar      1 RES1    0.0000
     50 H22       -4.1904    4.6645    7.7939 H         1 RES1    0.0000
     51 C24       -2.9539    4.8424    6.1830 C.ar      1 RES1    0.0000
     52 H23       -3.6347    5.0843    5.5656 H         1 RES1    0.0000
@<TRIPOS>BOND
     1    1    5 1
     2    2   21 2
     3    3    4 1
     4    4   21 1
     5    5   26 1
     6    6    1 1
     7    7    6 1
     8    8    6 1
     9    9    3 2
    10   10    9 1
    11   11   10 ar
    12   12   11 1
    13   13   11 ar
    14   14   13 1
    15   15   13 ar
    16   16   15 1
    17   17   15 ar
    18   18   17 1
    19   19   10 ar
    20   20   19 1
    21   21   22 1
    22   22   23 1
    23   24   22 1
    24   25   22 1
    25   26    4 1
    26   27   26 1
    27   28   26 1
    28   29   28 ar
    29   30   29 1
    30   31   29 ar
    31   32   31 1
    32   33   31 ar
    33   34   33 1
    34   35   33 ar
    35   36   35 1
    36   37   28 ar
    37   38   37 1
    38   39    5 1
    39   40   39 1
    40   41   39 1
    41   42   39 1
    42   43   42 ar
    43   44   43 1
    44   45   43 ar
    45   46   45 1
    46   47   45 ar
    47   48   47 1
    48   49   47 ar
    49   50   49 1
    50   51   42 ar
    51   52   51 1
    52    6    9 1
    53   17   19 ar
    54   35   37 ar
    55   49   51 ar
@<TRIPOS>SUBSTRUCTURE
     1 RES1 1

@<TRIPOS>CRYSIN
   9.7093   10.1931   11.0444 107.9920 100.2410  98.5550   2 1

