# MOL2 file generated by ConQuest
# Please check atom types

@<TRIPOS>MOLECULE
IREJEV
    62    67     1
SMALL
NO_CHARGES
****
Generated from CSD

@<TRIPOS>ATOM
      1 O1         3.7961    1.6918    5.6727 O.3       1 RES1    0.0000
      2 C1         5.2154    1.9196    3.5134 C.3       1 RES1    0.0000
      3 H1         4.2763    1.8870    3.2351 H         1 RES1    0.0000
      4 C2         5.4914    0.6392    4.2812 C.3       1 RES1    0.0000
      5 H2         6.4410    0.6086    4.5232 H         1 RES1    0.0000
      6 C3         4.6407    0.5639    5.5650 C.3       1 RES1    0.0000
      7 H3         4.0693   -0.2300    5.4967 H         1 RES1    0.0000
      8 C4         5.4297    0.4539    6.8669 C.3       1 RES1    0.0000
      9 H4         4.7684    0.3725    7.5845 H         1 RES1    0.0000
     10 C5         6.2585    1.6733    7.1900 C.3       1 RES1    0.0000
     11 H5         7.0354    1.6712    6.5929 H         1 RES1    0.0000
     12 C6         5.4635    2.9699    6.9202 C.3       1 RES1    0.0000
     13 H6         4.8811    3.0961    7.6997 H         1 RES1    0.0000
     14 C7         4.5392    2.9740    5.7025 C.3       1 RES1    0.0000
     15 C8         5.3696    3.1226    4.4038 C.3       1 RES1    0.0000
     16 H7         5.0870    3.9267    3.9218 H         1 RES1    0.0000
     17 O2         6.7509    3.2340    4.7589 O.3       1 RES1    0.0000
     18 C9         7.0595    4.2748    5.6428 C.3       1 RES1    0.0000
     19 O3         6.3323    4.0979    6.8957 O.3       1 RES1    0.0000
     20 C10        6.0411    1.9949    2.2595 C.2       1 RES1    0.0000
     21 O4         5.3615    1.6977    1.1495 O.3       1 RES1    0.0000
     22 C11        6.2562    1.7893    0.1130 C.2       1 RES1    0.0000
     23 H8         6.0392    1.6509   -0.7805 H         1 RES1    0.0000
     24 C12        7.4399    2.0946    0.5363 C.2       1 RES1    0.0000
     25 H9         8.2175    2.1903    0.0352 H         1 RES1    0.0000
     26 C13        7.2854    2.2493    1.9385 C.2       1 RES1    0.0000
     27 H10        7.9572    2.4916    2.5335 H         1 RES1    0.0000
     28 N1         5.1630   -0.5455    3.4580 N.pl3     1 RES1    0.0000
     29 O5         4.0419   -0.5598    2.9312 O.2       1 RES1    0.0000
     30 O6         5.9357   -1.4371    3.3364 O.2       1 RES1    0.0000
     31 N2         6.2237   -0.8122    6.8786 N.pl3     1 RES1    0.0000
     32 O7         7.3765   -0.7491    6.4137 O.2       1 RES1    0.0000
     33 O8         5.7397   -1.8056    7.2742 O.2       1 RES1    0.0000
     34 C14        6.7632    1.6183    8.5847 C.2       1 RES1    0.0000
     35 O9         5.8454    1.8056    9.5774 O.3       1 RES1    0.0000
     36 C15        6.5509    1.6794   10.7461 C.2       1 RES1    0.0000
     37 H11        6.1805    1.7750   11.5938 H         1 RES1    0.0000
     38 C16        7.7846    1.4168   10.5243 C.2       1 RES1    0.0000
     39 H12        8.4484    1.2824   11.1619 H         1 RES1    0.0000
     40 C17        7.9341    1.3679    9.1445 C.2       1 RES1    0.0000
     41 H13        8.7256    1.1868    8.6903 H         1 RES1    0.0000
     42 N3         3.5796    4.0122    5.7974 N.3       1 RES1    0.0000
     43 C18        2.7991    4.1547    7.0386 C.3       1 RES1    0.0000
     44 H14        2.5562    3.2834    7.3915 H         1 RES1    0.0000
     45 H15        3.3096    4.6330    7.7104 H         1 RES1    0.0000
     46 C19        1.5977    4.9160    6.6622 C.3       1 RES1    0.0000
     47 H16        0.8152    4.5414    7.0972 H         1 RES1    0.0000
     48 H17        1.6887    5.8401    6.9373 H         1 RES1    0.0000
     49 C20        1.4549    4.8346    5.2344 C.3       1 RES1    0.0000
     50 H18        1.3528    5.7261    4.8623 H         1 RES1    0.0000
     51 H19        0.6646    4.3195    5.0105 H         1 RES1    0.0000
     52 C21        2.6539    4.1893    4.6640 C.3       1 RES1    0.0000
     53 H20        2.4267    3.3323    4.2705 H         1 RES1    0.0000
     54 H21        3.0530    4.7491    3.9805 H         1 RES1    0.0000
     55 C22        6.6672    5.6406    5.1161 C.3       1 RES1    0.0000
     56 H22        7.0476    5.7709    4.2449 H         1 RES1    0.0000
     57 H23        6.9932    6.3185    5.7121 H         1 RES1    0.0000
     58 H24        5.7101    5.6997    5.0596 H         1 RES1    0.0000
     59 C23        8.5447    4.1608    5.9158 C.3       1 RES1    0.0000
     60 H25        8.7441    3.2814    6.2431 H         1 RES1    0.0000
     61 H26        8.7997    4.8122    6.5726 H         1 RES1    0.0000
     62 H27        9.0315    4.3195    5.1033 H         1 RES1    0.0000
@<TRIPOS>BOND
     1    1    6 1
     2    2    3 1
     3    4    2 1
     4    5    4 1
     5    6    4 1
     6    7    6 1
     7    8    6 1
     8    9    8 1
     9   10    8 1
    10   11   10 1
    11   12   10 1
    12   13   12 1
    13   14    1 1
    14   15    2 1
    15   16   15 1
    16   17   15 1
    17   18   17 1
    18   19   12 1
    19   20    2 1
    20   21   20 1
    21   22   21 1
    22   23   22 1
    23   24   22 2
    24   25   24 1
    25   26   20 2
    26   27   26 1
    27   28    4 1
    28   29   28 2
    29   30   28 2
    30   31    8 1
    31   32   31 2
    32   33   31 2
    33   34   10 1
    34   35   34 1
    35   36   35 1
    36   37   36 1
    37   38   36 2
    38   39   38 1
    39   40   34 2
    40   41   40 1
    41   42   14 1
    42   43   42 1
    43   44   43 1
    44   45   43 1
    45   46   43 1
    46   47   46 1
    47   48   46 1
    48   49   46 1
    49   50   49 1
    50   51   49 1
    51   52   42 1
    52   53   52 1
    53   54   52 1
    54   55   18 1
    55   56   55 1
    56   57   55 1
    57   58   55 1
    58   59   18 1
    59   60   59 1
    60   61   59 1
    61   62   59 1
    62   12   14 1
    63   14   15 1
    64   18   19 1
    65   24   26 1
    66   38   40 1
    67   49   52 1
@<TRIPOS>SUBSTRUCTURE
     1 RES1 1

@<TRIPOS>CRYSIN
  10.8930   20.3560   11.7780  90.0000 115.1330  90.0000 231 1

