# MOL2 file generated by ConQuest
# Please check atom types

@<TRIPOS>MOLECULE
IREJIZ
    49    52     1
SMALL
NO_CHARGES
****
Generated from CSD

@<TRIPOS>ATOM
      1 C1         6.3880    0.4922   12.5822 C.3       1 RES1    0.0000
      2 C2         6.0980    0.6589   11.0870 C.3       1 RES1    0.0000
      3 H1         6.3867   -0.1503   10.6170 H         1 RES1    0.0000
      4 C3         6.7580    1.8676   10.4358 C.3       1 RES1    0.0000
      5 H2         7.6641    1.6407   10.1403 H         1 RES1    0.0000
      6 C4         6.7864    3.1195   11.3179 C.3       1 RES1    0.0000
      7 H3         5.8808    3.4894   11.3738 H         1 RES1    0.0000
      8 C5         7.2958    2.8452   12.7322 C.3       1 RES1    0.0000
      9 H4         8.1875    2.4464   12.6633 H         1 RES1    0.0000
     10 C6         6.3516    1.8029   13.3662 C.3       1 RES1    0.0000
     11 H5         6.6479    1.6283   14.2837 H         1 RES1    0.0000
     12 C7         5.5729   -0.6215   13.2366 C.3       1 RES1    0.0000
     13 H6         5.4437   -0.4509   14.1821 H         1 RES1    0.0000
     14 H7         4.7066   -0.7187   12.8105 H         1 RES1    0.0000
     15 C8         7.7431   -1.3614   13.0989 C.3       1 RES1    0.0000
     16 C9         8.5521   -2.1864   12.1278 C.3       1 RES1    0.0000
     17 H8         8.6014   -3.0928   12.4419 H         1 RES1    0.0000
     18 H9         9.4375   -1.8227   12.0589 H         1 RES1    0.0000
     19 H10        8.1314   -2.1696   11.2657 H         1 RES1    0.0000
     20 C10        8.2803   -1.4049   14.5146 C.3       1 RES1    0.0000
     21 H11        7.7143   -0.8836   15.0886 H         1 RES1    0.0000
     22 H12        9.1702   -1.0452   14.5299 H         1 RES1    0.0000
     23 H13        8.2972   -2.3142   14.8229 H         1 RES1    0.0000
     24 C11        4.6350    1.4477    9.5114 C.3       1 RES1    0.0000
     25 C12        4.5080    0.4040    8.4231 C.3       1 RES1    0.0000
     26 H14        5.2202   -0.2350    8.5069 H         1 RES1    0.0000
     27 H15        4.5595    0.8294    7.5639 H         1 RES1    0.0000
     28 H16        3.6633   -0.0452    8.5069 H         1 RES1    0.0000
     29 C13        3.5119    2.4490    9.5018 C.3       1 RES1    0.0000
     30 H17        2.6785    1.9955    9.6453 H         1 RES1    0.0000
     31 H18        3.4900    2.8973    8.6528 H         1 RES1    0.0000
     32 H19        3.6512    3.0928   10.2002 H         1 RES1    0.0000
     33 C14        7.4082    4.0991   13.5419 C.2       1 RES1    0.0000
     34 C15        8.2136    4.4851   14.5564 C.2       1 RES1    0.0000
     35 H20        8.8870    3.9809   14.9532 H         1 RES1    0.0000
     36 C16        7.8309    5.8197   14.9026 C.2       1 RES1    0.0000
     37 H21        8.2023    6.3494   15.5706 H         1 RES1    0.0000
     38 C17        6.8329    6.1558   14.0747 C.2       1 RES1    0.0000
     39 H22        6.3993    6.9788   14.0740 H         1 RES1    0.0000
     40 N1         7.6793    4.1157   10.6184 N.pl3     1 RES1    0.0000
     41 O1         7.7435    0.0125   12.6509 O.3       1 RES1    0.0000
     42 O2         6.3858   -1.7829   13.0266 O.3       1 RES1    0.0000
     43 O3         4.7147    0.8806   10.8141 O.3       1 RES1    0.0000
     44 O4         5.9192    2.1167    9.3071 O.3       1 RES1    0.0000
     45 O5         7.1717    5.1068   10.1209 O.2       1 RES1    0.0000
     46 O6         8.8737    3.8474   10.5407 O.2       1 RES1    0.0000
     47 O7         6.5409    5.1160   13.2295 O.3       1 RES1    0.0000
     48 O8         5.0110    2.2600   13.4009 O.3       1 RES1    0.0000
     49 H23        4.9142    2.7018   14.1143 H         1 RES1    0.0000
@<TRIPOS>BOND
     1    1    2 1
     2    2    3 1
     3    4    2 1
     4    5    4 1
     5    6    4 1
     6    7    6 1
     7    8    6 1
     8    9    8 1
     9   10    1 1
    10   11   10 1
    11   12    1 1
    12   13   12 1
    13   14   12 1
    14   15   16 1
    15   16   17 1
    16   18   16 1
    17   19   16 1
    18   20   15 1
    19   21   20 1
    20   22   20 1
    21   23   20 1
    22   24   25 1
    23   25   26 1
    24   27   25 1
    25   28   25 1
    26   29   24 1
    27   30   29 1
    28   31   29 1
    29   32   29 1
    30   33    8 1
    31   34   33 2
    32   35   34 1
    33   36   34 1
    34   37   36 1
    35   38   36 2
    36   39   38 1
    37   40    6 1
    38   41    1 1
    39   42   12 1
    40   43    2 1
    41   44    4 1
    42   45   40 2
    43   46   40 2
    44   47   33 1
    45   48   10 1
    46   49   48 1
    47    8   10 1
    48   15   41 1
    49   15   42 1
    50   24   43 1
    51   24   44 1
    52   38   47 1
@<TRIPOS>SUBSTRUCTURE
     1 RES1 1

@<TRIPOS>CRYSIN
  12.1821   11.2998   13.2478  90.0000 100.5130  90.0000  14 1

