# MOL2 file generated by ConQuest
# Please check atom types

@<TRIPOS>MOLECULE
IRENEY
    62    63     1
SMALL
NO_CHARGES
****
Generated from CSD

@<TRIPOS>ATOM
      1 O1         1.3297   10.9517   19.7271 O.3       1 RES1    0.0000
      2 O2         1.3067   10.5384   17.5126 O.2       1 RES1    0.0000
      3 O3        -2.1066   16.1219   19.5292 O.3       1 RES1    0.0000
      4 O4        -3.1131   15.1290   21.3085 O.2       1 RES1    0.0000
      5 O5        -0.9728   13.9564   16.6260 O.3       1 RES1    0.0000
      6 N1        -1.4090   14.1114   20.1849 N.am      1 RES1    0.0000
      7 O6        -2.6127   13.1396   17.8816 O.2       1 RES1    0.0000
      8 O7         7.1329    6.9423   18.4781 O.2       1 RES1    0.0000
      9 C1         0.5516   13.1545   19.0346 C.3       1 RES1    0.0000
     10 H1         0.9460   13.0394   18.1552 H         1 RES1    0.0000
     11 H2         1.2168   13.5609   19.6109 H         1 RES1    0.0000
     12 C2         3.0220    9.5743   18.8664 C.ar      1 RES1    0.0000
     13 N2         6.4815    7.2512   19.4505 N.pl3     1 RES1    0.0000
     14 C3         3.3671    9.1571   20.1308 C.ar      1 RES1    0.0000
     15 H3         2.8348    9.3955   20.8557 H         1 RES1    0.0000
     16 C4         5.2578    8.0721   19.2550 C.ar      1 RES1    0.0000
     17 C5         3.8170    9.2208   17.7823 C.ar      1 RES1    0.0000
     18 H4         3.5811    9.4957   16.9252 H         1 RES1    0.0000
     19 C6         1.7996   10.3993   18.6059 C.2       1 RES1    0.0000
     20 O8         6.7810    6.9464   20.5791 O.2       1 RES1    0.0000
     21 C7        -2.2938   15.1268   20.4139 C.2       1 RES1    0.0000
     22 C8        -0.6696   14.0743   18.9324 C.3       1 RES1    0.0000
     23 H5        -0.3451   14.9805   18.7523 H         1 RES1    0.0000
     24 C9        -1.5588   13.6639   17.7695 C.2       1 RES1    0.0000
     25 C10       -1.6698   12.8524   20.8828 C.3       1 RES1    0.0000
     26 H6        -2.3681   12.3661   20.4160 H         1 RES1    0.0000
     27 H7        -1.9874   13.0434   21.7797 H         1 RES1    0.0000
     28 C11        0.1572   11.8135   19.5889 C.3       1 RES1    0.0000
     29 H8        -0.4992   11.3881   18.9989 H         1 RES1    0.0000
     30 C12       -0.4324   11.9882   20.9662 C.3       1 RES1    0.0000
     31 H9         0.2196   12.4068   21.5509 H         1 RES1    0.0000
     32 H10       -0.6614   11.1226   21.3370 H         1 RES1    0.0000
     33 C13        4.9446    8.4690   17.9698 C.ar      1 RES1    0.0000
     34 H11        5.4856    8.2319   17.2520 H         1 RES1    0.0000
     35 C14        4.4928    8.3890   20.3352 C.ar      1 RES1    0.0000
     36 H12        4.7237    8.0964   21.1885 H         1 RES1    0.0000
     37 C15       -2.9028   17.3457   19.5601 C.3       1 RES1    0.0000
     38 C16       -2.3475   18.1205   18.3937 C.3       1 RES1    0.0000
     39 H13       -2.5016   17.6315   17.5818 H         1 RES1    0.0000
     40 H14       -1.4040   18.2492   18.5146 H         1 RES1    0.0000
     41 H15       -2.7824   18.9752   18.3394 H         1 RES1    0.0000
     42 C17       -2.6688   18.0975   20.8331 C.3       1 RES1    0.0000
     43 H16       -3.0245   17.5963   21.5717 H         1 RES1    0.0000
     44 H17       -3.1050   18.9509   20.7874 H         1 RES1    0.0000
     45 H18       -1.7260   18.2261   20.9597 H         1 RES1    0.0000
     46 C18       -4.3674   17.0178   19.3376 C.3       1 RES1    0.0000
     47 H19       -4.4672   16.5397   18.5117 H         1 RES1    0.0000
     48 H20       -4.8759   17.8320   19.3019 H         1 RES1    0.0000
     49 H21       -4.6869   16.4746   20.0625 H         1 RES1    0.0000
     50 C19       -1.5675   13.5880   15.3102 C.3       1 RES1    0.0000
     51 C20       -1.7640   12.1128   15.2407 C.3       1 RES1    0.0000
     52 H22       -0.9185   11.6726   15.3536 H         1 RES1    0.0000
     53 H23       -2.1360   11.8798   14.3881 H         1 RES1    0.0000
     54 H24       -2.3637   11.8378   15.9389 H         1 RES1    0.0000
     55 C21       -2.8629   14.3723   15.1501 C.3       1 RES1    0.0000
     56 H25       -2.6788   15.3110   15.2169 H         1 RES1    0.0000
     57 H26       -3.4788   14.1163   15.8408 H         1 RES1    0.0000
     58 H27       -3.2485   14.1813   14.2930 H         1 RES1    0.0000
     59 C22       -0.5092   14.0675   14.3551 C.3       1 RES1    0.0000
     60 H28       -0.4150   15.0198   14.4326 H         1 RES1    0.0000
     61 H29       -0.7638   13.8440   13.4582 H         1 RES1    0.0000
     62 H30        0.3264   13.6449   14.5663 H         1 RES1    0.0000
@<TRIPOS>BOND
     1    1   19 1
     2    2   19 2
     3    3   21 1
     4    4   21 2
     5    5   24 1
     6    6   21 1
     7    7   24 2
     8    8   13 2
     9    9   10 1
    10   11    9 1
    11   12   14 ar
    12   13   16 1
    13   14   15 1
    14   16   33 ar
    15   17   12 ar
    16   18   17 1
    17   19   12 1
    18   20   13 2
    19   22    6 1
    20   23   22 1
    21   24   22 1
    22   25    6 1
    23   26   25 1
    24   27   25 1
    25   28    1 1
    26   29   28 1
    27   30   25 1
    28   31   30 1
    29   32   30 1
    30   33   17 ar
    31   34   33 1
    32   35   14 ar
    33   36   35 1
    34   37    3 1
    35   38   37 1
    36   39   38 1
    37   40   38 1
    38   41   38 1
    39   42   37 1
    40   43   42 1
    41   44   42 1
    42   45   42 1
    43   46   37 1
    44   47   46 1
    45   48   46 1
    46   49   46 1
    47   50    5 1
    48   51   50 1
    49   52   51 1
    50   53   51 1
    51   54   51 1
    52   55   50 1
    53   56   55 1
    54   57   55 1
    55   58   55 1
    56   59   50 1
    57   60   59 1
    58   61   59 1
    59   62   59 1
    60    9   28 1
    61    9   22 1
    62   16   35 ar
    63   28   30 1
@<TRIPOS>SUBSTRUCTURE
     1 RES1 1

@<TRIPOS>CRYSIN
   6.2400   13.5460   29.7090  90.0000  90.0000  90.0000  19 1

