# MOL2 file generated by ConQuest
# Please check atom types

@<TRIPOS>MOLECULE
IREPOM
    21    20     1
SMALL
USER_CHARGES
****
Generated from CSD

@<TRIPOS>ATOM
      1 C1         1.2572    2.2653    4.5131 C.2       1 RES1    0.0000
      2 C2        -0.1507    2.6936    4.9382 C.2       1 RES1    0.0000
      3 C3        -1.5264    3.1157    6.7839 C.3       1 RES1    0.0000
      4 C4        -1.9246    2.1257    7.8527 C.3       1 RES1    0.0000
      5 N1         1.4117    2.5215    3.1616 N.2       1 RES1    0.0000
      6 N2         2.5363    2.1056    2.7316 N.1       1 RES1    1.0000
      7 N3         3.4729    1.7715    2.2431 N.2       1 RES1   -1.0000
      8 N4        -2.4025    0.7898    7.2979 N.pl3     1 RES1    0.0000
      9 N5        -0.7798    1.8503    8.8169 N.pl3     1 RES1    0.0000
     10 N6        -3.0826    2.6816    8.6668 N.pl3     1 RES1    0.0000
     11 O1         2.0537    1.7896    5.2624 O.2       1 RES1    0.0000
     12 O2        -1.0205    2.9637    4.1755 O.2       1 RES1    0.0000
     13 O3        -0.2447    2.7245    6.2769 O.3       1 RES1    0.0000
     14 O4        -1.8244    0.3859    6.3168 O.2       1 RES1    0.0000
     15 O5        -3.3187    0.2639    7.8828 O.2       1 RES1    0.0000
     16 O6        -0.4344    0.7067    8.9620 O.2       1 RES1    0.0000
     17 O7        -0.3150    2.8364    9.3485 O.2       1 RES1    0.0000
     18 O8        -3.0691    2.4901    9.8648 O.2       1 RES1    0.0000
     19 O9        -3.9169    3.2710    8.0129 O.2       1 RES1    0.0000
     20 H1        -1.4447    3.9748    7.1866 H         1 RES1    0.0000
     21 H2        -2.2029    3.1320    6.1290 H         1 RES1    0.0000
@<TRIPOS>BOND
     1    1    2 1
     2    2   12 2
     3    3    4 1
     4    4    8 1
     5    5    1 1
     6    6    5 2
     7    7    6 2
     8    8   14 2
     9    9    4 1
    10   10    4 1
    11   11    1 2
    12   13    2 1
    13   15    8 2
    14   16    9 2
    15   17    9 2
    16   18   10 2
    17   19   10 2
    18   20    3 1
    19   21    3 1
    20    3   13 1
@<TRIPOS>SUBSTRUCTURE
     1 RES1 1

@<TRIPOS>CRYSIN
   6.3221   16.7221   10.0367  90.0000 103.1470  90.0000  14 1

