# MOL2 file generated by ConQuest
# Please check atom types

@<TRIPOS>MOLECULE
IRIJEZ
    45    49     1
SMALL
NO_CHARGES
****
Generated from CSD

@<TRIPOS>ATOM
      1 O1         7.6267   10.3182    0.6217 O.3       1 RES1    0.0000
      2 O2         9.1293   12.5006    1.2177 O.2       1 RES1    0.0000
      3 O3         9.9618   11.3418    3.0400 O.3       1 RES1    0.0000
      4 O4        10.6224    9.4432    3.3166 O.3       1 RES1    0.0000
      5 O5         8.8267    6.6977   -0.1169 O.3       1 RES1    0.0000
      6 N1         8.8105    9.5559    0.5300 N.3       1 RES1    0.0000
      7 C1         7.8358   10.8092    2.0875 C.3       1 RES1    0.0000
      8 H1         7.0596   11.3245    2.3940 H         1 RES1    0.0000
      9 C2         9.0195   11.6561    2.0276 C.2       1 RES1    0.0000
     10 C3         9.6591   10.2581    3.7529 C.3       1 RES1    0.0000
     11 H2         9.6553   10.3987    4.7225 H         1 RES1    0.0000
     12 C4        10.0324    8.4878    2.5181 C.3       1 RES1    0.0000
     13 H3         9.9475    7.6656    3.0257 H         1 RES1    0.0000
     14 H4        10.6148    8.3103    1.7638 H         1 RES1    0.0000
     15 C5         8.6558    8.8860    1.9948 C.3       1 RES1    0.0000
     16 C6         7.6439    7.9355    1.5941 C.3       1 RES1    0.0000
     17 H5         6.7570    8.2967    1.7453 H         1 RES1    0.0000
     18 H6         7.7336    7.1096    2.0946 H         1 RES1    0.0000
     19 C7         7.9102    7.6594   -0.0898 C.3       1 RES1    0.0000
     20 H7         7.0883    7.3931   -0.5504 H         1 RES1    0.0000
     21 C8         8.5584    8.7509   -0.7457 C.3       1 RES1    0.0000
     22 H8         7.9761    9.2115   -1.3688 H         1 RES1    0.0000
     23 H9         9.3794    8.4866   -1.1892 H         1 RES1    0.0000
     24 C9         8.2864    9.8414    3.1583 C.3       1 RES1    0.0000
     25 C10        7.3059    9.5715    4.4644 C.3       1 RES1    0.0000
     26 H10        7.1131   10.4332    4.8651 H         1 RES1    0.0000
     27 H11        6.4658    9.2213    4.1293 H         1 RES1    0.0000
     28 C11        7.7709    8.6506    5.5737 C.3       1 RES1    0.0000
     29 H12        8.6873    8.8848    5.7862 H         1 RES1    0.0000
     30 H13        7.7814    7.7469    5.2215 H         1 RES1    0.0000
     31 C12        6.8983    8.6259    7.0196 C.3       1 RES1    0.0000
     32 H14        7.3145    8.0169    7.6341 H         1 RES1    0.0000
     33 H15        5.9990    8.3411    6.8456 H         1 RES1    0.0000
     34 H16        6.8868    9.5074    7.4017 H         1 RES1    0.0000
     35 C13        9.2439    6.2984   -1.5214 C.ar      1 RES1    0.0000
     36 C14        8.7809    6.6916   -2.9430 C.ar      1 RES1    0.0000
     37 H17        8.0649    7.2834   -2.9801 H         1 RES1    0.0000
     38 C15        9.3336    6.2429   -4.3033 C.ar      1 RES1    0.0000
     39 H18        8.9871    6.5474   -5.1103 H         1 RES1    0.0000
     40 C16       10.3102    5.4169   -4.2377 C.ar      1 RES1    0.0000
     41 H19       10.7293    5.0804   -4.9962 H         1 RES1    0.0000
     42 C17       10.7379    5.0224   -2.8189 C.ar      1 RES1    0.0000
     43 H20       11.4300    4.4036   -2.7847 H         1 RES1    0.0000
     44 C18       10.2377    5.4588   -1.4929 C.ar      1 RES1    0.0000
     45 H21       10.6090    5.1543   -0.6973 H         1 RES1    0.0000
@<TRIPOS>BOND
     1    1    6 1
     2    2    9 2
     3    3    9 1
     4    4   10 1
     5    5   19 1
     6    6   15 1
     7    7    1 1
     8    8    7 1
     9    9    7 1
    10   10    3 1
    11   11   10 1
    12   12    4 1
    13   13   12 1
    14   14   12 1
    15   15   12 1
    16   16   15 1
    17   17   16 1
    18   18   16 1
    19   19   16 1
    20   20   19 1
    21   21    6 1
    22   22   21 1
    23   23   21 1
    24   24    7 1
    25   25   24 1
    26   26   25 1
    27   27   25 1
    28   28   25 1
    29   29   28 1
    30   30   28 1
    31   31   28 1
    32   32   31 1
    33   33   31 1
    34   34   31 1
    35   35    5 1
    36   36   35 ar
    37   37   36 1
    38   38   36 ar
    39   39   38 1
    40   40   38 ar
    41   41   40 1
    42   42   40 ar
    43   43   42 1
    44   44   35 ar
    45   45   44 1
    46   10   24 1
    47   15   24 1
    48   19   21 1
    49   42   44 ar
@<TRIPOS>SUBSTRUCTURE
     1 RES1 1

@<TRIPOS>CRYSIN
   9.5465   12.3280   14.2587  90.0000  90.0000  90.0000  19 1

