# MOL2 file generated by ConQuest
# Please check atom types

@<TRIPOS>MOLECULE
IRIPUV
    29    32     1
SMALL
NO_CHARGES
****
Generated from CSD

@<TRIPOS>ATOM
      1 C1         1.5323   -1.7095    4.8859 C.3       1 RES1    0.0000
      2 C2         2.5421   -0.5751    5.1299 C.3       1 RES1    0.0000
      3 O1         3.8227   -0.8655    4.5256 O.3       1 RES1    0.0000
      4 N1         4.0819    0.0544    3.4783 N.2       1 RES1    0.0000
      5 C3         3.0969    0.8630    3.3708 C.2       1 RES1    0.0000
      6 C4         1.9762    0.5963    4.3228 C.3       1 RES1    0.0000
      7 C5         0.7170   -0.0379    3.6872 C.3       1 RES1    0.0000
      8 N2        -0.2235   -0.2677    4.7889 N.am      1 RES1    0.0000
      9 C6         0.2858   -1.2245    5.5866 C.2       1 RES1    0.0000
     10 C7         1.1645   -1.4657    3.4308 C.3       1 RES1    0.0000
     11 O2        -0.1413   -1.5536    6.6941 O.2       1 RES1    0.0000
     12 C8         3.1214    1.9314    2.3578 C.ar      1 RES1    0.0000
     13 C9         2.3496    3.0668    2.5238 C.ar      1 RES1    0.0000
     14 C10        2.3942    4.0882    1.5895 C.ar      1 RES1    0.0000
     15 C11        3.1881    3.9727    0.4854 C.ar      1 RES1    0.0000
     16 C12        3.9561    2.8455    0.3057 C.ar      1 RES1    0.0000
     17 C13        3.9244    1.8305    1.2285 C.ar      1 RES1    0.0000
     18 H1         1.8209   -2.5683    5.1411 H         1 RES1    0.0000
     19 H2         2.7062   -0.4059    6.0851 H         1 RES1    0.0000
     20 H3         1.7406    1.3998    4.8427 H         1 RES1    0.0000
     21 H4         0.2931    0.4617    2.9651 H         1 RES1    0.0000
     22 H5        -0.8093    0.3995    5.1194 H         1 RES1    0.0000
     23 H6         1.9713   -1.5269    2.8178 H         1 RES1    0.0000
     24 H7         0.4228   -2.0371    3.0803 H         1 RES1    0.0000
     25 H8         1.7968    3.1680    3.3186 H         1 RES1    0.0000
     26 H9         1.8297    4.8741    1.7406 H         1 RES1    0.0000
     27 H10        3.2201    4.6995   -0.1716 H         1 RES1    0.0000
     28 H11        4.5190    2.7347   -0.4380 H         1 RES1    0.0000
     29 H12        4.4334    1.0304    1.1028 H         1 RES1    0.0000
@<TRIPOS>BOND
     1    1    2 1
     2    2    3 1
     3    3    4 1
     4    4    5 2
     5    5    6 1
     6    6    2 1
     7    7    6 1
     8    8    7 1
     9    9    1 1
    10   10    1 1
    11   11    9 2
    12   12    5 1
    13   13   12 ar
    14   14   13 ar
    15   15   14 ar
    16   16   15 ar
    17   17   12 ar
    18   18    1 1
    19   19    2 1
    20   20    6 1
    21   21    7 1
    22   22    8 1
    23   23   10 1
    24   24   10 1
    25   25   13 1
    26   26   14 1
    27   27   15 1
    28   28   16 1
    29   29   17 1
    30    7   10 1
    31    8    9 1
    32   16   17 ar
@<TRIPOS>SUBSTRUCTURE
     1 RES1 1

@<TRIPOS>CRYSIN
   9.8130    9.1430   12.9880  90.0000  99.5500  90.0000  14 2

