# MOL2 file generated by ConQuest
# Please check atom types

@<TRIPOS>MOLECULE
IRIQAC
    29    32     1
SMALL
NO_CHARGES
****
Generated from CSD

@<TRIPOS>ATOM
      1 C1         3.9463    1.8545    0.7059 C.3       1 RES1    0.0000
      2 C2         2.8431    2.2200    1.6938 C.3       1 RES1    0.0000
      3 O1         2.1415    1.0339    2.1417 O.3       1 RES1    0.0000
      4 N1         2.3684    0.8587    3.5266 N.2       1 RES1    0.0000
      5 C3         3.1352    1.7803    3.9673 C.2       1 RES1    0.0000
      6 C4         3.6117    2.7344    2.9125 C.3       1 RES1    0.0000
      7 C5         5.0971    2.5327    2.4787 C.3       1 RES1    0.0000
      8 C6         5.2713    3.5846    1.3942 C.2       1 RES1    0.0000
      9 N2         4.6053    3.1101    0.3216 N.am      1 RES1    0.0000
     10 C7         4.9982    1.2623    1.6347 C.3       1 RES1    0.0000
     11 O2         5.8374    4.6765    1.4708 O.2       1 RES1    0.0000
     12 C8         3.4350    1.8681    5.4019 C.ar      1 RES1    0.0000
     13 C9         2.8878    0.9559    6.3076 C.ar      1 RES1    0.0000
     14 C10        3.1470    1.0607    7.6435 C.ar      1 RES1    0.0000
     15 C11        3.9489    2.0644    8.1249 C.ar      1 RES1    0.0000
     16 C12        4.4850    2.9859    7.2485 C.ar      1 RES1    0.0000
     17 C13        4.2395    2.8751    5.8911 C.ar      1 RES1    0.0000
     18 H1         3.6924    1.4053   -0.0830 H         1 RES1    0.0000
     19 H2         2.2188    2.8772    1.3102 H         1 RES1    0.0000
     20 H3         3.4542    3.6773    3.1548 H         1 RES1    0.0000
     21 H4         5.7400    2.5560    3.1865 H         1 RES1    0.0000
     22 H5         4.2989    3.6254   -0.3538 H         1 RES1    0.0000
     23 H6         5.8572    1.0655    1.1102 H         1 RES1    0.0000
     24 H7         4.6087    0.4779    2.1422 H         1 RES1    0.0000
     25 H8         2.2857    0.3486    5.9778 H         1 RES1    0.0000
     26 H9         2.7881    0.3937    8.2054 H         1 RES1    0.0000
     27 H10        4.0682    2.1643    9.0959 H         1 RES1    0.0000
     28 H11        5.0860    3.6587    7.5515 H         1 RES1    0.0000
     29 H12        4.5957    3.4501    5.3409 H         1 RES1    0.0000
@<TRIPOS>BOND
     1    1    2 1
     2    2    3 1
     3    3    4 1
     4    4    5 2
     5    5    6 1
     6    6    2 1
     7    7    6 1
     8    8    7 1
     9    9    1 1
    10   10    1 1
    11   11    8 2
    12   12    5 1
    13   13   12 ar
    14   14   13 ar
    15   15   14 ar
    16   16   15 ar
    17   17   12 ar
    18   18    1 1
    19   19    2 1
    20   20    6 1
    21   21    7 1
    22   22    9 1
    23   23   10 1
    24   24   10 1
    25   25   13 1
    26   26   14 1
    27   27   15 1
    28   28   16 1
    29   29   17 1
    30    7   10 1
    31    8    9 1
    32   16   17 ar
@<TRIPOS>SUBSTRUCTURE
     1 RES1 1

@<TRIPOS>CRYSIN
   9.3030    9.7930   24.3990  90.0000  90.0000  90.0000  61 1

