# MOL2 file generated by ConQuest
# Please check atom types

@<TRIPOS>MOLECULE
IROHEE
    35    37     1
SMALL
USER_CHARGES
****
Generated from CSD

@<TRIPOS>ATOM
      1 O1         4.8113    5.0607    1.1149 O.2       1 RES1   -1.0000
      2 N1         6.4568    2.3516    2.6076 N.3       1 RES1    0.0000
      3 N2         5.0597    4.2190    2.0823 N.pl3     1 RES1    1.0000
      4 C1         6.0907    2.3999    3.9382 C.ar      1 RES1    0.0000
      5 C2         6.5731    1.5052    4.9034 C.ar      1 RES1    0.0000
      6 H1         7.1684    0.8089    4.6515 H         1 RES1    0.0000
      7 C3         6.1806    1.6381    6.2276 C.ar      1 RES1    0.0000
      8 H2         6.5129    1.0296    6.8776 H         1 RES1    0.0000
      9 C4         5.3112    2.6449    6.6170 C.ar      1 RES1    0.0000
     10 H3         5.0354    2.7134    7.5237 H         1 RES1    0.0000
     11 C5         4.8464    3.5482    5.6782 C.ar      1 RES1    0.0000
     12 H4         4.2605    4.2446    5.9494 H         1 RES1    0.0000
     13 C6         5.2281    3.4523    4.3324 C.ar      1 RES1    0.0000
     14 C7         4.8515    4.4618    3.3575 C.2       1 RES1    0.0000
     15 C8         5.5230    2.8653    1.6387 C.3       1 RES1    0.0000
     16 H5         6.0110    2.9775    0.7738 H         1 RES1    0.0000
     17 C9         4.2967    1.9873    1.3733 C.ar      1 RES1    0.0000
     18 C10        3.3326    2.4145    0.4536 C.ar      1 RES1    0.0000
     19 H6         3.4476    3.2397   -0.0019 H         1 RES1    0.0000
     20 C11        2.2071    1.6374    0.2027 C.ar      1 RES1    0.0000
     21 H7         1.5468    1.9421   -0.4088 H         1 RES1    0.0000
     22 C12        2.0469    0.4231    0.8421 C.ar      1 RES1    0.0000
     23 H8         1.2764   -0.1060    0.6728 H         1 RES1    0.0000
     24 C13        3.0092   -0.0220    1.7277 C.ar      1 RES1    0.0000
     25 H9         2.9064   -0.8657    2.1537 H         1 RES1    0.0000
     26 C14        4.1284    0.7605    1.9997 C.ar      1 RES1    0.0000
     27 H10        4.7810    0.4526    2.6178 H         1 RES1    0.0000
     28 C15        7.4799    1.4383    2.1299 C.3       1 RES1    0.0000
     29 H11        8.0448    1.1594    2.8808 H         1 RES1    0.0000
     30 H12        8.0307    1.8882    1.4561 H         1 RES1    0.0000
     31 H13        7.0539    0.6503    1.7315 H         1 RES1    0.0000
     32 C16        4.2769    5.7863    3.7423 C.3       1 RES1    0.0000
     33 H14        4.0923    6.3092    2.9342 H         1 RES1    0.0000
     34 H15        4.9188    6.2699    4.3036 H         1 RES1    0.0000
     35 H16        3.4444    5.6492    4.2407 H         1 RES1    0.0000
@<TRIPOS>BOND
     1    1    3 1
     2    2    4 1
     3    3   14 2
     4    4    5 ar
     5    5    6 1
     6    7    5 ar
     7    8    7 1
     8    9    7 ar
     9   10    9 1
    10   11    9 ar
    11   12   11 1
    12   13    4 ar
    13   14   13 1
    14   15    2 1
    15   16   15 1
    16   17   15 1
    17   18   17 ar
    18   19   18 1
    19   20   18 ar
    20   21   20 1
    21   22   20 ar
    22   23   22 1
    23   24   22 ar
    24   25   24 1
    25   26   17 ar
    26   27   26 1
    27   28    2 1
    28   29   28 1
    29   30   28 1
    30   31   28 1
    31   32   14 1
    32   33   32 1
    33   34   32 1
    34   35   32 1
    35    3   15 1
    36   11   13 ar
    37   24   26 ar
@<TRIPOS>SUBSTRUCTURE
     1 RES1 1

@<TRIPOS>CRYSIN
   8.5162    8.7051    9.9918  88.8280  73.8140  64.1260   2 1

