# MOL2 file generated by ConQuest
# Please check atom types

@<TRIPOS>MOLECULE
IROHUU
    49    53     1
SMALL
NO_CHARGES
****
Generated from CSD

@<TRIPOS>ATOM
      1 N1         2.2566    9.5546    2.2957 N.pl3     1 RES1    0.0000
      2 N2         7.0552    5.8949    5.5913 N.1       1 RES1    0.0000
      3 N3        10.3841    8.5426   11.2835 N.pl3     1 RES1    0.0000
      4 C1         3.3970    7.5738    2.3228 C.ar      1 RES1    0.0000
      5 C2         3.6842    6.2919    1.8590 C.ar      1 RES1    0.0000
      6 H1         4.3611    5.7929    2.2567 H         1 RES1    0.0000
      7 C3         2.9653    5.7677    0.8141 C.ar      1 RES1    0.0000
      8 H2         3.1347    4.8982    0.5275 H         1 RES1    0.0000
      9 C4         1.9960    6.5184    0.1866 C.ar      1 RES1    0.0000
     10 H3         1.5562    6.1619   -0.5504 H         1 RES1    0.0000
     11 C5         1.6578    7.7849    0.6182 C.ar      1 RES1    0.0000
     12 H4         0.9870    8.2756    0.2018 H         1 RES1    0.0000
     13 C6         2.3652    8.2965    1.7046 C.ar      1 RES1    0.0000
     14 C7         3.2362    9.6623    3.2735 C.ar      1 RES1    0.0000
     15 C8         3.5506   10.7065    4.1038 C.ar      1 RES1    0.0000
     16 H5         3.0896   11.5131    4.0478 H         1 RES1    0.0000
     17 C9         4.5582   10.5360    5.0214 C.ar      1 RES1    0.0000
     18 H6         4.7654   11.2363    5.5972 H         1 RES1    0.0000
     19 C10        5.2953    9.3296    5.1206 C.ar      1 RES1    0.0000
     20 C11        4.9714    8.2868    4.2361 C.ar      1 RES1    0.0000
     21 H7         5.4470    7.4886    4.2666 H         1 RES1    0.0000
     22 C12        3.9546    8.4447    3.3278 C.ar      1 RES1    0.0000
     23 C13        1.2437   10.5136    1.9845 C.ar      1 RES1    0.0000
     24 C14       -0.0801   10.1502    2.1498 C.ar      1 RES1    0.0000
     25 H8        -0.2931    9.3058    2.4746 H         1 RES1    0.0000
     26 C15       -1.0934   11.0476    1.8327 C.ar      1 RES1    0.0000
     27 H9        -1.9857   10.8016    1.9234 H         1 RES1    0.0000
     28 C16       -0.7615   12.2945    1.3840 C.ar      1 RES1    0.0000
     29 H10       -1.4346   12.8970    1.1602 H         1 RES1    0.0000
     30 C17        0.5525   12.6706    1.2602 C.ar      1 RES1    0.0000
     31 H11        0.7633   13.5331    0.9812 H         1 RES1    0.0000
     32 C18        1.5718   11.7675    1.5520 C.ar      1 RES1    0.0000
     33 H12        2.4641   12.0136    1.4536 H         1 RES1    0.0000
     34 C19        6.2848    9.2737    6.1807 C.2       1 RES1    0.0000
     35 H13        6.4046   10.0803    6.6302 H         1 RES1    0.0000
     36 C20        7.0732    8.2588    6.6395 C.2       1 RES1    0.0000
     37 C21        7.0397    6.9546    6.0221 C.1       1 RES1    0.0000
     38 C22        7.9488    8.3594    7.8166 C.ar      1 RES1    0.0000
     39 C23        8.1932    9.5630    8.4688 C.ar      1 RES1    0.0000
     40 H14        7.8199   10.3445    8.1287 H         1 RES1    0.0000
     41 C24        8.9675    9.6329    9.6001 C.ar      1 RES1    0.0000
     42 H15        9.1003   10.4465   10.0309 H         1 RES1    0.0000
     43 C25        9.5486    8.4839   10.0894 C.ar      1 RES1    0.0000
     44 C26        9.3485    7.2928    9.4839 C.ar      1 RES1    0.0000
     45 H16        9.7507    6.5240    9.8180 H         1 RES1    0.0000
     46 C27        8.5422    7.2243    8.3636 C.ar      1 RES1    0.0000
     47 H17        8.3897    6.3982    7.9650 H         1 RES1    0.0000
     48 O1        10.3791    9.5602   11.9399 O.2       1 RES1    0.0000
     49 O2        11.0090    7.5794   11.6312 O.2       1 RES1    0.0000
@<TRIPOS>BOND
     1    1   13 1
     2    2   37 3
     3    3   43 1
     4    4    5 ar
     5    5    6 1
     6    7    5 ar
     7    8    7 1
     8    9    7 ar
     9   10    9 1
    10   11    9 ar
    11   12   11 1
    12   13    4 ar
    13   14    1 1
    14   15   14 ar
    15   16   15 1
    16   17   15 ar
    17   18   17 1
    18   19   17 ar
    19   20   19 ar
    20   21   20 1
    21   22    4 1
    22   23    1 1
    23   24   23 ar
    24   25   24 1
    25   26   24 ar
    26   27   26 1
    27   28   26 ar
    28   29   28 1
    29   30   28 ar
    30   31   30 1
    31   32   23 ar
    32   33   32 1
    33   34   19 1
    34   35   34 1
    35   36   34 2
    36   37   36 1
    37   38   36 1
    38   39   38 ar
    39   40   39 1
    40   41   39 ar
    41   42   41 1
    42   43   41 ar
    43   44   43 ar
    44   45   44 1
    45   46   38 ar
    46   47   46 1
    47   48    3 2
    48   49    3 2
    49   11   13 ar
    50   14   22 ar
    51   20   22 ar
    52   30   32 ar
    53   44   46 ar
@<TRIPOS>SUBSTRUCTURE
     1 RES1 1

@<TRIPOS>CRYSIN
  17.2450   13.9790    8.7140  90.0000 103.2900  90.0000  14 1

