# MOL2 file generated by ConQuest
# Please check atom types

@<TRIPOS>MOLECULE
IROYIZ
    48    52     1
SMALL
NO_CHARGES
****
Generated from CSD

@<TRIPOS>ATOM
      1 C1         0.9843    8.8663    1.8861 C.3       1 RES1    0.0000
      2 H1         0.2855    9.2025    1.2540 H         1 RES1    0.0000
      3 C2         0.6443    7.4197    2.2877 C.3       1 RES1    0.0000
      4 H2         0.9250    6.8289    1.5303 H         1 RES1    0.0000
      5 C3        -0.8529    7.2278    2.4765 C.ar      1 RES1    0.0000
      6 C4        -1.5246    6.4027    1.5915 C.ar      1 RES1    0.0000
      7 H3        -1.0390    5.9397    0.9186 H         1 RES1    0.0000
      8 C5        -2.9073    6.2440    1.6776 C.ar      1 RES1    0.0000
      9 H4        -3.3616    5.6671    1.0748 H         1 RES1    0.0000
     10 C6        -3.6106    6.9345    2.6459 C.ar      1 RES1    0.0000
     11 H5        -4.5566    6.8516    2.6928 H         1 RES1    0.0000
     12 C7        -2.9465    7.7397    3.5418 C.ar      1 RES1    0.0000
     13 H6        -3.4346    8.1963    4.2174 H         1 RES1    0.0000
     14 C8        -1.5654    7.8893    3.4652 C.ar      1 RES1    0.0000
     15 H7        -1.1111    8.4439    4.0897 H         1 RES1    0.0000
     16 C9         1.5119    7.0675    3.4753 C.2       1 RES1    0.0000
     17 C10        1.8372    5.6816    3.6844 C.2       1 RES1    0.0000
     18 C11        3.3603    6.3476    5.4314 C.ar      1 RES1    0.0000
     19 C12        4.3505    5.9408    6.3105 C.ar      1 RES1    0.0000
     20 H8         4.5758    5.0220    6.3938 H         1 RES1    0.0000
     21 C13        5.0009    6.8925    7.0610 C.ar      1 RES1    0.0000
     22 H9         5.6851    6.6233    7.6630 H         1 RES1    0.0000
     23 C14        4.6743    8.2417    6.9554 C.ar      1 RES1    0.0000
     24 H10        5.1250    8.8845    7.4896 H         1 RES1    0.0000
     25 C15        3.6921    8.6391    6.0723 C.ar      1 RES1    0.0000
     26 H11        3.4665    9.5591    5.9955 H         1 RES1    0.0000
     27 C16        3.0280    7.6891    5.2886 C.ar      1 RES1    0.0000
     28 C17        2.0768    8.0138    4.2582 C.2       1 RES1    0.0000
     29 C18        1.0850    9.8034    3.0429 C.2       1 RES1    0.0000
     30 C19        0.6466   11.0424    3.1879 C.2       1 RES1    0.0000
     31 H12        0.8666   11.4580    4.0135 H         1 RES1    0.0000
     32 C20       -0.1339   11.8718    2.2530 C.ar      1 RES1    0.0000
     33 C21        0.1752   13.2241    2.1748 C.ar      1 RES1    0.0000
     34 H13        0.8840   13.5783    2.6985 H         1 RES1    0.0000
     35 C22       -0.5464   14.0563    1.3355 C.ar      1 RES1    0.0000
     36 H14       -0.3220   14.9775    1.2788 H         1 RES1    0.0000
     37 C23       -1.5855   13.5613    0.5818 C.ar      1 RES1    0.0000
     38 H15       -2.0781   14.1371    0.0095 H         1 RES1    0.0000
     39 C24       -1.9066   12.2280    0.6640 C.ar      1 RES1    0.0000
     40 H16       -2.6209   11.8827    0.1410 H         1 RES1    0.0000
     41 C25       -1.1967   11.3802    1.5021 C.ar      1 RES1    0.0000
     42 H17       -1.4368   10.4631    1.5627 H         1 RES1    0.0000
     43 N1         2.3487    8.8350    1.1579 N.pl3     1 RES1    0.0000
     44 O1         2.5068    7.9996    0.3034 O.2       1 RES1    0.0000
     45 O2         3.1903    9.6525    1.4510 O.2       1 RES1    0.0000
     46 O3         1.3865    4.7541    3.0511 O.2       1 RES1    0.0000
     47 O4         2.7432    5.3708    4.6847 O.3       1 RES1    0.0000
     48 O5         1.8621    9.3398    4.1138 O.3       1 RES1    0.0000
@<TRIPOS>BOND
     1    1    2 1
     2    3    1 1
     3    4    3 1
     4    5    3 1
     5    6    5 ar
     6    7    6 1
     7    8    6 ar
     8    9    8 1
     9   10    8 ar
    10   11   10 1
    11   12   10 ar
    12   13   12 1
    13   14    5 ar
    14   15   14 1
    15   16    3 1
    16   17   16 1
    17   18   19 ar
    18   19   20 1
    19   21   19 ar
    20   22   21 1
    21   23   21 ar
    22   24   23 1
    23   25   23 ar
    24   26   25 1
    25   27   18 ar
    26   28   16 2
    27   29    1 1
    28   30   29 2
    29   31   30 1
    30   32   30 1
    31   33   32 ar
    32   34   33 1
    33   35   33 ar
    34   36   35 1
    35   37   35 ar
    36   38   37 1
    37   39   37 ar
    38   40   39 1
    39   41   32 ar
    40   42   41 1
    41   43    1 1
    42   44   43 2
    43   45   43 2
    44   46   17 2
    45   47   17 1
    46   48   28 1
    47   12   14 ar
    48   18   47 1
    49   25   27 ar
    50   27   28 1
    51   29   48 1
    52   39   41 ar
@<TRIPOS>SUBSTRUCTURE
     1 RES1 1

@<TRIPOS>CRYSIN
   9.1224   11.3569   19.0575  90.0000  90.0000  90.0000  19 1

