# MOL2 file generated by ConQuest
# Please check atom types

@<TRIPOS>MOLECULE
IROZAR
    48    52     1
SMALL
NO_CHARGES
****
Generated from CSD

@<TRIPOS>ATOM
      1 C1         7.8335    4.2055    3.0354 C.3       1 RES1    0.0000
      2 C2         6.5792    5.9407    4.0377 C.3       1 RES1    0.0000
      3 H1         6.8450    5.8374    4.9754 H         1 RES1    0.0000
      4 C3         6.0412    2.3881    2.7466 C.ar      1 RES1    0.0000
      5 C4        10.4602    2.0352    1.7179 C.ar      1 RES1    0.0000
      6 H2        10.9646    1.3384    2.0666 H         1 RES1    0.0000
      7 C5         9.7782    3.3957   -0.1484 C.ar      1 RES1    0.0000
      8 H3         9.8621    3.6239   -1.0459 H         1 RES1    0.0000
      9 C6         9.6033    2.7311    2.4935 C.ar      1 RES1    0.0000
     10 C7         5.6100    4.7890    3.6913 C.3       1 RES1    0.0000
     11 H4         5.3972    4.2943    4.5106 H         1 RES1    0.0000
     12 C8         8.8683    4.0644    0.6444 C.ar      1 RES1    0.0000
     13 H5         8.3280    4.7338    0.2854 H         1 RES1    0.0000
     14 C9         8.3384    3.4254    4.2793 C.2       1 RES1    0.0000
     15 C10        6.3524    3.8658    2.7397 C.3       1 RES1    0.0000
     16 H6         6.1697    4.1885    1.8330 H         1 RES1    0.0000
     17 C11        8.7650    3.7258    1.9780 C.ar      1 RES1    0.0000
     18 C12        6.3438    1.6502    1.5937 C.ar      1 RES1    0.0000
     19 H7         6.6906    2.0865    0.8469 H         1 RES1    0.0000
     20 C13        5.6193   -0.3611    2.6465 C.ar      1 RES1    0.0000
     21 H8         5.4740   -1.2789    2.6177 H         1 RES1    0.0000
     22 C14       10.5551    2.3963    0.3797 C.ar      1 RES1    0.0000
     23 H9        11.1608    1.9520   -0.1691 H         1 RES1    0.0000
     24 C15        5.5579    1.7047    3.8179 C.ar      1 RES1    0.0000
     25 H10        5.3927    2.1683    4.6061 H         1 RES1    0.0000
     26 C16        6.1457    0.2764    1.5522 C.ar      1 RES1    0.0000
     27 H11        6.3615   -0.2031    0.7870 H         1 RES1    0.0000
     28 C17        6.1697    8.0183    2.6557 C.ar      1 RES1    0.0000
     29 H12        6.5993    7.5994    1.9435 H         1 RES1    0.0000
     30 C18        5.0563    9.9279    3.5210 C.ar      1 RES1    0.0000
     31 H13        4.7315   10.7890    3.3990 H         1 RES1    0.0000
     32 C19        6.0503    7.3627    3.8559 C.ar      1 RES1    0.0000
     33 C20        5.3006    0.3369    3.7776 C.ar      1 RES1    0.0000
     34 H14        4.9232   -0.0950    4.5083 H         1 RES1    0.0000
     35 C21        5.4382    8.0219    4.8983 C.ar      1 RES1    0.0000
     36 H15        5.3620    7.6012    5.7257 H         1 RES1    0.0000
     37 C22        5.6682    9.2841    2.4969 C.ar      1 RES1    0.0000
     38 H16        5.7423    9.6994    1.6673 H         1 RES1    0.0000
     39 C23        4.9170    9.3062    4.7177 C.ar      1 RES1    0.0000
     40 H17        4.4880    9.7427    5.4242 H         1 RES1    0.0000
     41 N1         7.7384    5.6586    3.2126 N.3       1 RES1    0.0000
     42 N2         4.3245    5.2903    3.0780 N.pl3     1 RES1    0.0000
     43 N3         9.3102    2.5871    3.8731 N.am      1 RES1    0.0000
     44 O1         3.3471    5.4469    3.8478 O.2       1 RES1    0.0000
     45 O2         4.2728    5.5616    1.9101 O.2       1 RES1    0.0000
     46 O3         7.8836    3.5498    5.4207 O.2       1 RES1    0.0000
     47 H18        8.5287    5.8559    3.5325 H         1 RES1    0.0000
     48 H19        9.5024    1.9160    4.3725 H         1 RES1    0.0000
@<TRIPOS>BOND
     1    1   14 1
     2    2    3 1
     3    4   15 1
     4    5    6 1
     5    7    8 1
     6    9    5 ar
     7   10    2 1
     8   11   10 1
     9   12    7 ar
    10   13   12 1
    11   14   43 1
    12   15    1 1
    13   16   15 1
    14   17    1 1
    15   18    4 ar
    16   19   18 1
    17   20   21 1
    18   22    5 ar
    19   23   22 1
    20   24    4 ar
    21   25   24 1
    22   26   18 ar
    23   27   26 1
    24   28   29 1
    25   30   31 1
    26   32    2 1
    27   33   20 ar
    28   34   33 1
    29   35   32 ar
    30   36   35 1
    31   37   28 ar
    32   38   37 1
    33   39   30 ar
    34   40   39 1
    35   41    1 1
    36   42   10 1
    37   43    9 1
    38   44   42 2
    39   45   42 2
    40   46   14 2
    41   47   41 1
    42   48   43 1
    43    2   41 1
    44    7   22 ar
    45    9   17 ar
    46   10   15 1
    47   12   17 ar
    48   20   26 ar
    49   24   33 ar
    50   28   32 ar
    51   30   37 ar
    52   35   39 ar
@<TRIPOS>SUBSTRUCTURE
     1 RES1 1

@<TRIPOS>CRYSIN
   7.6810   11.6550   12.8240  64.6800  76.1100  71.4300   2 1

