# MOL2 file generated by ConQuest
# Please check atom types

@<TRIPOS>MOLECULE
IRUCAZ
    21    22     1
SMALL
NO_CHARGES
****
Generated from CSD

@<TRIPOS>ATOM
      1 C1         1.3122    0.8641    0.9672 C.2       1 RES1    0.0000
      2 O1        -0.4814   -2.4844    3.7154 O.3       1 RES1    0.0000
      3 N1         0.6223    0.4122    2.1133 N.pl3     1 RES1    0.0000
      4 H1         1.7483    0.2258    0.4125 H         1 RES1    0.0000
      5 O2         1.2722   -3.8847    0.4158 O.3       1 RES1    0.0000
      6 N2        -0.3389   -1.0937    3.6109 N.2       1 RES1    0.0000
      7 C2         1.3208    2.2220    1.0071 C.2       1 RES1    0.0000
      8 H2         1.7842    2.7395    0.3590 H         1 RES1    0.0000
      9 O3         2.1892   -1.8400    0.1062 O.2       1 RES1    0.0000
     10 C3         0.6317    2.6393    2.1837 C.2       1 RES1    0.0000
     11 N3         0.1201   -3.1333    2.6634 N.2       1 RES1    0.0000
     12 H3         0.5422    3.5506    2.4684 H         1 RES1    0.0000
     13 C4         0.2146    1.5229    2.8399 C.2       1 RES1    0.0000
     14 H4        -0.3025    1.3943    3.6900 H         1 RES1    0.0000
     15 C5         0.3502   -0.9053    2.4975 C.2       1 RES1    0.0000
     16 C6         0.6334   -2.1926    1.9039 C.2       1 RES1    0.0000
     17 C7         1.4481   -2.5863    0.7022 C.2       1 RES1    0.0000
     18 C8         2.0575   -4.3685   -0.7271 C.3       1 RES1    0.0000
     19 H5         2.9757   -4.4676   -0.4023 H         1 RES1    0.0000
     20 H6         2.0434   -3.6527   -1.4655 H         1 RES1    0.0000
     21 H7         1.5464   -5.1648   -1.0507 H         1 RES1    0.0000
@<TRIPOS>BOND
     1    1    3 1
     2    2    6 1
     3    3   13 1
     4    4    1 1
     5    5   17 1
     6    6   15 2
     7    7    1 2
     8    8    7 1
     9    9   17 2
    10   10    7 1
    11   11    2 1
    12   12   10 1
    13   13   10 2
    14   14   13 1
    15   15    3 1
    16   16   11 2
    17   17   16 1
    18   18    5 1
    19   19   18 1
    20   20   18 1
    21   21   18 1
    22   15   16 1
@<TRIPOS>SUBSTRUCTURE
     1 RES1 1

@<TRIPOS>CRYSIN
  15.1610    9.8190   13.3680  90.0000 121.5180  90.0000  15 1

