# MOL2 file generated by ConQuest
# Please check atom types

@<TRIPOS>MOLECULE
IRUQIX
    19    19     1
SMALL
NO_CHARGES
****
Generated from CSD

@<TRIPOS>ATOM
      1 O1         2.4750    1.5503    9.1569 O.2       1 RES1    0.0000
      2 O2         1.4892   -0.2432    9.8813 O.2       1 RES1    0.0000
      3 O3        -0.5259    6.0062    6.4559 O.2       1 RES1    0.0000
      4 O4        -1.4267    6.8117    4.6495 O.2       1 RES1    0.0000
      5 O5         2.0919    4.6098    5.9827 O.2       1 RES1    0.0000
      6 N1        -0.4506    1.6527    6.3896 N.pl3     1 RES1    0.0000
      7 H1        -0.9330    0.9405    6.4008 H         1 RES1    0.0000
      8 N2        -0.7920    2.6229    5.5097 N.2       1 RES1    0.0000
      9 N3         1.4362    2.7453    7.1072 N.am      1 RES1    0.0000
     10 H2         2.1180    2.7874    7.6304 H         1 RES1    0.0000
     11 N4         0.6054    0.7108    8.1297 N.2       1 RES1    0.0000
     12 N5         1.5780    0.7000    9.0884 N.pl3     1 RES1    0.0000
     13 N6        -0.8117    5.9494    5.2646 N.pl3     1 RES1    0.0000
     14 C1         0.0150    3.6370    5.4122 C.2       1 RES1    0.0000
     15 C2         1.2675    3.7461    6.1552 C.2       1 RES1    0.0000
     16 C3         0.5833    1.7144    7.2491 C.2       1 RES1    0.0000
     17 C4        -0.3635    4.7373    4.4824 C.3       1 RES1    0.0000
     18 H3        -1.0816    4.4402    3.9013 H         1 RES1    0.0000
     19 H4         0.3969    4.9711    3.9268 H         1 RES1    0.0000
@<TRIPOS>BOND
     1    1   12 2
     2    2   12 2
     3    3   13 2
     4    4   13 2
     5    5   15 2
     6    6    7 1
     7    8    6 1
     8    9   10 1
     9   11   12 1
    10   13   17 1
    11   14    8 2
    12   15    9 1
    13   16    6 1
    14   17   14 1
    15   18   17 1
    16   19   17 1
    17    9   16 1
    18   11   16 2
    19   14   15 1
@<TRIPOS>SUBSTRUCTURE
     1 RES1 1

@<TRIPOS>CRYSIN
   5.2937    9.7054   15.0590  90.0000  96.0120  90.0000  14 1

