# MOL2 file generated by ConQuest
# Please check atom types

@<TRIPOS>MOLECULE
IRUXID
    47    51     1
SMALL
NO_CHARGES
****
Generated from CSD

@<TRIPOS>ATOM
      1 O1         8.4971   14.2290    4.1196 O.3       1 RES1    0.0000
      2 O2         6.2705   10.5924    5.5070 O.2       1 RES1    0.0000
      3 O3         8.6246   10.0199    1.6053 O.2       1 RES1    0.0000
      4 O4         6.8570   16.2586    1.7797 O.2       1 RES1    0.0000
      5 O5         6.3557   17.7151    4.0234 O.3       1 RES1    0.0000
      6 H1         5.6782   17.4378    4.3033 H         1 RES1    0.0000
      7 N1         8.1199   14.7592    2.8474 N.am      1 RES1    0.0000
      8 N2         7.5409   10.6821    3.5704 N.am      1 RES1    0.0000
      9 C1         7.4815   12.1389    3.4641 C.3       1 RES1    0.0000
     10 H2         6.7560   12.4455    4.0809 H         1 RES1    0.0000
     11 C2         8.7985   12.7997    3.9496 C.3       1 RES1    0.0000
     12 H3         9.0868   12.4001    4.8201 H         1 RES1    0.0000
     13 C3         9.8860   12.6600    2.9287 C.2       1 RES1    0.0000
     14 H4        10.7189   12.2354    3.0988 H         1 RES1    0.0000
     15 C4         9.5598   13.1911    1.7678 C.2       1 RES1    0.0000
     16 H5        10.1427   13.2033    1.0180 H         1 RES1    0.0000
     17 C5         8.1744   13.7780    1.7445 C.3       1 RES1    0.0000
     18 H6         7.9805   14.2108    0.8647 H         1 RES1    0.0000
     19 C6         7.1409   12.6807    2.0669 C.3       1 RES1    0.0000
     20 H7         6.2258   13.0585    2.0581 H         1 RES1    0.0000
     21 H8         7.1897   11.9545    1.3955 H         1 RES1    0.0000
     22 C7         7.0447    8.5779    4.3863 C.ar      1 RES1    0.0000
     23 C8         7.7148    8.4118    3.1813 C.ar      1 RES1    0.0000
     24 C9         7.9571    7.1505    2.6610 C.ar      1 RES1    0.0000
     25 H9         8.4252    7.0330    1.8421 H         1 RES1    0.0000
     26 C10        7.4844    6.0550    3.3927 C.ar      1 RES1    0.0000
     27 H10        7.6147    5.1769    3.0530 H         1 RES1    0.0000
     28 C11        6.8276    6.2253    4.6058 C.ar      1 RES1    0.0000
     29 H11        6.5303    5.4635    5.0873 H         1 RES1    0.0000
     30 C12        6.5998    7.4991    5.1274 C.ar      1 RES1    0.0000
     31 H12        6.1557    7.6205    5.9584 H         1 RES1    0.0000
     32 C13        6.8740   10.0333    4.6227 C.2       1 RES1    0.0000
     33 C14        8.0456    9.7583    2.6308 C.2       1 RES1    0.0000
     34 C15        7.3805   15.8873    2.8317 C.2       1 RES1    0.0000
     35 C16        7.3422   16.7050    4.1238 C.3       1 RES1    0.0000
     36 H13        7.1349   16.1067    4.8974 H         1 RES1    0.0000
     37 C17        8.6859   17.3799    4.3399 C.ar      1 RES1    0.0000
     38 C18        9.4080   17.1679    5.5101 C.ar      1 RES1    0.0000
     39 H14        9.0956   16.5410    6.1524 H         1 RES1    0.0000
     40 C19       10.5907   17.8735    5.7435 C.ar      1 RES1    0.0000
     41 H15       11.0803   17.7245    6.5438 H         1 RES1    0.0000
     42 C20       11.0505   18.7871    4.8172 C.ar      1 RES1    0.0000
     43 H16       11.8427   19.2827    4.9897 H         1 RES1    0.0000
     44 C21       10.3502   18.9804    3.6296 C.ar      1 RES1    0.0000
     45 H17       10.6772   19.5920    2.9798 H         1 RES1    0.0000
     46 C22        9.1690   18.2768    3.3927 C.ar      1 RES1    0.0000
     47 H18        8.6925   18.4113    2.5814 H         1 RES1    0.0000
@<TRIPOS>BOND
     1    1    7 1
     2    2   32 2
     3    3   33 2
     4    4   34 2
     5    5    6 1
     6    7   17 1
     7    8    9 1
     8    9   10 1
     9   11    1 1
    10   12   11 1
    11   13   11 1
    12   14   13 1
    13   15   13 2
    14   16   15 1
    15   17   15 1
    16   18   17 1
    17   19    9 1
    18   20   19 1
    19   21   19 1
    20   22   23 ar
    21   23   24 ar
    22   24   25 1
    23   26   24 ar
    24   27   26 1
    25   28   26 ar
    26   29   28 1
    27   30   22 ar
    28   31   30 1
    29   32    8 1
    30   33    8 1
    31   34    7 1
    32   35    5 1
    33   36   35 1
    34   37   35 1
    35   38   37 ar
    36   39   38 1
    37   40   38 ar
    38   41   40 1
    39   42   40 ar
    40   43   42 1
    41   44   42 ar
    42   45   44 1
    43   46   37 ar
    44   47   46 1
    45    9   11 1
    46   17   19 1
    47   22   32 1
    48   23   33 1
    49   28   30 ar
    50   34   35 1
    51   44   46 ar
@<TRIPOS>SUBSTRUCTURE
     1 RES1 1

@<TRIPOS>CRYSIN
  21.9065   28.3819    5.8074  90.0000  90.0000  90.0000  41 1

