# MOL2 file generated by ConQuest
# Please check atom types

@<TRIPOS>MOLECULE
ISABEJ
    37    39     1
SMALL
NO_CHARGES
****
Generated from CSD

@<TRIPOS>ATOM
      1 O1         7.0363    1.8031    9.5266 O.2       1 RES1    0.0000
      2 O2        11.3945    1.4698    8.1003 O.2       1 RES1    0.0000
      3 N1         8.0525    1.5145    8.8065 N.3       1 RES1    0.0000
      4 N2        10.1270    1.3310    8.1440 N.pl3     1 RES1    0.0000
      5 N3        11.0658    3.0111   10.3598 N.3       1 RES1    0.0000
      6 N4        10.8503    5.0939   13.8994 N.ar      1 RES1    0.0000
      7 C1         9.3216    1.8319    9.1020 C.2       1 RES1    0.0000
      8 C2         7.9420    0.6060    7.6191 C.3       1 RES1    0.0000
      9 C3         9.3700    0.7310    7.0015 C.3       1 RES1    0.0000
     10 C4         6.8064    1.0890    6.7262 C.3       1 RES1    0.0000
     11 C5         7.6319   -0.7776    8.1835 C.3       1 RES1    0.0000
     12 C6         9.4757    1.7515    5.8653 C.3       1 RES1    0.0000
     13 C7        10.0184   -0.5772    6.5918 C.3       1 RES1    0.0000
     14 C8         9.7514    2.5926   10.2360 C.2       1 RES1    0.0000
     15 C9         9.0234    3.0508   11.3092 C.2       1 RES1    0.0000
     16 C10       11.1876    3.7411   11.5034 C.ar      1 RES1    0.0000
     17 C11        9.9270    3.7837   12.1264 C.ar      1 RES1    0.0000
     18 C12        9.8264    4.4839   13.3330 C.ar      1 RES1    0.0000
     19 C13       12.0448    5.0324   13.2604 C.ar      1 RES1    0.0000
     20 C14       12.2816    4.3818   12.0784 C.ar      1 RES1    0.0000
     21 H1        11.7323    2.8266    9.8253 H         1 RES1    0.0000
     22 H2         5.9398    1.0811    7.2330 H         1 RES1    0.0000
     23 H3         6.7823    0.5554    5.9101 H         1 RES1    0.0000
     24 H4         7.0310    2.0828    6.4755 H         1 RES1    0.0000
     25 H5         6.7889   -0.6843    8.6731 H         1 RES1    0.0000
     26 H6         8.3624   -1.1108    8.7798 H         1 RES1    0.0000
     27 H7         7.4923   -1.4183    7.3610 H         1 RES1    0.0000
     28 H8         9.0803    2.6878    6.1128 H         1 RES1    0.0000
     29 H9         8.9518    1.4084    5.0887 H         1 RES1    0.0000
     30 H10       10.3992    1.8249    5.6327 H         1 RES1    0.0000
     31 H11        9.9976   -1.1604    7.4356 H         1 RES1    0.0000
     32 H12       10.9586   -0.3769    6.3155 H         1 RES1    0.0000
     33 H13        9.5229   -1.0216    5.9314 H         1 RES1    0.0000
     34 H14        8.0987    2.8762   11.4255 H         1 RES1    0.0000
     35 H15        8.9647    4.5325   13.7832 H         1 RES1    0.0000
     36 H16       12.7714    5.5144   13.6978 H         1 RES1    0.0000
     37 H17       13.1185    4.3540   11.7029 H         1 RES1    0.0000
@<TRIPOS>BOND
     1    1    3 1
     2    2    4 1
     3    3    7 1
     4    4    7 2
     5    5   14 1
     6    6   18 ar
     7    7   14 1
     8    8    3 1
     9    9    4 1
    10   10    8 1
    11   11    8 1
    12   12    9 1
    13   13    9 1
    14   14   15 2
    15   15   17 1
    16   16    5 1
    17   17   16 ar
    18   18   17 ar
    19   19    6 ar
    20   20   16 ar
    21   21    5 1
    22   22   10 1
    23   23   10 1
    24   24   10 1
    25   25   11 1
    26   26   11 1
    27   27   11 1
    28   28   12 1
    29   29   12 1
    30   30   12 1
    31   31   13 1
    32   32   13 1
    33   33   13 1
    34   34   15 1
    35   35   18 1
    36   36   19 1
    37   37   20 1
    38    8    9 1
    39   19   20 ar
@<TRIPOS>SUBSTRUCTURE
     1 RES1 1

@<TRIPOS>CRYSIN
  13.5370    9.9180   11.3040  90.0000 109.3100  90.0000  14 2

