# MOL2 file generated by ConQuest
# Please check atom types

@<TRIPOS>MOLECULE
ISAMEW
    35    35     2
SMALL
NO_CHARGES
****
Generated from CSD

@<TRIPOS>ATOM
      1 O1         4.0330    2.7356    1.9542 O.3       1 RES1    0.0000
      2 H1         4.6999    2.5498    1.5042 H         1 RES1    0.0000
      3 O2         5.4295    5.6526    6.4403 O.3       1 RES1    0.0000
      4 O3         1.4978    4.1192    2.4821 O.2       1 RES1    0.0000
      5 O4        -1.3002    1.5532    7.4619 O.2       1 RES1    0.0000
      6 O5        -3.3201    2.7706    6.1980 O.2       1 RES1    0.0000
      7 O6        -2.9993    3.2689    4.1125 O.2       1 RES1    0.0000
      8 N1         0.7282    1.8796    6.5416 N.am      1 RES1    0.0000
      9 N2        -2.5853    3.0178    5.2771 N.pl3     1 RES1    0.0000
     10 C1         3.7162    4.6511    5.0403 C.ar      1 RES1    0.0000
     11 H2         3.0393    4.9442    5.6070 H         1 RES1    0.0000
     12 C2         5.0361    4.9310    5.3427 C.ar      1 RES1    0.0000
     13 C3         6.0341    4.4443    4.5103 C.ar      1 RES1    0.0000
     14 H3         6.9244    4.6169    4.7139 H         1 RES1    0.0000
     15 C4         5.7243    3.7113    3.3900 C.ar      1 RES1    0.0000
     16 H4         6.4084    3.3824    2.8528 H         1 RES1    0.0000
     17 C5         4.3999    3.4547    3.0492 C.ar      1 RES1    0.0000
     18 C6         3.3948    3.9323    3.8911 C.ar      1 RES1    0.0000
     19 C7         1.9504    3.7635    3.5514 C.2       1 RES1    0.0000
     20 C8         1.0577    3.1845    4.5870 C.2       1 RES1    0.0000
     21 C9        -0.3287    3.3397    4.4788 C.2       1 RES1    0.0000
     22 H5        -0.6882    3.8077    3.7598 H         1 RES1    0.0000
     23 C10       -1.1506    2.8064    5.4237 C.2       1 RES1    0.0000
     24 C11       -0.6647    2.0476    6.5419 C.2       1 RES1    0.0000
     25 C12        1.5373    2.4377    5.6277 C.2       1 RES1    0.0000
     26 H6         2.4561    2.3127    5.7042 H         1 RES1    0.0000
     27 C13        1.2923    1.0541    7.6244 C.3       1 RES1    0.0000
     28 H7         2.2459    1.0021    7.5237 H         1 RES1    0.0000
     29 H8         0.9171    0.1710    7.5820 H         1 RES1    0.0000
     30 H9         1.0812    1.4506    8.4723 H         1 RES1    0.0000
     31 C14        4.3918    6.1733    7.2684 C.3       1 RES1    0.0000
     32 H10        3.8348    6.7602    6.7528 H         1 RES1    0.0000
     33 H11        4.7792    6.6599    7.9987 H         1 RES1    0.0000
     34 H12        3.8626    5.4495    7.6112 H         1 RES1    0.0000
     35 O7        -2.9551    3.8372    4.5209 Du        2 SUP2    0.0000
@<TRIPOS>BOND
     1    1    2 1
     2    3   12 1
     3    4   19 2
     4    5   24 2
     5    6    9 2
     6    7    9 2
     7    8   24 1
     8    9   23 1
     9   10   11 1
    10   12   10 ar
    11   13   12 ar
    12   14   13 1
    13   15   13 ar
    14   16   15 1
    15   17    1 1
    16   18   10 ar
    17   19   18 1
    18   20   19 1
    19   21   20 1
    20   22   21 1
    21   23   21 2
    22   24   23 1
    23   25    8 1
    24   26   25 1
    25   27    8 1
    26   28   27 1
    27   29   27 1
    28   30   27 1
    29   31    3 1
    30   32   31 1
    31   33   31 1
    32   34   31 1
    33   15   17 ar
    34   17   18 ar
    35   20   25 2
@<TRIPOS>SUBSTRUCTURE
     1 RES1 1
     2 SUP2 35

@<TRIPOS>CRYSIN
  12.5891    7.7739   14.1240  90.0000 100.4660  90.0000 231 1

