# MOL2 file generated by ConQuest
# Please check atom types

@<TRIPOS>MOLECULE
ISITAF
    60    63     1
SMALL
NO_CHARGES
****
Generated from CSD

@<TRIPOS>ATOM
      1 O1         2.4496    6.4965    4.9389 O.3       1 RES1    0.0000
      2 O2         4.2905    7.6221    5.4353 O.2       1 RES1    0.0000
      3 O3         8.7930    3.2134    3.8825 O.2       1 RES1    0.0000
      4 O4         9.6891    4.8191    2.7595 O.2       1 RES1    0.0000
      5 N1         2.0325    8.3161    2.9111 N.3       1 RES1    0.0000
      6 N2         2.4120    5.6472    2.2439 N.3       1 RES1    0.0000
      7 N3         8.7234    4.2343    3.2053 N.pl3     1 RES1    0.0000
      8 C1         3.3663    7.7800    3.1694 C.3       1 RES1    0.0000
      9 C2         4.4424    8.8119    2.7835 C.ar      1 RES1    0.0000
     10 C3         5.7276    8.8275    3.2991 C.ar      1 RES1    0.0000
     11 H1         5.9573    8.2197    3.9653 H         1 RES1    0.0000
     12 C4         6.6742    9.7236    2.8463 C.ar      1 RES1    0.0000
     13 H2         7.5293    9.7172    3.2093 H         1 RES1    0.0000
     14 C5         6.3574   10.6233    1.8659 C.ar      1 RES1    0.0000
     15 H3         6.9973   11.2229    1.5588 H         1 RES1    0.0000
     16 C6         5.0876   10.6362    1.3354 C.ar      1 RES1    0.0000
     17 H4         4.8669   11.2522    0.6752 H         1 RES1    0.0000
     18 C7         4.1383    9.7328    1.7842 C.ar      1 RES1    0.0000
     19 H5         3.2870    9.7410    1.4122 H         1 RES1    0.0000
     20 C8         1.4709    9.3316    3.6890 C.ar      1 RES1    0.0000
     21 C9         2.1916   10.0963    4.5806 C.ar      1 RES1    0.0000
     22 H6         3.0991    9.9320    4.7013 H         1 RES1    0.0000
     23 C10        1.5776   11.1072    5.2977 C.ar      1 RES1    0.0000
     24 H7         2.0828   11.6140    5.8920 H         1 RES1    0.0000
     25 C11        0.2453   11.3780    5.1530 C.ar      1 RES1    0.0000
     26 H8        -0.1588   12.0620    5.6367 H         1 RES1    0.0000
     27 C12       -0.4825   10.6077    4.2664 C.ar      1 RES1    0.0000
     28 H9        -1.3921   10.7702    4.1607 H         1 RES1    0.0000
     29 C13        0.1093    9.6052    3.5384 C.ar      1 RES1    0.0000
     30 H10       -0.3996    9.1057    2.9400 H         1 RES1    0.0000
     31 C14        3.5585    6.5488    2.1951 C.3       1 RES1    0.0000
     32 H11        3.5807    6.9170    1.2865 H         1 RES1    0.0000
     33 C15        2.2744    4.6300    1.2905 C.ar      1 RES1    0.0000
     34 C16        2.8969    4.6731    0.0489 C.ar      1 RES1    0.0000
     35 H12        3.4669    5.3782   -0.1576 H         1 RES1    0.0000
     36 C17        2.6746    3.6761   -0.8846 C.ar      1 RES1    0.0000
     37 H13        3.1043    3.7119   -1.7084 H         1 RES1    0.0000
     38 C18        1.8240    2.6304   -0.6044 C.ar      1 RES1    0.0000
     39 H14        1.6699    1.9638   -1.2347 H         1 RES1    0.0000
     40 C19        1.2100    2.5872    0.6173 C.ar      1 RES1    0.0000
     41 H15        0.6299    1.8867    0.8138 H         1 RES1    0.0000
     42 C20        1.4365    3.5604    1.5578 C.ar      1 RES1    0.0000
     43 H16        1.0215    3.5007    2.3885 H         1 RES1    0.0000
     44 C21        4.8989    5.8593    2.4105 C.ar      1 RES1    0.0000
     45 C22        5.0667    4.9128    3.4038 C.ar      1 RES1    0.0000
     46 H17        4.3350    4.6373    3.9064 H         1 RES1    0.0000
     47 C23        6.3111    4.3702    3.6591 C.ar      1 RES1    0.0000
     48 H18        6.4204    3.7394    4.3333 H         1 RES1    0.0000
     49 C24        7.3829    4.7714    2.9081 C.ar      1 RES1    0.0000
     50 C25        7.2429    5.6647    1.8779 C.ar      1 RES1    0.0000
     51 H19        7.9713    5.9098    1.3543 H         1 RES1    0.0000
     52 C26        5.9890    6.1898    1.6396 C.ar      1 RES1    0.0000
     53 H20        5.8779    6.7866    0.9355 H         1 RES1    0.0000
     54 C27        3.4603    7.3191    4.6384 C.2       1 RES1    0.0000
     55 C28        2.4102    5.9979    6.2940 C.3       1 RES1    0.0000
     56 H21        3.2287    5.5361    6.4894 H         1 RES1    0.0000
     57 H22        1.6699    5.3929    6.3907 H         1 RES1    0.0000
     58 H23        2.3051    6.7333    6.9023 H         1 RES1    0.0000
     59 H24        1.5508    7.7396    2.5730 H         1 RES1    0.0000
     60 H25        2.1754    5.4076    3.0517 H         1 RES1    0.0000
@<TRIPOS>BOND
     1    1   54 1
     2    2   54 2
     3    3    7 2
     4    4    7 2
     5    5    8 1
     6    6   31 1
     7    7   49 1
     8    8    9 1
     9    9   10 ar
    10   10   11 1
    11   12   10 ar
    12   13   12 1
    13   14   12 ar
    14   15   14 1
    15   16   14 ar
    16   17   16 1
    17   18    9 ar
    18   19   18 1
    19   20    5 1
    20   21   20 ar
    21   22   21 1
    22   23   21 ar
    23   24   23 1
    24   25   23 ar
    25   26   25 1
    26   27   25 ar
    27   28   27 1
    28   29   20 ar
    29   30   29 1
    30   31    8 1
    31   32   31 1
    32   33    6 1
    33   34   33 ar
    34   35   34 1
    35   36   34 ar
    36   37   36 1
    37   38   36 ar
    38   39   38 1
    39   40   38 ar
    40   41   40 1
    41   42   33 ar
    42   43   42 1
    43   44   31 1
    44   45   44 ar
    45   46   45 1
    46   47   45 ar
    47   48   47 1
    48   49   47 ar
    49   50   49 ar
    50   51   50 1
    51   52   44 ar
    52   53   52 1
    53   54    8 1
    54   55    1 1
    55   56   55 1
    56   57   55 1
    57   58   55 1
    58   59    5 1
    59   60    6 1
    60   16   18 ar
    61   27   29 ar
    62   40   42 ar
    63   50   52 ar
@<TRIPOS>SUBSTRUCTURE
     1 RES1 1

@<TRIPOS>CRYSIN
  26.4650    9.1810    9.9730  90.0000  90.0000  90.0000  33 1

