# MOL2 file generated by ConQuest
# Please check atom types

@<TRIPOS>MOLECULE
ISNACN10
    20    20     1
SMALL
NO_CHARGES
****
Generated from CSD

@<TRIPOS>ATOM
      1 C1        -5.0848   -2.1911   -3.7763 C.ar      1 RES1    0.0000
      2 C2        -7.6070    0.3078   -4.9451 C.2       1 RES1    0.0000
      3 C3        -4.5401   -2.2564   -2.5088 C.ar      1 RES1    0.0000
      4 C4        -3.6066   -3.2190   -2.1962 C.ar      1 RES1    0.0000
      5 C5        -3.2221   -4.1533   -3.1394 C.ar      1 RES1    0.0000
      6 C6        -3.7889   -4.1071   -4.3788 C.ar      1 RES1    0.0000
      7 C7        -4.7374   -3.1370   -4.7417 C.ar      1 RES1    0.0000
      8 C8        -6.6258   -0.7771   -5.1431 C.2       1 RES1    0.0000
      9 H1        -7.7473    0.7261   -4.0422 H         1 RES1    0.0000
     10 H2        -4.8070   -1.6470   -1.8240 H         1 RES1    0.0000
     11 H3        -5.1648   -3.1347   -5.6096 H         1 RES1    0.0000
     12 H4        -3.1724   -3.2409   -1.3382 H         1 RES1    0.0000
     13 H5        -3.5206   -4.7817   -5.0780 H         1 RES1    0.0000
     14 H6        -2.6018   -4.9234   -2.9148 H         1 RES1    0.0000
     15 H7        -6.2191   -0.5313   -3.1714 H         1 RES1    0.0000
     16 H8        -9.5076    1.5762   -6.3062 H         1 RES1    0.0000
     17 N1        -8.3727    0.5711   -5.9189 N.2       1 RES1    0.0000
     18 N2        -6.0433   -1.1607   -3.9960 N.am      1 RES1    0.0000
     19 O1        -9.2849    1.5918   -5.6023 O.3       1 RES1    0.0000
     20 O2        -6.4025   -1.2625   -6.2540 O.2       1 RES1    0.0000
@<TRIPOS>BOND
     1    1    3 ar
     2    2    8 1
     3    3    4 ar
     4    4    5 ar
     5    5    6 ar
     6    6    7 ar
     7    7    1 ar
     8    8   18 1
     9    9    2 1
    10   10    3 1
    11   11    7 1
    12   12    4 1
    13   13    6 1
    14   14    5 1
    15   15   18 1
    16   16   19 1
    17   17    2 2
    18   18    1 1
    19   19   17 1
    20   20    8 2
@<TRIPOS>SUBSTRUCTURE
     1 RES1 1

@<TRIPOS>CRYSIN
   9.6720   17.7100    9.1660  90.0000  90.0000  90.0000  61 3

