# MOL2 file generated by ConQuest
# Please check atom types

@<TRIPOS>MOLECULE
ISOCID
    42    45     1
SMALL
NO_CHARGES
****
Generated from CSD

@<TRIPOS>ATOM
      1 N1         3.1014    0.3739    7.7087 N.pl3     1 RES1    0.0000
      2 O1         4.1222    0.0207    8.2820 O.2       1 RES1    0.0000
      3 O2         1.9791    0.3200    8.2118 O.2       1 RES1    0.0000
      4 C1         3.2164    0.9027    6.3423 C.ar      1 RES1    0.0000
      5 C2         2.1269    1.5636    5.8033 C.ar      1 RES1    0.0000
      6 H1         1.3330    1.6825    6.3106 H         1 RES1    0.0000
      7 C3         2.2178    2.0490    4.5087 C.ar      1 RES1    0.0000
      8 H2         1.4950    2.5264    4.1201 H         1 RES1    0.0000
      9 C4         3.3877    1.8245    3.7879 C.ar      1 RES1    0.0000
     10 C5         4.4745    1.1542    4.3406 C.ar      1 RES1    0.0000
     11 H3         5.2624    1.0102    3.8273 H         1 RES1    0.0000
     12 C6         4.3964    0.6994    5.6459 C.ar      1 RES1    0.0000
     13 H4         5.1325    0.2591    6.0537 H         1 RES1    0.0000
     14 N2         3.5007    2.3135    2.4507 N.pl3     1 RES1    0.0000
     15 N3         4.6807    2.8885    2.0779 N.2       1 RES1    0.0000
     16 N4         4.5634    3.2193    0.8244 N.2       1 RES1    0.0000
     17 C7         2.6103    2.2965    1.4177 C.2       1 RES1    0.0000
     18 C8         1.2650    1.6860    1.4958 C.ar      1 RES1    0.0000
     19 C9         1.1249    0.3331    1.8158 C.ar      1 RES1    0.0000
     20 H5         1.8940   -0.1961    1.9886 H         1 RES1    0.0000
     21 C10       -0.1390   -0.2383    1.8822 C.ar      1 RES1    0.0000
     22 H6        -0.2325   -1.1617    2.0834 H         1 RES1    0.0000
     23 C11       -1.2661    0.5374    1.6548 C.ar      1 RES1    0.0000
     24 H7        -2.1302    0.1462    1.7110 H         1 RES1    0.0000
     25 C12       -1.1337    1.8797    1.3462 C.ar      1 RES1    0.0000
     26 H8        -1.9075    2.4091    1.1997 H         1 RES1    0.0000
     27 C13        0.1273    2.4569    1.2503 C.ar      1 RES1    0.0000
     28 H9         0.2149    3.3738    1.0183 H         1 RES1    0.0000
     29 C14        3.3158    2.8769    0.3790 C.2       1 RES1    0.0000
     30 C15        2.8730    3.1127   -1.0207 C.2       1 RES1    0.0000
     31 O3         1.7028    3.4069   -1.2330 O.2       1 RES1    0.0000
     32 C16        3.8557    2.9808   -2.1352 C.ar      1 RES1    0.0000
     33 C17        3.4605    3.4150   -3.4101 C.ar      1 RES1    0.0000
     34 H10        2.5936    3.7844   -3.5387 H         1 RES1    0.0000
     35 C18        4.3307    3.3063   -4.4809 C.ar      1 RES1    0.0000
     36 H11        4.0577    3.5944   -5.3432 H         1 RES1    0.0000
     37 C19        5.6027    2.7784   -4.3008 C.ar      1 RES1    0.0000
     38 H12        6.2047    2.7312   -5.0339 H         1 RES1    0.0000
     39 C20        5.9969    2.3205   -3.0532 C.ar      1 RES1    0.0000
     40 H13        6.8591    1.9416   -2.9354 H         1 RES1    0.0000
     41 C21        5.1256    2.4174   -1.9758 C.ar      1 RES1    0.0000
     42 H14        5.3947    2.0983   -1.1228 H         1 RES1    0.0000
@<TRIPOS>BOND
     1    1    2 2
     2    3    1 2
     3    4    1 1
     4    5    4 ar
     5    6    5 1
     6    7    5 ar
     7    8    7 1
     8    9    7 ar
     9   10    9 ar
    10   11   10 1
    11   12    4 ar
    12   13   12 1
    13   14    9 1
    14   15   14 1
    15   16   15 2
    16   17   14 1
    17   18   17 1
    18   19   18 ar
    19   20   19 1
    20   21   19 ar
    21   22   21 1
    22   23   21 ar
    23   24   23 1
    24   25   23 ar
    25   26   25 1
    26   27   18 ar
    27   28   27 1
    28   29   16 1
    29   30   29 1
    30   31   30 2
    31   32   30 1
    32   33   32 ar
    33   34   33 1
    34   35   33 ar
    35   36   35 1
    36   37   35 ar
    37   38   37 1
    38   39   37 ar
    39   40   39 1
    40   41   32 ar
    41   42   41 1
    42   10   12 ar
    43   17   29 2
    44   25   27 ar
    45   39   41 ar
@<TRIPOS>SUBSTRUCTURE
     1 RES1 1

@<TRIPOS>CRYSIN
  28.5200    8.7540   14.7010  90.0000 110.8020  90.0000  15 1

