# MOL2 file generated by ConQuest
# Please check atom types

@<TRIPOS>MOLECULE
ISOXAZ
    14    15     1
SMALL
NO_CHARGES
****
Generated from CSD

@<TRIPOS>ATOM
      1 C1         0.1897    3.3357   -8.5216 C.2       1 RES1    0.0000
      2 C2        -0.7401    5.4657   -9.6579 C.2       1 RES1    0.0000
      3 C3         0.7753    2.0339   -8.5186 C.2       1 RES1    0.0000
      4 C4        -0.2378    4.1649   -9.6667 C.2       1 RES1    0.0000
      5 C5         0.9855    1.7601   -7.2232 C.2       1 RES1    0.0000
      6 C6        -0.1931    3.8598  -11.0035 C.2       1 RES1    0.0000
      7 H1        -1.0408    6.0457   -8.8576 H         1 RES1    0.0000
      8 H2         0.9886    1.3745   -9.2408 H         1 RES1    0.0000
      9 H3         1.3001    0.9499   -6.5290 H         1 RES1    0.0000
     10 H4         0.1741    3.1066  -11.5694 H         1 RES1    0.0000
     11 N1         0.0557    3.8029   -7.2924 N.2       1 RES1    0.0000
     12 N2        -1.0017    5.9227  -10.8694 N.2       1 RES1    0.0000
     13 O1         0.5765    2.7826   -6.4494 O.3       1 RES1    0.0000
     14 O2        -0.6473    4.8723  -11.7581 O.3       1 RES1    0.0000
@<TRIPOS>BOND
     1    1    3 1
     2    2    4 1
     3    3    5 2
     4    4    1 1
     5    5    9 1
     6    6    4 2
     7    7    2 1
     8    8    3 1
     9   10    6 1
    10   11    1 2
    11   12    2 2
    12   13    5 1
    13   14    6 1
    14   11   13 1
    15   12   14 1
@<TRIPOS>SUBSTRUCTURE
     1 RES1 1

@<TRIPOS>CRYSIN
   3.7970   11.1750   14.7900  90.0000  94.8000  90.0000  14 1

