# MOL2 file generated by ConQuest
# Please check atom types

@<TRIPOS>MOLECULE
ISURUJ
    25    25     1
SMALL
NO_CHARGES
****
Generated from CSD

@<TRIPOS>ATOM
      1 O1        -0.2925    1.4210    5.6468 O.3       1 RES1    0.0000
      2 O2         1.3235    2.7544    6.4352 O.2       1 RES1    0.0000
      3 O3         0.1795    2.7465    8.9385 O.3       1 RES1    0.0000
      4 N1         1.2535    1.9799    9.4975 N.2       1 RES1    0.0000
      5 C1         0.3157    2.0993    6.6002 C.2       1 RES1    0.0000
      6 C2        -0.4127    1.9791    7.9157 C.3       1 RES1    0.0000
      7 C3         1.7825    2.5687   10.5003 C.2       1 RES1    0.0000
      8 C4         2.9081    1.8395   11.1767 C.3       1 RES1    0.0000
      9 C5         2.6480    1.7086   12.6795 C.3       1 RES1    0.0000
     10 C6         2.3279    3.0607   13.3014 C.3       1 RES1    0.0000
     11 C7         1.1281    3.7031   12.6114 C.3       1 RES1    0.0000
     12 C8         1.3827    3.8822   11.1082 C.3       1 RES1    0.0000
     13 H1         0.0907    1.5641    4.9132 H         1 RES1    0.0000
     14 H2        -1.3508    2.2720    7.7938 H         1 RES1    0.0000
     15 H3        -0.4263    1.0285    8.1920 H         1 RES1    0.0000
     16 H4         3.7550    2.3311   11.0298 H         1 RES1    0.0000
     17 H5         3.0040    0.9380   10.7782 H         1 RES1    0.0000
     18 H6         1.8895    1.0904   12.8294 H         1 RES1    0.0000
     19 H7         3.4475    1.3247   13.1198 H         1 RES1    0.0000
     20 H8         3.1146    3.6565   13.2188 H         1 RES1    0.0000
     21 H9         2.1314    2.9434   14.2648 H         1 RES1    0.0000
     22 H10        0.9465    4.5853   13.0217 H         1 RES1    0.0000
     23 H11        0.3290    3.1340   12.7439 H         1 RES1    0.0000
     24 H12        0.5618    4.2173   10.6685 H         1 RES1    0.0000
     25 H13        2.1020    4.5478   10.9686 H         1 RES1    0.0000
@<TRIPOS>BOND
     1    1    5 1
     2    2    5 2
     3    3    4 1
     4    4    7 2
     5    5    6 1
     6    6    3 1
     7    7    8 1
     8    8    9 1
     9    9   10 1
    10   10   11 1
    11   11   12 1
    12   12    7 1
    13   13    1 1
    14   14    6 1
    15   15    6 1
    16   16    8 1
    17   17    8 1
    18   18    9 1
    19   19    9 1
    20   20   10 1
    21   21   10 1
    22   22   11 1
    23   23   11 1
    24   24   12 1
    25   25   12 1
@<TRIPOS>SUBSTRUCTURE
     1 RES1 1

@<TRIPOS>CRYSIN
   5.0776    8.6533   10.7804 111.2609 102.4370  93.5970   2 1

