# MOL2 file generated by ConQuest
# Please check atom types

@<TRIPOS>MOLECULE
ISUXEA
    20    20     1
SMALL
NO_CHARGES
****
Generated from CSD

@<TRIPOS>ATOM
      1 O1        -0.4596   -2.2018   -3.8556 O.3       1 RES1    0.0000
      2 O2        -2.9788    0.1541   -4.1575 O.2       1 RES1    0.0000
      3 O3        -2.3050   -0.2197   -2.1544 O.2       1 RES1    0.0000
      4 N1        -2.6822   -4.2213   -5.8230 N.ar      1 RES1    0.0000
      5 N2        -2.6958   -0.5955   -3.2449 N.pl3     1 RES1    0.0000
      6 C1        -2.8844   -5.5110   -6.1177 C.ar      1 RES1    0.0000
      7 H1        -3.4939   -5.6431   -6.8493 H         1 RES1    0.0000
      8 C2        -2.3007   -6.5561   -5.4308 C.ar      1 RES1    0.0000
      9 H2        -2.5079   -7.4497   -5.6693 H         1 RES1    0.0000
     10 C3        -1.4533   -6.2463   -4.3879 C.ar      1 RES1    0.0000
     11 H3        -1.0360   -6.9641   -3.9008 H         1 RES1    0.0000
     12 C4        -1.2197   -4.9205   -4.0808 C.ar      1 RES1    0.0000
     13 H4        -0.6359   -4.7204   -3.3880 H         1 RES1    0.0000
     14 C5        -1.8570   -3.9349   -4.8118 C.ar      1 RES1    0.0000
     15 C6        -1.6977   -2.4616   -4.4758 C.3       1 RES1    0.0000
     16 H5        -1.7648   -1.8882   -5.3110 H         1 RES1    0.0000
     17 C7        -2.8037   -2.0633   -3.5040 C.3       1 RES1    0.0000
     18 H6        -2.6937   -2.4671   -2.6463 H         1 RES1    0.0000
     19 H7        -3.7440   -2.2339   -3.8894 H         1 RES1    0.0000
     20 H8         0.0500   -1.7289   -4.4296 H         1 RES1    0.0000
@<TRIPOS>BOND
     1    1   15 1
     2    2    5 2
     3    3    5 2
     4    4    6 ar
     5    5   17 1
     6    6    7 1
     7    8    6 ar
     8    9    8 1
     9   10    8 ar
    10   11   10 1
    11   12   10 ar
    12   13   12 1
    13   14    4 ar
    14   15   14 1
    15   16   15 1
    16   17   15 1
    17   18   17 1
    18   19   17 1
    19   20    1 1
    20   12   14 ar
@<TRIPOS>SUBSTRUCTURE
     1 RES1 1

@<TRIPOS>CRYSIN
   7.1450    9.7128   11.4461  90.0000  90.0000  90.0000  19 1

