# MOL2 file generated by ConQuest
# Please check atom types

@<TRIPOS>MOLECULE
ISXZCB
    39    40     1
SMALL
NO_CHARGES
****
Generated from CSD

@<TRIPOS>ATOM
      1 O1        -0.5441    4.8999    5.4943 O.3       1 RES1    0.0000
      2 O2         1.5894    4.2024    9.6909 O.3       1 RES1    0.0000
      3 O3        -3.0322    7.0519    2.7254 O.3       1 RES1    0.0000
      4 N1         0.3768    3.7949    5.2458 N.3       1 RES1    0.0000
      5 N2         1.5082    3.3242    8.5944 N.2       1 RES1    0.0000
      6 N3        -2.0428    7.1218    3.7509 N.2       1 RES1    0.0000
      7 C1        -0.1278    6.0220    4.6463 C.3       1 RES1    0.0000
      8 C2         1.1953    5.5513    3.9941 C.3       1 RES1    0.0000
      9 C3         2.6399    3.3914    4.5029 C.3       1 RES1    0.0000
     10 C4         2.8033    2.4328    5.6967 C.3       1 RES1    0.0000
     11 C5         1.4646    1.8737    6.1464 C.3       1 RES1    0.0000
     12 C6         0.4278    2.9497    6.4711 C.3       1 RES1    0.0000
     13 C7         1.6639    4.4846    4.9789 C.3       1 RES1    0.0000
     14 C8         3.9891    3.9927    4.1453 C.3       1 RES1    0.0000
     15 C9        -0.9716    2.3273    6.6696 C.3       1 RES1    0.0000
     16 C10        0.7435    3.7752    7.6872 C.2       1 RES1    0.0000
     17 C11        0.0396    7.2088    5.5666 C.3       1 RES1    0.0000
     18 C12       -1.2376    6.1750    3.6431 C.2       1 RES1    0.0000
     19 H1         1.9295    3.7316   10.2417 H         1 RES1    0.0000
     20 H2        -3.4736    7.8061    2.8924 H         1 RES1    0.0000
     21 H3         1.7711    6.3029    3.9047 H         1 RES1    0.0000
     22 H4         0.9983    5.1162    3.0765 H         1 RES1    0.0000
     23 H5         2.3172    2.9273    3.3920 H         1 RES1    0.0000
     24 H6         3.2695    2.9009    6.4948 H         1 RES1    0.0000
     25 H7         3.2501    1.6746    5.3904 H         1 RES1    0.0000
     26 H8         1.0855    1.2922    5.3115 H         1 RES1    0.0000
     27 H9         1.5596    1.2922    7.0732 H         1 RES1    0.0000
     28 H10        1.9868    4.9316    5.9426 H         1 RES1    0.0000
     29 H11        3.7223    4.6151    3.2737 H         1 RES1    0.0000
     30 H12        4.3402    4.5360    5.0880 H         1 RES1    0.0000
     31 H13        4.5169    3.0987    3.5498 H         1 RES1    0.0000
     32 H14       -0.9066    1.6219    7.4414 H         1 RES1    0.0000
     33 H15       -1.1893    1.8065    5.8243 H         1 RES1    0.0000
     34 H16       -1.6444    3.1251    7.0338 H         1 RES1    0.0000
     35 H17        0.2063    4.5492    7.8884 H         1 RES1    0.0000
     36 H18        0.7190    7.0545    6.1398 H         1 RES1    0.0000
     37 H19        0.2516    7.9643    5.0354 H         1 RES1    0.0000
     38 H20       -0.7215    7.3710    6.0872 H         1 RES1    0.0000
     39 H21       -1.2241    5.5117    2.8530 H         1 RES1    0.0000
@<TRIPOS>BOND
     1    1    4 1
     2    2    5 1
     3    3    6 1
     4    4   12 1
     5    5   16 2
     6    6   18 2
     7    7    1 1
     8    8    7 1
     9    9   10 1
    10   10   11 1
    11   11   12 1
    12   12   15 1
    13   13    4 1
    14   14    9 1
    15   15   32 1
    16   16   12 1
    17   17    7 1
    18   18    7 1
    19   19    2 1
    20   20    3 1
    21   21    8 1
    22   22    8 1
    23   23    9 1
    24   24   10 1
    25   25   10 1
    26   26   11 1
    27   27   11 1
    28   28   13 1
    29   29   14 1
    30   30   14 1
    31   31   14 1
    32   33   15 1
    33   34   15 1
    34   35   16 1
    35   36   17 1
    36   37   17 1
    37   38   17 1
    38   39   18 1
    39    8   13 1
    40    9   13 1
@<TRIPOS>SUBSTRUCTURE
     1 RES1 1

@<TRIPOS>CRYSIN
   7.8580   13.1860   17.2590  90.0000 130.3800  90.0000  14 1

