# MOL2 file generated by ConQuest
# Please check atom types

@<TRIPOS>MOLECULE
ITAFIT
    51    55     1
SMALL
NO_CHARGES
****
Generated from CSD

@<TRIPOS>ATOM
      1 C1        -8.1453    9.7256   12.0020 C.3       1 RES1    0.0000
      2 H1        -8.4886   10.0496   11.1432 H         1 RES1    0.0000
      3 C2        -6.6415   10.0179   12.0734 C.ar      1 RES1    0.0000
      4 C3        -5.8732    9.3327   13.0179 C.ar      1 RES1    0.0000
      5 H2        -6.2914    8.7000   13.5555 H         1 RES1    0.0000
      6 C4        -4.5351    9.5509   13.1868 C.ar      1 RES1    0.0000
      7 H3        -4.0625    9.0504   13.8116 H         1 RES1    0.0000
      8 C5        -3.8842   10.5002   12.4427 C.ar      1 RES1    0.0000
      9 H4        -2.9746   10.6479   12.5584 H         1 RES1    0.0000
     10 C6        -4.5982   11.2317   11.5243 C.ar      1 RES1    0.0000
     11 H5        -4.1793   11.9004   11.0326 H         1 RES1    0.0000
     12 C7        -5.9455   10.9688   11.3335 C.ar      1 RES1    0.0000
     13 C8        -8.4127    8.2328   12.1007 C.ar      1 RES1    0.0000
     14 C9        -7.8651    7.8118    9.6991 C.ar      1 RES1    0.0000
     15 H6        -7.7172    8.7190    9.5613 H         1 RES1    0.0000
     16 C10       -7.7545    6.9472    8.6447 C.ar      1 RES1    0.0000
     17 H7        -7.5490    7.2724    7.7975 H         1 RES1    0.0000
     18 C11       -7.9512    5.5727    8.8376 C.ar      1 RES1    0.0000
     19 H8        -7.8911    4.9900    8.1157 H         1 RES1    0.0000
     20 C12       -8.2312    5.0887   10.0718 C.ar      1 RES1    0.0000
     21 H9        -8.3321    4.1722   10.1916 H         1 RES1    0.0000
     22 C13       -8.7166    5.4609   12.4530 C.ar      1 RES1    0.0000
     23 H10       -8.7861    4.5426   12.5857 H         1 RES1    0.0000
     24 C14       -8.9505    6.3066   13.4902 C.ar      1 RES1    0.0000
     25 H11       -9.1966    5.9755   14.3237 H         1 RES1    0.0000
     26 C15       -8.8150    7.6829   13.2856 C.ar      1 RES1    0.0000
     27 C16       -8.2004    7.3529   10.9939 C.ar      1 RES1    0.0000
     28 C17       -8.3717    5.9535   11.1802 C.ar      1 RES1    0.0000
     29 C18       -9.3390    9.7932   14.2025 C.2       1 RES1    0.0000
     30 C19      -10.1386   10.3862   15.3092 C.3       1 RES1    0.0000
     31 H12       -9.8417   10.0000   16.1481 H         1 RES1    0.0000
     32 H13      -11.0684   10.1414   15.1859 H         1 RES1    0.0000
     33 C20      -10.0416   11.9079   15.4108 C.3       1 RES1    0.0000
     34 C21      -10.0675   12.5031   13.9961 C.3       1 RES1    0.0000
     35 H14      -10.9761   12.4481   13.6600 H         1 RES1    0.0000
     36 H15       -9.8379   13.4431   14.0585 H         1 RES1    0.0000
     37 C22       -9.1515   11.8595   12.9865 C.2       1 RES1    0.0000
     38 C23       -8.8911   10.4321   13.1186 C.2       1 RES1    0.0000
     39 C24       -8.7550   12.3005   16.1281 C.3       1 RES1    0.0000
     40 H16       -8.7708   11.9553   17.0239 H         1 RES1    0.0000
     41 H17       -8.6829   13.2574   16.1541 H         1 RES1    0.0000
     42 H18       -8.0010   11.9353   15.6571 H         1 RES1    0.0000
     43 C25      -11.2354   12.4445   16.1987 C.3       1 RES1    0.0000
     44 H19      -12.0502   12.1505   15.7844 H         1 RES1    0.0000
     45 H20      -11.2075   13.4041   16.2057 H         1 RES1    0.0000
     46 H21      -11.1969   12.1157   17.0997 H         1 RES1    0.0000
     47 N1        -6.5674   11.7264   10.2328 N.pl3     1 RES1    0.0000
     48 O1        -9.1521    8.4557   14.3995 O.3       1 RES1    0.0000
     49 O2        -8.6664   12.5029   12.0596 O.2       1 RES1    0.0000
     50 O3        -7.3141   11.1419    9.4673 O.2       1 RES1    0.0000
     51 O4        -6.2561   12.9009   10.0999 O.2       1 RES1    0.0000
@<TRIPOS>BOND
     1    1    2 1
     2    3    1 1
     3    4    3 ar
     4    5    4 1
     5    6    4 ar
     6    7    6 1
     7    8    6 ar
     8    9    8 1
     9   10    8 ar
    10   11   10 1
    11   12    3 ar
    12   13    1 1
    13   14   15 1
    14   16   14 ar
    15   17   16 1
    16   18   16 ar
    17   19   18 1
    18   20   18 ar
    19   21   20 1
    20   22   23 1
    21   24   22 ar
    22   25   24 1
    23   26   13 ar
    24   27   13 ar
    25   28   20 ar
    26   29   30 1
    27   30   31 1
    28   32   30 1
    29   33   30 1
    30   34   33 1
    31   35   34 1
    32   36   34 1
    33   37   34 1
    34   38    1 1
    35   39   33 1
    36   40   39 1
    37   41   39 1
    38   42   39 1
    39   43   33 1
    40   44   43 1
    41   45   43 1
    42   46   43 1
    43   47   12 1
    44   48   26 1
    45   49   37 2
    46   50   47 2
    47   51   47 2
    48   10   12 ar
    49   14   27 ar
    50   22   28 ar
    51   24   26 ar
    52   27   28 ar
    53   29   38 2
    54   29   48 1
    55   37   38 1
@<TRIPOS>SUBSTRUCTURE
     1 RES1 1

@<TRIPOS>CRYSIN
  24.5630   10.5519   20.3610  90.0000 131.9100  90.0000  15 1

