# MOL2 file generated by ConQuest
# Please check atom types

@<TRIPOS>MOLECULE
ITAKOE
    49    52     1
SMALL
NO_CHARGES
****
Generated from CSD

@<TRIPOS>ATOM
      1 O1         2.6145    0.3886    3.8030 O.3       1 RES1    0.0000
      2 O2         3.2928   -4.5687    7.6845 O.2       1 RES1    0.0000
      3 O3         3.8334   -2.6387    6.9967 O.2       1 RES1    0.0000
      4 N1         0.3906   -0.7779    3.1283 N.3       1 RES1    0.0000
      5 N2         3.2273   -3.6785    6.8790 N.pl3     1 RES1    0.0000
      6 C1         2.5980   -1.3965    2.1822 C.ar      1 RES1    0.0000
      7 C2         3.1771   -0.2927    2.7655 C.ar      1 RES1    0.0000
      8 C3         4.4320    0.2022    2.3078 C.ar      1 RES1    0.0000
      9 C4         5.0712   -0.4153    1.2852 C.ar      1 RES1    0.0000
     10 C5         4.5504   -1.5696    0.6813 C.ar      1 RES1    0.0000
     11 C6         5.2261   -2.2353   -0.3694 C.ar      1 RES1    0.0000
     12 C7         4.7438   -3.3589   -0.9252 C.ar      1 RES1    0.0000
     13 C8         3.5256   -3.9019   -0.4714 C.ar      1 RES1    0.0000
     14 C9         2.8303   -3.2749    0.5289 C.ar      1 RES1    0.0000
     15 C10        3.2898   -2.0897    1.1327 C.ar      1 RES1    0.0000
     16 C11        1.2322   -1.9143    2.6583 C.3       1 RES1    0.0000
     17 C12       -0.7816   -1.1746    3.9413 C.3       1 RES1    0.0000
     18 C13       -1.5321    0.0542    4.4139 C.3       1 RES1    0.0000
     19 C14       -2.0112    0.8927    3.2530 C.3       1 RES1    0.0000
     20 C15       -0.8034    1.2671    2.3922 C.3       1 RES1    0.0000
     21 C16       -0.0489    0.0217    1.9666 C.3       1 RES1    0.0000
     22 C17        1.3909   -3.0121    3.7093 C.ar      1 RES1    0.0000
     23 C18        0.6798   -4.2025    3.5907 C.ar      1 RES1    0.0000
     24 C19        0.7983   -5.1966    4.5371 C.ar      1 RES1    0.0000
     25 C20        1.6142   -5.0282    5.6276 C.ar      1 RES1    0.0000
     26 C21        2.3272   -3.8592    5.7260 C.ar      1 RES1    0.0000
     27 C22        2.2409   -2.8458    4.7941 C.ar      1 RES1    0.0000
     28 H1         0.8679   -2.3006    1.9044 H         1 RES1    0.0000
     29 H2         2.7201   -1.9680    4.9287 H         1 RES1    0.0000
     30 H3         4.7292    0.9732    2.7089 H         1 RES1    0.0000
     31 H4         2.0788   -3.6528    0.8209 H         1 RES1    0.0000
     32 H5        -0.9355    0.6405    4.9721 H         1 RES1    0.0000
     33 H6        -0.4677   -1.7266    4.8197 H         1 RES1    0.0000
     34 H7         5.9453    0.0046    0.9616 H         1 RES1    0.0000
     35 H8        -0.9978    1.7328    1.5479 H         1 RES1    0.0000
     36 H9         5.1450   -3.7596   -1.7004 H         1 RES1    0.0000
     37 H10        0.7172    0.2599    1.4307 H         1 RES1    0.0000
     38 H11       -1.3408   -1.8318    3.4476 H         1 RES1    0.0000
     39 H12       -0.6028   -0.6405    1.4893 H         1 RES1    0.0000
     40 H13        1.6838   -5.6997    6.3207 H         1 RES1    0.0000
     41 H14        0.2079   -4.3490    2.7910 H         1 RES1    0.0000
     42 H15        5.9765   -1.8751   -0.6450 H         1 RES1    0.0000
     43 H16       -2.4322    1.6400    3.5766 H         1 RES1    0.0000
     44 H17        0.3534   -6.0818    4.4092 H         1 RES1    0.0000
     45 H18       -2.2971   -0.2027    4.9956 H         1 RES1    0.0000
     46 H19        3.2429   -4.8070   -0.8209 H         1 RES1    0.0000
     47 H20       -2.5985    0.3760    2.6385 H         1 RES1    0.0000
     48 H21        1.7566    0.1083    3.8698 H         1 RES1    0.0000
     49 H22       -0.2079    1.8411    3.1779 H         1 RES1    0.0000
@<TRIPOS>BOND
     1    1    7 1
     2    2    5 2
     3    3    5 2
     4    4   16 1
     5    5   26 1
     6    6    7 ar
     7    7    8 ar
     8    8    9 ar
     9    9   10 ar
    10   10   11 ar
    11   11   12 ar
    12   12   13 ar
    13   13   14 ar
    14   14   15 ar
    15   15    6 ar
    16   16    6 1
    17   17    4 1
    18   18   17 1
    19   19   18 1
    20   20   19 1
    21   21    4 1
    22   22   16 1
    23   23   22 ar
    24   24   23 ar
    25   25   24 ar
    26   26   25 ar
    27   27   22 ar
    28   28   16 1
    29   29   27 1
    30   30    8 1
    31   31   14 1
    32   32   18 1
    33   33   17 1
    34   34    9 1
    35   35   20 1
    36   36   12 1
    37   37   21 1
    38   38   17 1
    39   39   21 1
    40   40   25 1
    41   41   23 1
    42   42   11 1
    43   43   19 1
    44   44   24 1
    45   45   18 1
    46   46   13 1
    47   47   19 1
    48   48    1 1
    49   49   20 1
    50   10   15 ar
    51   20   21 1
    52   26   27 ar
@<TRIPOS>SUBSTRUCTURE
     1 RES1 1

@<TRIPOS>CRYSIN
  10.3939   15.4715   11.7267  90.0000  90.0000  90.0000  33 1

