# MOL2 file generated by ConQuest
# Please check atom types

@<TRIPOS>MOLECULE
ITASIH
    32    33     1
SMALL
NO_CHARGES
****
Generated from CSD

@<TRIPOS>ATOM
      1 N1         0.4083    7.4569    0.5892 N.pl3     1 RES1    0.0000
      2 O1        -2.4530    7.4511    0.5568 O.3       1 RES1    0.0000
      3 N2        -0.3729    8.5926    0.2314 N.3       1 RES1    0.0000
      4 O2        -1.1257    9.0399   -2.9871 O.2       1 RES1    0.0000
      5 N3         1.3042    5.7194    1.6311 N.2       1 RES1    0.0000
      6 N4        -1.1036   10.1447   -2.4721 N.pl3     1 RES1    0.0000
      7 N5         1.7806    5.8038    0.3604 N.2       1 RES1    0.0000
      8 C1        -2.4524    9.5623   -0.5621 C.ar      1 RES1    0.0000
      9 C2        -2.1109   10.4734   -1.5344 C.ar      1 RES1    0.0000
     10 C3         1.2377    6.8512   -0.2367 C.2       1 RES1    0.0000
     11 C4        -1.7409    8.2329   -0.3055 C.3       1 RES1    0.0000
     12 H1        -1.6351    7.7575   -1.1560 H         1 RES1    0.0000
     13 O3        -0.2953   11.0118   -2.7188 O.2       1 RES1    0.0000
     14 C5        -2.7166   11.7103   -1.7074 C.ar      1 RES1    0.0000
     15 H2        -2.4327   12.2830   -2.3839 H         1 RES1    0.0000
     16 C6         0.4811    6.7197    1.7461 C.2       1 RES1    0.0000
     17 C7         1.4825    7.3296   -1.5934 C.3       1 RES1    0.0000
     18 H3         1.6259    8.2779   -1.5775 H         1 RES1    0.0000
     19 H4         0.7237    7.1296   -2.1453 H         1 RES1    0.0000
     20 H5         2.2603    6.8941   -1.9510 H         1 RES1    0.0000
     21 C8        -4.0651   11.1949    0.0848 C.ar      1 RES1    0.0000
     22 H6        -4.7529   11.4303    0.6663 H         1 RES1    0.0000
     23 C9        -3.4392    9.9649    0.2466 C.ar      1 RES1    0.0000
     24 H7        -3.7144    9.4058    0.9364 H         1 RES1    0.0000
     25 C10       -3.7064   12.0654   -0.8937 C.ar      1 RES1    0.0000
     26 H8        -4.1377   12.8829   -0.9919 H         1 RES1    0.0000
     27 C11       -0.2159    7.0554    2.9592 C.3       1 RES1    0.0000
     28 H9        -0.0587    6.4296    3.5966 H         1 RES1    0.0000
     29 H10       -0.9683    7.4618    2.7889 H         1 RES1    0.0000
     30 H11        0.0920    7.8489    3.3821 H         1 RES1    0.0000
     31 H12       -0.3656    9.1112    0.9490 H         1 RES1    0.0000
     32 H13       -2.3458    6.5479    0.3029 H         1 RES1    0.0000
@<TRIPOS>BOND
     1    1    3 1
     2    2   11 1
     3    3   11 1
     4    4    6 2
     5    5    7 1
     6    6    9 1
     7    7   10 2
     8    8    9 ar
     9    9   14 ar
    10   10    1 1
    11   11    8 1
    12   12   11 1
    13   13    6 2
    14   14   15 1
    15   16    1 1
    16   17   10 1
    17   18   17 1
    18   19   17 1
    19   20   17 1
    20   21   22 1
    21   23    8 ar
    22   24   23 1
    23   25   14 ar
    24   26   25 1
    25   27   16 1
    26   28   27 1
    27   29   27 1
    28   30   27 1
    29   31    3 1
    30   32    2 1
    31    5   16 2
    32   21   23 ar
    33   21   25 ar
@<TRIPOS>SUBSTRUCTURE
     1 RES1 1

@<TRIPOS>CRYSIN
  18.6948   10.7519   15.4220  90.0000 125.0860  90.0000  15 1

