# MOL2 file generated by ConQuest
# Please check atom types

@<TRIPOS>MOLECULE
ITIKAY01
    34    34     1
SMALL
NO_CHARGES
****
Generated from CSD

@<TRIPOS>ATOM
      1 C1        18.6845    2.0158    2.9303 C.ar      1 RES1    0.0000
      2 C2        19.7565    2.5842    3.5872 C.ar      1 RES1    0.0000
      3 H1        19.6194    3.2557    4.2164 H         1 RES1    0.0000
      4 C3        21.0234    2.1461    3.2992 C.ar      1 RES1    0.0000
      5 C4        21.2705    1.1591    2.3937 C.ar      1 RES1    0.0000
      6 H2        22.1376    0.8579    2.2466 H         1 RES1    0.0000
      7 C5        20.2125    0.6115    1.6973 C.ar      1 RES1    0.0000
      8 H3        20.3630   -0.0378    1.0493 H         1 RES1    0.0000
      9 C6        18.9411    1.0313    1.9670 C.ar      1 RES1    0.0000
     10 C7        18.6423   -2.4838   -1.2866 C.3       1 RES1    0.0000
     11 H4        18.8826   -2.8111   -0.4168 H         1 RES1    0.0000
     12 H5        19.2555   -1.7915   -1.5469 H         1 RES1    0.0000
     13 H6        18.6827   -3.2010   -1.9224 H         1 RES1    0.0000
     14 C8        17.2496   -1.9297   -1.2466 C.2       1 RES1    0.0000
     15 C9        16.9171   -0.8801   -0.2537 C.2       1 RES1    0.0000
     16 C10       15.5581   -0.3507   -0.0188 C.2       1 RES1    0.0000
     17 C11       13.2264   -0.5828   -0.4229 C.3       1 RES1    0.0000
     18 H7        12.6087   -1.2882   -0.6757 H         1 RES1    0.0000
     19 H8        13.1073   -0.3807    0.5178 H         1 RES1    0.0000
     20 C12       13.0265    0.6050   -1.2452 C.3       1 RES1    0.0000
     21 H9        13.1545    1.3899   -0.7072 H         1 RES1    0.0000
     22 H10       12.1347    0.6024   -1.5995 H         1 RES1    0.0000
     23 H11       13.6599    0.6037   -1.9665 H         1 RES1    0.0000
     24 N1        17.8161    0.5333    1.3082 N.pl3     1 RES1    0.0000
     25 H12       17.0362    0.8462    1.4905 H         1 RES1    0.0000
     26 N2        17.9547   -0.4238    0.3999 N.2       1 RES1    0.0000
     27 N3        22.1511    2.7420    4.0064 N.pl3     1 RES1    0.0000
     28 O1        16.4139   -2.3482   -2.0159 O.2       1 RES1    0.0000
     29 O2        17.3940    2.3417    3.1432 O.3       1 RES1    0.0000
     30 O3        14.6312   -0.9701   -0.7147 O.3       1 RES1    0.0000
     31 O4        15.3060    0.5215    0.7542 O.2       1 RES1    0.0000
     32 O5        21.9316    3.6495    4.7981 O.2       1 RES1    0.0000
     33 O6        23.2536    2.3026    3.7959 O.2       1 RES1    0.0000
     34 H13       17.2496    3.0953    3.9147 H         1 RES1    0.0000
@<TRIPOS>BOND
     1    1    2 ar
     2    2    3 1
     3    4    2 ar
     4    5    4 ar
     5    6    5 1
     6    7    5 ar
     7    8    7 1
     8    9    1 ar
     9   10   11 1
    10   12   10 1
    11   13   10 1
    12   14   10 1
    13   15   14 1
    14   16   15 1
    15   17   18 1
    16   19   17 1
    17   20   17 1
    18   21   20 1
    19   22   20 1
    20   23   20 1
    21   24    9 1
    22   25   24 1
    23   26   15 2
    24   27    4 1
    25   28   14 2
    26   29    1 1
    27   30   16 1
    28   31   16 2
    29   32   27 2
    30   33   27 2
    31   34   29 1
    32    7    9 ar
    33   17   30 1
    34   24   26 1
@<TRIPOS>SUBSTRUCTURE
     1 RES1 1

@<TRIPOS>CRYSIN
  22.4633   13.0385    4.6990  90.0000  90.0000  90.0000  33 1

