# MOL2 file generated by ConQuest
# Please check atom types

@<TRIPOS>MOLECULE
ITINAA
    31    31     1
SMALL
USER_CHARGES
****
Generated from CSD

@<TRIPOS>ATOM
      1 N1        -2.2510    5.0333    7.6380 N.pl3     1 RES1    0.0000
      2 H1        -2.5741    4.2411    7.7323 H         1 RES1    0.0000
      3 O1        -3.2633    3.0173    6.3062 O.2       1 RES1    0.0000
      4 C1        -1.9842    5.5312    6.3943 C.ar      1 RES1    0.0000
      5 N2        -1.9947    5.8156    8.7343 N.2       1 RES1    0.0000
      6 C2        -1.3518    6.5346    3.8770 C.ar      1 RES1    0.0000
      7 C3        -2.1623    5.2819    9.8962 C.2       1 RES1    0.0000
      8 C4        -2.2550    4.7993    5.2138 C.ar      1 RES1    0.0000
      9 C5        -1.4035    6.8034    6.2404 C.ar      1 RES1    0.0000
     10 H2        -1.2270    7.3145    6.9966 H         1 RES1    0.0000
     11 O2        -1.2336    6.3518    1.5768 O.2       1 RES1    0.0000
     12 N3        -3.7119    3.4854    9.3805 N.2       1 RES1    0.0000
     13 O3        -0.4964    8.1581    2.4845 O.2       1 RES1    0.0000
     14 N4        -3.0558    6.5433   11.8101 N.2       1 RES1    0.0000
     15 N5        -3.9449    2.2777    9.3276 N.1       1 RES1    1.0000
     16 N6        -2.8865    3.4900    5.2294 N.pl3     1 RES1    0.0000
     17 N7        -1.0038    7.0526    2.5510 N.pl3     1 RES1    0.0000
     18 C6        -1.0897    7.3077    5.0094 C.ar      1 RES1    0.0000
     19 H3        -0.7090    8.1525    4.9277 H         1 RES1    0.0000
     20 N8        -3.6893    7.4773   11.3160 N.1       1 RES1    1.0000
     21 O4        -3.0350    2.8968    4.1775 O.2       1 RES1    0.0000
     22 C7        -1.8343    6.1711   11.0671 C.3       1 RES1    0.0000
     23 H4        -1.2239    5.7077   11.6622 H         1 RES1    0.0000
     24 H5        -1.3927    6.9738   10.7498 H         1 RES1    0.0000
     25 C8        -1.9261    5.3076    3.9671 C.ar      1 RES1    0.0000
     26 H6        -2.0972    4.8122    3.1990 H         1 RES1    0.0000
     27 C9        -2.5795    3.8843   10.2064 C.3       1 RES1    0.0000
     28 H7        -1.8357    3.2820   10.0489 H         1 RES1    0.0000
     29 H8        -2.8246    3.8213   11.1429 H         1 RES1    0.0000
     30 N9        -4.2702    1.2165    9.1821 N.2       1 RES1   -1.0000
     31 N10       -4.3539    8.3167   10.9890 N.2       1 RES1   -1.0000
@<TRIPOS>BOND
     1    1    2 1
     2    3   16 2
     3    4    1 1
     4    5    1 1
     5    6   17 1
     6    7    5 2
     7    8    4 ar
     8    9    4 ar
     9   10    9 1
    10   11   17 2
    11   12   15 2
    12   13   17 2
    13   14   20 2
    14   15   30 2
    15   16    8 1
    16   18    6 ar
    17   19   18 1
    18   20   31 2
    19   21   16 2
    20   22    7 1
    21   23   22 1
    22   24   22 1
    23   25    6 ar
    24   26   25 1
    25   27    7 1
    26   28   27 1
    27   29   27 1
    28    8   25 ar
    29    9   18 ar
    30   12   27 1
    31   14   22 1
@<TRIPOS>SUBSTRUCTURE
     1 RES1 1

@<TRIPOS>CRYSIN
   7.5400    8.1888   12.4175 101.7970  92.6850 114.5140   2 1

