# MOL2 file generated by ConQuest
# Please check atom types

@<TRIPOS>MOLECULE
ITOHAC
    32    34     1
SMALL
NO_CHARGES
****
Generated from CSD

@<TRIPOS>ATOM
      1 N1         3.6728    9.1358    5.1775 N.am      1 RES1    0.0000
      2 C1         4.1795    8.2203    4.2927 C.2       1 RES1    0.0000
      3 O1         5.1656    8.3762    3.5889 O.2       1 RES1    0.0000
      4 C2         3.2671    7.0705    4.4243 C.ar      1 RES1    0.0000
      5 C3         3.2742    5.8857    3.7116 C.ar      1 RES1    0.0000
      6 H1         3.9512    5.7060    3.0703 H         1 RES1    0.0000
      7 C4         2.2686    4.9710    3.9592 C.ar      1 RES1    0.0000
      8 H2         2.2517    4.1469    3.4874 H         1 RES1    0.0000
      9 C5         1.2774    5.2526    4.8994 C.ar      1 RES1    0.0000
     10 H3         0.5904    4.6152    5.0511 H         1 RES1    0.0000
     11 C6         1.2684    6.4368    5.6172 C.ar      1 RES1    0.0000
     12 H4         0.5885    6.6140    6.2557 H         1 RES1    0.0000
     13 C7         2.2818    7.3610    5.3784 C.ar      1 RES1    0.0000
     14 C8         2.5318    8.7162    5.9015 C.2       1 RES1    0.0000
     15 O2         4.1421   10.4338    5.2430 O.3       1 RES1    0.0000
     16 C9         5.2471   10.5209    6.1626 C.3       1 RES1    0.0000
     17 H5         4.9583   10.2208    7.0501 H         1 RES1    0.0000
     18 H6         5.5556   11.4502    6.2159 H         1 RES1    0.0000
     19 H7         5.9797    9.9508    5.8477 H         1 RES1    0.0000
     20 C10        1.9199    9.5204    6.7748 C.2       1 RES1    0.0000
     21 H8         2.2629   10.4048    6.8336 H         1 RES1    0.0000
     22 C11        0.7820    9.2125    7.6575 C.ar      1 RES1    0.0000
     23 C12       -0.2439   10.1499    7.8039 C.ar      1 RES1    0.0000
     24 H9        -0.2130   10.9580    7.3065 H         1 RES1    0.0000
     25 C13       -1.3045    9.9190    8.6625 C.ar      1 RES1    0.0000
     26 H10       -2.0023   10.5589    8.7391 H         1 RES1    0.0000
     27 C14       -1.3478    8.7623    9.4055 C.ar      1 RES1    0.0000
     28 H11       -2.0770    8.6020    9.9928 H         1 RES1    0.0000
     29 C15       -0.3289    7.8335    9.2958 C.ar      1 RES1    0.0000
     30 H12       -0.3553    7.0393    9.8161 H         1 RES1    0.0000
     31 C16        0.7306    8.0559    8.4299 C.ar      1 RES1    0.0000
     32 H13        1.4274    7.4132    8.3630 H         1 RES1    0.0000
@<TRIPOS>BOND
     1    1    2 1
     2    2    3 2
     3    4    2 1
     4    5    4 ar
     5    6    5 1
     6    7    5 ar
     7    8    7 1
     8    9    7 ar
     9   10    9 1
    10   11    9 ar
    11   12   11 1
    12   13    4 ar
    13   14    1 1
    14   15    1 1
    15   16   15 1
    16   17   16 1
    17   18   16 1
    18   19   16 1
    19   20   14 2
    20   21   20 1
    21   22   20 1
    22   23   22 ar
    23   24   23 1
    24   25   23 ar
    25   26   25 1
    26   27   25 ar
    27   28   27 1
    28   29   27 ar
    29   30   29 1
    30   31   22 ar
    31   32   31 1
    32   11   13 ar
    33   13   14 1
    34   29   31 ar
@<TRIPOS>SUBSTRUCTURE
     1 RES1 1

@<TRIPOS>CRYSIN
   9.1382   11.9472   11.4848  90.0000  97.0940  90.0000  14 1

