# MOL2 file generated by ConQuest
# Please check atom types

@<TRIPOS>MOLECULE
ITOHEG
    34    36     1
SMALL
NO_CHARGES
****
Generated from CSD

@<TRIPOS>ATOM
      1 N1         8.5174    8.5297    4.8866 N.am      1 RES1    0.0000
      2 C1         9.4871    9.4542    4.7079 C.2       1 RES1    0.0000
      3 O1        10.0293   10.1324    5.5623 O.2       1 RES1    0.0000
      4 C2         9.7209    9.4348    3.2398 C.ar      1 RES1    0.0000
      5 C3        10.6709   10.1227    2.5125 C.ar      1 RES1    0.0000
      6 H1        11.3040   10.6856    2.9415 H         1 RES1    0.0000
      7 C4        10.6701    9.9655    1.1383 C.ar      1 RES1    0.0000
      8 H2        11.3014   10.4370    0.6067 H         1 RES1    0.0000
      9 C5         9.7535    9.1259    0.5377 C.ar      1 RES1    0.0000
     10 H3         9.7526    9.0505   -0.4087 H         1 RES1    0.0000
     11 C6         8.8343    8.3885    1.2700 C.ar      1 RES1    0.0000
     12 H4         8.2321    7.7901    0.8447 H         1 RES1    0.0000
     13 C7         8.8292    8.5602    2.6453 C.ar      1 RES1    0.0000
     14 C8         7.9708    7.9031    3.6905 C.3       1 RES1    0.0000
     15 H5         8.1567    6.9203    3.7102 H         1 RES1    0.0000
     16 O2         7.9138    8.3090    6.1149 O.3       1 RES1    0.0000
     17 C9         8.6604    7.3347    6.8661 C.3       1 RES1    0.0000
     18 H6         8.1533    7.0796    7.6642 H         1 RES1    0.0000
     19 H7         9.5205    7.7201    7.1350 H         1 RES1    0.0000
     20 H8         8.8163    6.5436    6.3103 H         1 RES1    0.0000
     21 C10        6.4606    8.1399    3.5487 C.3       1 RES1    0.0000
     22 H9         6.1291    7.6103    2.7809 H         1 RES1    0.0000
     23 H10        6.0100    7.7997    4.3613 H         1 RES1    0.0000
     24 C11        6.0649    9.5769    3.3474 C.ar      1 RES1    0.0000
     25 C12        5.9741   10.4553    4.4200 C.ar      1 RES1    0.0000
     26 H11        6.1531   10.1410    5.2978 H         1 RES1    0.0000
     27 C13        5.6263   11.7814    4.2295 C.ar      1 RES1    0.0000
     28 H12        5.5697   12.3702    4.9723 H         1 RES1    0.0000
     29 C14        5.3599   12.2475    2.9547 C.ar      1 RES1    0.0000
     30 H13        5.1174   13.1571    2.8224 H         1 RES1    0.0000
     31 C15        5.4455   11.3982    1.8806 C.ar      1 RES1    0.0000
     32 H14        5.2648   11.7158    1.0039 H         1 RES1    0.0000
     33 C16        5.7967   10.0753    2.0823 C.ar      1 RES1    0.0000
     34 H15        5.8559    9.4929    1.3338 H         1 RES1    0.0000
@<TRIPOS>BOND
     1    1    2 1
     2    2    3 2
     3    4    2 1
     4    5    4 ar
     5    6    5 1
     6    7    5 ar
     7    8    7 1
     8    9    7 ar
     9   10    9 1
    10   11    9 ar
    11   12   11 1
    12   13    4 ar
    13   14    1 1
    14   15   14 1
    15   16    1 1
    16   17   16 1
    17   18   17 1
    18   19   17 1
    19   20   17 1
    20   21   14 1
    21   22   21 1
    22   23   21 1
    23   24   21 1
    24   25   24 ar
    25   26   25 1
    26   27   25 ar
    27   28   27 1
    28   29   27 ar
    29   30   29 1
    30   31   29 ar
    31   32   31 1
    32   33   24 ar
    33   34   33 1
    34   11   13 ar
    35   13   14 1
    36   31   33 ar
@<TRIPOS>SUBSTRUCTURE
     1 RES1 1

@<TRIPOS>CRYSIN
   8.5662   10.7642   14.3417  90.0000  90.0000  90.0000  19 1

