# MOL2 file generated by ConQuest
# Please check atom types

@<TRIPOS>MOLECULE
ITUNUI
    56    59     1
SMALL
NO_CHARGES
****
Generated from CSD

@<TRIPOS>ATOM
      1 C1         2.2349    2.4828    7.9539 C.3       1 RES1    0.0000
      2 C2         1.2224    3.5098    7.4573 C.3       1 RES1    0.0000
      3 H1         1.4937    3.8170    6.5555 H         1 RES1    0.0000
      4 H2         0.3379    3.0729    7.3733 H         1 RES1    0.0000
      5 C3         1.0877    4.7193    8.3687 C.3       1 RES1    0.0000
      6 H3         1.9790    5.1639    8.4586 H         1 RES1    0.0000
      7 C4         0.6220    4.2480    9.7401 C.3       1 RES1    0.0000
      8 H4        -0.2751    3.8402    9.6485 H         1 RES1    0.0000
      9 H5         0.5351    5.0342   10.3343 H         1 RES1    0.0000
     10 C5         1.5596    3.2332   10.3994 C.3       1 RES1    0.0000
     11 C6         2.0488    1.1723    7.1908 C.3       1 RES1    0.0000
     12 H6         2.1500    1.3363    6.2294 H         1 RES1    0.0000
     13 H7         1.1536    0.8148    7.3683 H         1 RES1    0.0000
     14 H8         2.7232    0.5245    7.4840 H         1 RES1    0.0000
     15 C7         3.6814    2.9718    7.7708 C.3       1 RES1    0.0000
     16 H9         3.7858    3.8488    8.1960 H         1 RES1    0.0000
     17 H10        3.8827    3.0466    6.8144 H         1 RES1    0.0000
     18 H11        4.2972    2.3327    8.1848 H         1 RES1    0.0000
     19 C8         2.8040    3.9068   10.9967 C.3       1 RES1    0.0000
     20 H12        2.5395    4.4684   11.7544 H         1 RES1    0.0000
     21 H13        3.2348    4.4622   10.3131 H         1 RES1    0.0000
     22 H14        3.4322    3.2196   11.3026 H         1 RES1    0.0000
     23 C9         0.7930    2.4944   11.5036 C.3       1 RES1    0.0000
     24 H15        1.3872    1.8451   11.9361 H         1 RES1    0.0000
     25 H16        0.0272    2.0253   11.1122 H         1 RES1    0.0000
     26 H17        0.4755    3.1405   12.1689 H         1 RES1    0.0000
     27 C10       -0.8768    6.1128    8.2220 C.2       1 RES1    0.0000
     28 C11       -2.2355    7.8630    9.1449 C.3       1 RES1    0.0000
     29 C12       -1.0766    8.8385    8.9126 C.3       1 RES1    0.0000
     30 H18       -0.9205    8.9447    7.9408 H         1 RES1    0.0000
     31 H19       -0.2502    8.4770    9.3199 H         1 RES1    0.0000
     32 C13       -1.4053   10.2023    9.5358 C.3       1 RES1    0.0000
     33 H20       -0.6461   10.8341    9.3796 H         1 RES1    0.0000
     34 C14       -1.6310   10.0328   11.0382 C.3       1 RES1    0.0000
     35 H21       -1.8407   10.9103   11.4457 H         1 RES1    0.0000
     36 H22       -0.8075    9.6842   11.4619 H         1 RES1    0.0000
     37 C15       -2.7916    9.0588   11.2811 C.3       1 RES1    0.0000
     38 H23       -2.9365    8.9458   12.2647 H         1 RES1    0.0000
     39 C16       -2.4600    7.7012   10.6498 C.3       1 RES1    0.0000
     40 H24       -1.6446    7.3289   11.0699 H         1 RES1    0.0000
     41 H25       -3.2053    7.0692   10.8097 H         1 RES1    0.0000
     42 C17       -3.5027    8.4278    8.4971 C.3       1 RES1    0.0000
     43 H26       -4.2560    7.7988    8.6316 H         1 RES1    0.0000
     44 H27       -3.3605    8.5369    7.5239 H         1 RES1    0.0000
     45 C18       -3.8411    9.7827    9.1266 C.3       1 RES1    0.0000
     46 H28       -4.6723   10.1455    8.7063 H         1 RES1    0.0000
     47 C19       -4.0651    9.6162   10.6325 C.3       1 RES1    0.0000
     48 H29       -4.8210    8.9965   10.7923 H         1 RES1    0.0000
     49 H30       -4.2910   10.4915   11.0362 H         1 RES1    0.0000
     50 C20       -2.6818   10.7599    8.8891 C.3       1 RES1    0.0000
     51 H31       -2.9002   11.6409    9.2838 H         1 RES1    0.0000
     52 H32       -2.5398   10.8817    7.9172 H         1 RES1    0.0000
     53 N1         1.9929    2.2029    9.4051 N.3       1 RES1    0.0000
     54 N2         0.1429    5.6550    7.7357 N.2       1 RES1    0.0000
     55 N3        -1.9789    6.5331    8.5434 N.2       1 RES1    0.0000
     56 O1         2.6268    1.1930    9.8978 O.2       1 RES1    0.0000
@<TRIPOS>BOND
     1    1    2 1
     2    2    3 1
     3    4    2 1
     4    5    2 1
     5    6    5 1
     6    7    5 1
     7    8    7 1
     8    9    7 1
     9   10    7 1
    10   11    1 1
    11   12   11 1
    12   13   11 1
    13   14   11 1
    14   15    1 1
    15   16   15 1
    16   17   15 1
    17   18   15 1
    18   19   10 1
    19   20   19 1
    20   21   19 1
    21   22   19 1
    22   23   10 1
    23   24   23 1
    24   25   23 1
    25   26   23 1
    26   27   54 2
    27   28   29 1
    28   29   30 1
    29   31   29 1
    30   32   29 1
    31   33   32 1
    32   34   32 1
    33   35   34 1
    34   36   34 1
    35   37   34 1
    36   38   37 1
    37   39   28 1
    38   40   39 1
    39   41   39 1
    40   42   28 1
    41   43   42 1
    42   44   42 1
    43   45   42 1
    44   46   45 1
    45   47   37 1
    46   48   47 1
    47   49   47 1
    48   50   32 1
    49   51   50 1
    50   52   50 1
    51   53    1 1
    52   54    5 1
    53   55   27 2
    54   56   53 1
    55   10   53 1
    56   28   55 1
    57   37   39 1
    58   45   47 1
    59   45   50 1
@<TRIPOS>SUBSTRUCTURE
     1 RES1 1

@<TRIPOS>CRYSIN
   6.3656   11.7054   12.5920  93.1550  97.5900  98.1210   2 1

