# MOL2 file generated by ConQuest
# Please check atom types

@<TRIPOS>MOLECULE
IVATOP
    39    41     1
SMALL
NO_CHARGES
****
Generated from CSD

@<TRIPOS>ATOM
      1 O1         6.1567    1.9319   -2.2349 O.2       1 RES1    0.0000
      2 O2         7.2823    0.6233   -0.8155 O.3       1 RES1    0.0000
      3 C1         6.8969    1.5522    1.1580 C.2       1 RES1    0.0000
      4 N1         7.5696    0.5922    0.6033 N.2       1 RES1    0.0000
      5 C2         4.0723    5.4533   -2.4006 C.ar      1 RES1    0.0000
      6 H1         4.4524    6.0788   -2.9748 H         1 RES1    0.0000
      7 C3         2.9276    3.6198   -0.6682 C.ar      1 RES1    0.0000
      8 C4         2.7098    5.2125   -2.4838 C.ar      1 RES1    0.0000
      9 C5         2.1606    4.2771   -1.6160 C.ar      1 RES1    0.0000
     10 H2         1.2523    4.0864   -1.6727 H         1 RES1    0.0000
     11 C6         4.8892    4.7978   -1.4945 C.ar      1 RES1    0.0000
     12 C7         7.0337    1.7859    2.6081 C.ar      1 RES1    0.0000
     13 C8         4.3076    3.8688   -0.6196 C.ar      1 RES1    0.0000
     14 C9         5.1121    3.1777    0.4043 C.2       1 RES1    0.0000
     15 H3         4.9109    3.3703    1.2911 H         1 RES1    0.0000
     16 C10        7.0571    3.0784    3.1060 C.ar      1 RES1    0.0000
     17 H4         6.9733    3.7994    2.5254 H         1 RES1    0.0000
     18 C11        2.2851    2.6419    0.2842 C.3       1 RES1    0.0000
     19 H5         1.3341    2.6492    0.1574 H         1 RES1    0.0000
     20 H6         2.4896    2.8941    1.1873 H         1 RES1    0.0000
     21 H7         2.6247    1.7600    0.1137 H         1 RES1    0.0000
     22 C12        6.4605    1.6929   -1.0986 C.2       1 RES1    0.0000
     23 C13        6.1047    2.2998    0.1916 C.2       1 RES1    0.0000
     24 C14        7.1679    0.7186    3.4853 C.ar      1 RES1    0.0000
     25 H8         7.1583   -0.1546    3.1650 H         1 RES1    0.0000
     26 C15        7.2049    3.3010    4.4627 C.ar      1 RES1    0.0000
     27 H9         7.2183    4.1717    4.7896 H         1 RES1    0.0000
     28 C16        6.3594    5.1313   -1.4595 C.3       1 RES1    0.0000
     29 H10        6.8491    4.4722   -1.9580 H         1 RES1    0.0000
     30 H11        6.6648    5.1364   -0.5499 H         1 RES1    0.0000
     31 H12        6.5001    5.9972   -1.8498 H         1 RES1    0.0000
     32 C17        7.3168    0.9597    4.8399 C.ar      1 RES1    0.0000
     33 H13        7.4068    0.2461    5.4292 H         1 RES1    0.0000
     34 C18        1.8564    5.9601   -3.4766 C.3       1 RES1    0.0000
     35 H14        1.6398    6.8271   -3.1235 H         1 RES1    0.0000
     36 H15        1.0472    5.4691   -3.6362 H         1 RES1    0.0000
     37 H16        2.3381    6.0615   -4.3009 H         1 RES1    0.0000
     38 C19        7.3310    2.2522    5.3242 C.ar      1 RES1    0.0000
     39 H17        7.4261    2.4068    6.2360 H         1 RES1    0.0000
@<TRIPOS>BOND
     1    1   22 2
     2    2    4 1
     3    3    4 2
     4    5    6 1
     5    7    9 ar
     6    8    5 ar
     7    9    8 ar
     8   10    9 1
     9   11    5 ar
    10   12    3 1
    11   13    7 ar
    12   14   13 1
    13   15   14 1
    14   16   12 ar
    15   17   16 1
    16   18    7 1
    17   19   18 1
    18   20   18 1
    19   21   18 1
    20   22    2 1
    21   23    3 1
    22   24   12 ar
    23   25   24 1
    24   26   16 ar
    25   27   26 1
    26   28   11 1
    27   29   28 1
    28   30   28 1
    29   31   28 1
    30   32   24 ar
    31   33   32 1
    32   34    8 1
    33   35   34 1
    34   36   34 1
    35   37   34 1
    36   38   26 ar
    37   39   38 1
    38   11   13 ar
    39   14   23 2
    40   22   23 1
    41   32   38 ar
@<TRIPOS>SUBSTRUCTURE
     1 RES1 1

@<TRIPOS>CRYSIN
  11.5631   12.3679   12.1226  90.0000 115.5990  90.0000  14 1

