# MOL2 file generated by ConQuest
# Please check atom types

@<TRIPOS>MOLECULE
IVENUU
    44    46     1
SMALL
NO_CHARGES
****
Generated from CSD

@<TRIPOS>ATOM
      1 N1         5.4887    1.0486    1.8897 N.pl3     1 RES1    0.0000
      2 N2         1.0997    0.6151    1.5162 N.pl3     1 RES1    0.0000
      3 O1         5.6840    2.2454    1.7991 O.2       1 RES1    0.0000
      4 O2         5.2036    0.4895    2.9354 O.2       1 RES1    0.0000
      5 O3         4.2171   -3.9073   -4.2142 O.3       1 RES1    0.0000
      6 C1         5.5841    0.2159    0.6403 C.3       1 RES1    0.0000
      7 C2         4.4102   -0.7334    0.5266 C.3       1 RES1    0.0000
      8 C3         4.4625   -1.5364   -0.7839 C.ar      1 RES1    0.0000
      9 C4         5.4297   -1.4072   -1.7742 C.ar      1 RES1    0.0000
     10 C5         5.3968   -2.1885   -2.9336 C.ar      1 RES1    0.0000
     11 C6         4.3744   -3.0998   -3.1176 C.ar      1 RES1    0.0000
     12 C7         3.3992   -3.2227   -2.1363 C.ar      1 RES1    0.0000
     13 C8         3.4509   -2.4631   -1.0008 C.ar      1 RES1    0.0000
     14 C9         3.0815   -0.0063    0.6717 C.2       1 RES1    0.0000
     15 C10        2.1996   -0.1996    1.6950 C.2       1 RES1    0.0000
     16 C11        2.2634   -1.1182    2.8753 C.3       1 RES1    0.0000
     17 H1         3.0870   -1.6484    2.8334 H         1 RES1    0.0000
     18 H2         1.4892   -1.7179    2.8648 H         1 RES1    0.0000
     19 H3         2.2574   -0.5898    3.7011 H         1 RES1    0.0000
     20 C12       -0.0652    0.7162    2.3831 C.3       1 RES1    0.0000
     21 H4        -0.1772    1.6456    2.6748 H         1 RES1    0.0000
     22 H5         0.0610    0.1409    3.1670 H         1 RES1    0.0000
     23 H6        -0.8633    0.4308    1.8924 H         1 RES1    0.0000
     24 C13        1.2629    1.3295    0.3531 C.ar      1 RES1    0.0000
     25 C14        0.4540    2.2905   -0.2633 C.ar      1 RES1    0.0000
     26 C15        0.9081    2.8560   -1.4556 C.ar      1 RES1    0.0000
     27 C16        2.1239    2.4649   -2.0076 C.ar      1 RES1    0.0000
     28 C17        2.9406    1.5445   -1.4077 C.ar      1 RES1    0.0000
     29 C18        2.5132    0.9628   -0.2020 C.ar      1 RES1    0.0000
     30 C19        5.2096   -3.8287   -5.2359 C.3       1 RES1    0.0000
     31 H7         5.2846   -2.9029   -5.5486 H         1 RES1    0.0000
     32 H8         4.9537   -4.4068   -5.9854 H         1 RES1    0.0000
     33 H9         6.0727   -4.1232   -4.8769 H         1 RES1    0.0000
     34 H10        5.6175    0.8671   -0.1047 H         1 RES1    0.0000
     35 H11        6.4247   -0.1716    0.7181 H         1 RES1    0.0000
     36 H12        4.5132   -1.4180    1.3464 H         1 RES1    0.0000
     37 H13        6.1353   -0.7858   -1.7503 H         1 RES1    0.0000
     38 H14        6.0562   -2.0322   -3.5455 H         1 RES1    0.0000
     39 H15        2.7261   -3.8296   -2.2440 H         1 RES1    0.0000
     40 H16        2.7623   -2.5200   -0.3740 H         1 RES1    0.0000
     41 H17       -0.3055    2.5380    0.2094 H         1 RES1    0.0000
     42 H18        0.3615    3.5045   -1.8550 H         1 RES1    0.0000
     43 H19        2.4196    2.9264   -2.8873 H         1 RES1    0.0000
     44 H20        3.8494    1.2464   -1.8251 H         1 RES1    0.0000
@<TRIPOS>BOND
     1    1    3 2
     2    2   15 1
     3    4    1 2
     4    5   11 1
     5    6    1 1
     6    7    6 1
     7    8    7 1
     8    9    8 ar
     9   10    9 ar
    10   11   10 ar
    11   12   11 ar
    12   13    8 ar
    13   14    7 1
    14   15   14 2
    15   16   15 1
    16   17   16 1
    17   18   16 1
    18   19   16 1
    19   20    2 1
    20   21   20 1
    21   22   20 1
    22   23   20 1
    23   24    2 1
    24   25   24 ar
    25   26   25 ar
    26   27   26 ar
    27   28   27 ar
    28   29   14 1
    29   30    5 1
    30   31   30 1
    31   32   30 1
    32   33   30 1
    33   34    6 1
    34   35    6 1
    35   36    7 1
    36   37    9 1
    37   38   10 1
    38   39   12 1
    39   40   13 1
    40   41   25 1
    41   42   26 1
    42   43   27 1
    43   44   28 1
    44   12   13 ar
    45   24   29 ar
    46   28   29 ar
@<TRIPOS>SUBSTRUCTURE
     1 RES1 1

@<TRIPOS>CRYSIN
  24.5660    9.0321   15.8229  90.0000 109.0110  90.0000  15 1

