# MOL2 file generated by ConQuest
# Please check atom types

@<TRIPOS>MOLECULE
IVEXEO
    59    64     1
SMALL
NO_CHARGES
****
Generated from CSD

@<TRIPOS>ATOM
      1 C1         4.8822    5.5375    1.4684 C.ar      1 RES1    0.0000
      2 C2         3.9769    4.7561    2.1717 C.ar      1 RES1    0.0000
      3 H1         3.6724    5.0122    3.0348 H         1 RES1    0.0000
      4 C3         3.5297    3.5830    1.5692 C.ar      1 RES1    0.0000
      5 C4         3.9380    3.1585    0.3118 C.ar      1 RES1    0.0000
      6 H2         3.6271    2.3355   -0.0468 H         1 RES1    0.0000
      7 C5         4.8089    3.9606   -0.4106 C.ar      1 RES1    0.0000
      8 H3         5.0866    3.7070   -1.2835 H         1 RES1    0.0000
      9 C6         5.2715    5.1455    0.1614 C.ar      1 RES1    0.0000
     10 C7         6.1475    6.1677   -0.3979 C.ar      1 RES1    0.0000
     11 C8         6.7859    6.2474   -1.6380 C.ar      1 RES1    0.0000
     12 H4         6.6788    5.5589   -2.2834 H         1 RES1    0.0000
     13 C9         7.5775    7.3512   -1.9066 C.ar      1 RES1    0.0000
     14 H5         8.0232    7.4201   -2.7424 H         1 RES1    0.0000
     15 C10        7.7251    8.3630   -0.9561 C.ar      1 RES1    0.0000
     16 H6         8.2724    9.1132   -1.1563 H         1 RES1    0.0000
     17 C11        7.0850    8.2954    0.2824 C.ar      1 RES1    0.0000
     18 H7         7.1852    8.9923    0.9210 H         1 RES1    0.0000
     19 C12        6.2970    7.1853    0.5608 C.ar      1 RES1    0.0000
     20 C13        5.5353    6.8328    1.7887 C.2       1 RES1    0.0000
     21 C14        5.5620    7.6322    2.8796 C.2       1 RES1    0.0000
     22 H8         6.0506    8.4372    2.7498 H         1 RES1    0.0000
     23 C15        4.9607    7.4973    4.2830 C.3       1 RES1    0.0000
     24 C16        5.0875    6.0541    4.7994 C.ar      1 RES1    0.0000
     25 C17        6.2852    5.3602    4.5894 C.ar      1 RES1    0.0000
     26 H9         7.0058    5.7918    4.1444 H         1 RES1    0.0000
     27 C18        6.4338    4.0461    5.0237 C.ar      1 RES1    0.0000
     28 H10        7.2500    3.5851    4.8680 H         1 RES1    0.0000
     29 C19        5.3936    3.4074    5.6831 C.ar      1 RES1    0.0000
     30 H11        5.4884    2.5034    5.9615 H         1 RES1    0.0000
     31 C20        4.2115    4.0966    5.9352 C.ar      1 RES1    0.0000
     32 H12        3.5036    3.6694    6.4029 H         1 RES1    0.0000
     33 C21        4.0633    5.4175    5.5005 C.ar      1 RES1    0.0000
     34 H13        3.2570    5.8857    5.6852 H         1 RES1    0.0000
     35 C22        3.4862    7.9691    4.2732 C.ar      1 RES1    0.0000
     36 C23        2.6565    7.7543    3.1718 C.ar      1 RES1    0.0000
     37 H14        3.0028    7.3119    2.4048 H         1 RES1    0.0000
     38 C24        1.3272    8.1790    3.1781 C.ar      1 RES1    0.0000
     39 H15        0.7778    8.0276    2.4179 H         1 RES1    0.0000
     40 C25        0.8034    8.8232    4.2930 C.ar      1 RES1    0.0000
     41 H16       -0.0990    9.1199    4.2964 H         1 RES1    0.0000
     42 C26        1.6151    9.0278    5.4033 C.ar      1 RES1    0.0000
     43 H17        1.2627    9.4600    6.1720 H         1 RES1    0.0000
     44 C27        2.9412    8.6039    5.3947 C.ar      1 RES1    0.0000
     45 H18        3.4841    8.7472    6.1617 H         1 RES1    0.0000
     46 C28        5.7549    8.4507    5.2133 C.ar      1 RES1    0.0000
     47 C29        6.2938    8.0266    6.4294 C.ar      1 RES1    0.0000
     48 H19        6.2018    7.1180    6.6909 H         1 RES1    0.0000
     49 C30        6.9661    8.9203    7.2671 C.ar      1 RES1    0.0000
     50 H20        7.3232    8.6175    8.0943 H         1 RES1    0.0000
     51 C31        7.1140   10.2504    6.8949 C.ar      1 RES1    0.0000
     52 H21        7.5801   10.8562    7.4584 H         1 RES1    0.0000
     53 C32        6.5729   10.6876    5.6878 C.ar      1 RES1    0.0000
     54 H22        6.6693   11.5967    5.4279 H         1 RES1    0.0000
     55 C33        5.8926    9.8009    4.8614 C.ar      1 RES1    0.0000
     56 H23        5.5158   10.1141    4.0479 H         1 RES1    0.0000
     57 N1         2.5391    2.7849    2.2957 N.pl3     1 RES1    0.0000
     58 O1         1.9524    3.3100    3.2431 O.2       1 RES1    0.0000
     59 O2         2.3199    1.6391    1.9058 O.2       1 RES1    0.0000
@<TRIPOS>BOND
     1    1    2 ar
     2    2    3 1
     3    4    2 ar
     4    5    4 ar
     5    6    5 1
     6    7    5 ar
     7    8    7 1
     8    9    1 ar
     9   10    9 1
    10   11   10 ar
    11   12   11 1
    12   13   11 ar
    13   14   13 1
    14   15   13 ar
    15   16   15 1
    16   17   15 ar
    17   18   17 1
    18   19   10 ar
    19   20    1 1
    20   21   20 2
    21   22   21 1
    22   23   21 1
    23   24   23 1
    24   25   24 ar
    25   26   25 1
    26   27   25 ar
    27   28   27 1
    28   29   27 ar
    29   30   29 1
    30   31   29 ar
    31   32   31 1
    32   33   24 ar
    33   34   33 1
    34   35   23 1
    35   36   35 ar
    36   37   36 1
    37   38   36 ar
    38   39   38 1
    39   40   38 ar
    40   41   40 1
    41   42   40 ar
    42   43   42 1
    43   44   35 ar
    44   45   44 1
    45   46   23 1
    46   47   46 ar
    47   48   47 1
    48   49   47 ar
    49   50   49 1
    50   51   49 ar
    51   52   51 1
    52   53   51 ar
    53   54   53 1
    54   55   46 ar
    55   56   55 1
    56   57    4 1
    57   58   57 2
    58   59   57 2
    59    7    9 ar
    60   17   19 ar
    61   19   20 1
    62   31   33 ar
    63   42   44 ar
    64   53   55 ar
@<TRIPOS>SUBSTRUCTURE
     1 RES1 1

@<TRIPOS>CRYSIN
   8.5786    9.7671   15.6403 100.0330 104.2190 106.9520   2 1

