# MOL2 file generated by ConQuest
# Please check atom types

@<TRIPOS>MOLECULE
IVIDIB
    32    33     1
SMALL
NO_CHARGES
****
Generated from CSD

@<TRIPOS>ATOM
      1 C1         0.0709    4.5225    8.0260 C.2       1 RES1    0.0000
      2 C2        -1.8812    4.7358    9.5418 C.ar      1 RES1    0.0000
      3 C3        -0.5801    3.5389    7.3790 C.2       1 RES1    0.0000
      4 C4        -2.6861    5.4618   10.4152 C.ar      1 RES1    0.0000
      5 C5         1.2911    5.1197    7.4533 C.2       1 RES1    0.0000
      6 C6        -0.4025    4.9960    9.3872 C.3       1 RES1    0.0000
      7 C7         0.4263    4.2761   10.4536 C.3       1 RES1    0.0000
      8 C8        -2.4715    3.7262    8.8095 C.ar      1 RES1    0.0000
      9 C9        -4.0293    5.1533   10.5564 C.ar      1 RES1    0.0000
     10 C10       -3.8129    3.4075    8.9361 C.ar      1 RES1    0.0000
     11 C11       -4.5761    4.1269    9.8234 C.ar      1 RES1    0.0000
     12 C12       -0.2360    2.8684    6.0933 C.3       1 RES1    0.0000
     13 C13        3.0867    6.6155    7.8965 C.3       1 RES1    0.0000
     14 O1         0.1947    6.0020   11.9962 O.2       1 RES1    0.0000
     15 O2         1.7351    4.9436    6.3460 O.2       1 RES1    0.0000
     16 O3        -0.1705    4.0134   12.6801 O.2       1 RES1    0.0000
     17 N1         0.1311    4.8041   11.8172 N.pl3     1 RES1    0.0000
     18 O4        -1.7432    3.0028    7.8709 O.3       1 RES1    0.0000
     19 O5         1.8607    5.9689    8.3182 O.3       1 RES1    0.0000
     20 H1         0.6713    3.0191    5.8356 H         1 RES1    0.0000
     21 H2         1.3923    4.4446   10.3234 H         1 RES1    0.0000
     22 H3        -4.1552    2.6271    8.3778 H         1 RES1    0.0000
     23 H4        -4.5077    5.7021   11.1732 H         1 RES1    0.0000
     24 H5        -2.2324    6.1909   10.8887 H         1 RES1    0.0000
     25 H6         0.2759    3.3704   10.5010 H         1 RES1    0.0000
     26 H7        -0.7722    3.2125    5.4312 H         1 RES1    0.0000
     27 H8        -5.5188    3.9355    9.9309 H         1 RES1    0.0000
     28 H9         3.3851    7.0615    8.5698 H         1 RES1    0.0000
     29 H10        2.9384    7.0513    7.1295 H         1 RES1    0.0000
     30 H11        3.7079    5.8803    7.8857 H         1 RES1    0.0000
     31 H12       -0.5369    1.8277    6.1813 H         1 RES1    0.0000
     32 H13       -0.2539    5.9058    9.4604 H         1 RES1    0.0000
@<TRIPOS>BOND
     1    1    3 2
     2    2    4 ar
     3    3   12 1
     4    4    9 ar
     5    5    1 1
     6    6    1 1
     7    7    6 1
     8    8    2 ar
     9    9   11 ar
    10   10    8 ar
    11   11   10 ar
    12   12   20 1
    13   13   19 1
    14   14   17 2
    15   15    5 2
    16   16   17 2
    17   17    7 1
    18   18    3 1
    19   19    5 1
    20   21    7 1
    21   22   10 1
    22   23    9 1
    23   24    4 1
    24   25    7 1
    25   26   12 1
    26   27   11 1
    27   28   13 1
    28   29   13 1
    29   30   13 1
    30   31   12 1
    31   32    6 1
    32    2    6 1
    33    8   18 1
@<TRIPOS>SUBSTRUCTURE
     1 RES1 1

@<TRIPOS>CRYSIN
  10.5097    5.0912   12.5407  90.0000 106.8460  90.0000   4 1

