# MOL2 file generated by ConQuest
# Please check atom types

@<TRIPOS>MOLECULE
IVIDUN
    36    37     1
SMALL
NO_CHARGES
****
Generated from CSD

@<TRIPOS>ATOM
      1 C1         5.6014   -0.6549    2.3864 C.ar      1 RES1    0.0000
      2 C2         4.6538    0.1990    1.8852 C.ar      1 RES1    0.0000
      3 C3         4.4348    0.3454    0.5113 C.ar      1 RES1    0.0000
      4 C4         6.3961   -1.3869    1.5059 C.ar      1 RES1    0.0000
      5 C5         6.1989   -1.2349    0.1483 C.ar      1 RES1    0.0000
      6 C6         5.7271   -0.7653    3.8864 C.3       1 RES1    0.0000
      7 C7         5.2335   -0.3881   -0.3507 C.ar      1 RES1    0.0000
      8 C8         4.4424    1.3472    3.9413 C.2       1 RES1    0.0000
      9 C9         5.3683    0.5667    4.5212 C.2       1 RES1    0.0000
     10 C10        3.2697    1.4453   -1.2431 C.3       1 RES1    0.0000
     11 C11        4.7876   -1.8273    4.4680 C.3       1 RES1    0.0000
     12 C12        6.0079    0.9373    5.7962 C.2       1 RES1    0.0000
     13 C13        7.6321    0.2899    7.3934 C.3       1 RES1    0.0000
     14 O1         3.8991    1.0164    2.7259 O.3       1 RES1    0.0000
     15 O2         6.8983    0.0158    6.1858 O.3       1 RES1    0.0000
     16 O3         4.2078   -3.7257    3.2576 O.2       1 RES1    0.0000
     17 O4         6.1751   -3.6477    4.0907 O.2       1 RES1    0.0000
     18 N1         5.0693   -3.1801    3.9133 N.pl3     1 RES1    0.0000
     19 O5         3.4719    1.2276    0.1475 O.3       1 RES1    0.0000
     20 O6         5.7971    1.9451    6.4371 O.2       1 RES1    0.0000
     21 C14        3.8505    2.6238    4.4204 C.3       1 RES1    0.0000
     22 H1         4.0593    1.8791   -1.5924 H         1 RES1    0.0000
     23 H2         7.0797   -2.0090    1.8163 H         1 RES1    0.0000
     24 H3         2.4021    1.9890   -1.3265 H         1 RES1    0.0000
     25 H4         5.1641   -0.2799   -1.3293 H         1 RES1    0.0000
     26 H5         6.7554   -1.6652   -0.4954 H         1 RES1    0.0000
     27 H6         3.1015    0.5797   -1.6624 H         1 RES1    0.0000
     28 H7         7.0189    0.3998    8.1104 H         1 RES1    0.0000
     29 H8         3.8414    2.6687    5.3398 H         1 RES1    0.0000
     30 H9         2.8633    2.7687    3.9964 H         1 RES1    0.0000
     31 H10        8.3112   -0.3598    7.5003 H         1 RES1    0.0000
     32 H11        8.0882    1.0895    7.3072 H         1 RES1    0.0000
     33 H12        5.0019   -1.9071    5.4321 H         1 RES1    0.0000
     34 H13        3.8262   -1.6292    4.2091 H         1 RES1    0.0000
     35 H14        4.0289    3.3184    3.9517 H         1 RES1    0.0000
     36 H15        6.6540   -1.0395    4.1028 H         1 RES1    0.0000
@<TRIPOS>BOND
     1    1    2 ar
     2    2    3 ar
     3    3    7 ar
     4    4    1 ar
     5    5    4 ar
     6    6    1 1
     7    7    5 ar
     8    8    9 2
     9    9    6 1
    10   10   19 1
    11   11    6 1
    12   12    9 1
    13   13   15 1
    14   14    2 1
    15   15   12 1
    16   16   18 2
    17   17   18 2
    18   18   11 1
    19   19    3 1
    20   20   12 2
    21   21    8 1
    22   22   10 1
    23   23    4 1
    24   24   10 1
    25   25    7 1
    26   26    5 1
    27   27   10 1
    28   28   13 1
    29   29   21 1
    30   30   21 1
    31   31   13 1
    32   32   13 1
    33   33   11 1
    34   34   11 1
    35   35   21 1
    36   36    6 1
    37    8   14 1
@<TRIPOS>SUBSTRUCTURE
     1 RES1 1

@<TRIPOS>CRYSIN
   5.0678    9.9952   27.9862  90.0000  90.0000  90.0000  19 1

