# MOL2 file generated by ConQuest
# Please check atom types

@<TRIPOS>MOLECULE
IVINOR
    62    66     1
SMALL
NO_CHARGES
****
Generated from CSD

@<TRIPOS>ATOM
      1 O1         1.2426    6.0623    9.9146 O.3       1 RES1    0.0000
      2 O2        -0.0511    4.5701    8.8265 O.2       1 RES1    0.0000
      3 O3        -0.3762    2.1253   10.5826 O.3       1 RES1    0.0000
      4 O4         2.4001   -1.7071   10.1444 O.3       1 RES1    0.0000
      5 O5        -2.5615   11.2022    7.4972 O.2       1 RES1    0.0000
      6 O6        -3.8445    9.8046    6.4577 O.2       1 RES1    0.0000
      7 N1        -2.8644   10.0703    7.1441 N.pl3     1 RES1    0.0000
      8 C1         1.8732    4.9433   10.6273 C.3       1 RES1    0.0000
      9 H1         1.9996    4.2327    9.9652 H         1 RES1    0.0000
     10 C2         0.9667    4.5260   11.7691 C.3       1 RES1    0.0000
     11 H2         0.0972    4.3158   11.4267 H         1 RES1    0.0000
     12 H3         0.8576    5.2829   12.3596 H         1 RES1    0.0000
     13 C3         1.5435    3.3415   12.5717 C.3       1 RES1    0.0000
     14 C4         1.6538    2.0360   11.7903 C.ar      1 RES1    0.0000
     15 C5         0.7734    1.4530   10.8673 C.ar      1 RES1    0.0000
     16 C6         1.0864    0.2113   10.3166 C.ar      1 RES1    0.0000
     17 H4         0.5247   -0.2088    9.6938 H         1 RES1    0.0000
     18 C7         2.2365   -0.4731   10.7262 C.ar      1 RES1    0.0000
     19 C8         3.1075    0.0742   11.6642 C.ar      1 RES1    0.0000
     20 H5         3.8799   -0.3560   11.9554 H         1 RES1    0.0000
     21 C9         2.7941    1.3376   12.1688 C.ar      1 RES1    0.0000
     22 C10        3.5723    2.1338   13.1908 C.3       1 RES1    0.0000
     23 H6         3.3815    1.7895   14.0841 H         1 RES1    0.0000
     24 H7         4.5309    2.0932   13.0438 H         1 RES1    0.0000
     25 C11        3.0446    3.5695   12.9706 C.3       1 RES1    0.0000
     26 H8         3.0831    4.1283   13.8071 H         1 RES1    0.0000
     27 C12        3.8796    4.2326   11.8621 C.3       1 RES1    0.0000
     28 H9         4.7414    4.4997   12.2579 H         1 RES1    0.0000
     29 H10        4.1104    3.5599   11.1864 H         1 RES1    0.0000
     30 C13        3.2045    5.4182   11.1678 C.3       1 RES1    0.0000
     31 H11        3.0615    6.1337   11.7801 H         1 RES1    0.0000
     32 H12        3.7684    5.7552   10.4542 H         1 RES1    0.0000
     33 C14        0.2509    5.7071    9.0786 C.2       1 RES1    0.0000
     34 C15       -0.4787    6.8860    8.5096 C.ar      1 RES1    0.0000
     35 C16        0.0129    8.1892    8.5831 C.ar      1 RES1    0.0000
     36 H13        0.8642    8.3445    8.9503 H         1 RES1    0.0000
     37 C17       -0.7598    9.2385    8.1090 C.ar      1 RES1    0.0000
     38 H14       -0.4440   10.1695    8.1248 H         1 RES1    0.0000
     39 C18       -2.0059    8.9536    7.5718 C.ar      1 RES1    0.0000
     40 C19       -2.4965    7.6647    7.4387 C.ar      1 RES1    0.0000
     41 H15       -3.3312    7.5067    7.0534 H         1 RES1    0.0000
     42 C20       -1.7137    6.6241    7.9170 C.ar      1 RES1    0.0000
     43 H16       -2.0375    5.7422    7.8958 H         1 RES1    0.0000
     44 C21        0.7034    3.1521   13.8481 C.ar      1 RES1    0.0000
     45 C22        0.1884    1.9144   14.2198 C.ar      1 RES1    0.0000
     46 H17        0.3446    1.1451   13.6544 H         1 RES1    0.0000
     47 C23       -0.5836    1.7699   15.3701 C.ar      1 RES1    0.0000
     48 H18       -0.9314    0.9137   15.6192 H         1 RES1    0.0000
     49 C24       -0.8480    2.8596   16.1809 C.ar      1 RES1    0.0000
     50 H19       -1.3577    2.7530   16.9818 H         1 RES1    0.0000
     51 C25       -0.2997    4.0907   15.8547 C.ar      1 RES1    0.0000
     52 H20       -0.4616    4.8451   16.4249 H         1 RES1    0.0000
     53 C26        0.4621    4.2387   14.7001 C.ar      1 RES1    0.0000
     54 H21        0.8545    5.1073   14.4884 H         1 RES1    0.0000
     55 C27       -1.1495    1.6679    9.4690 C.3       1 RES1    0.0000
     56 H22       -0.6045    1.5747    8.6959 H         1 RES1    0.0000
     57 H23       -1.5659    0.8354    9.6797 H         1 RES1    0.0000
     58 H24       -1.8194    2.3484    9.3121 H         1 RES1    0.0000
     59 C28        3.4152   -2.5395   10.7002 C.3       1 RES1    0.0000
     60 H25        3.2858   -2.6189   11.6783 H         1 RES1    0.0000
     61 H26        3.3159   -3.3938   10.2451 H         1 RES1    0.0000
     62 H27        4.3011   -2.1834   10.5504 H         1 RES1    0.0000
@<TRIPOS>BOND
     1    1    8 1
     2    2   33 2
     3    3   15 1
     4    4   18 1
     5    5    7 2
     6    6    7 2
     7    7   39 1
     8    8    9 1
     9   10    8 1
    10   11   10 1
    11   12   10 1
    12   13   10 1
    13   14   13 1
    14   15   14 ar
    15   16   15 ar
    16   17   16 1
    17   18   16 ar
    18   19   18 ar
    19   20   19 1
    20   21   14 ar
    21   22   21 1
    22   23   22 1
    23   24   22 1
    24   25   13 1
    25   26   25 1
    26   27   25 1
    27   28   27 1
    28   29   27 1
    29   30    8 1
    30   31   30 1
    31   32   30 1
    32   33    1 1
    33   34   33 1
    34   35   34 ar
    35   36   35 1
    36   37   35 ar
    37   38   37 1
    38   39   37 ar
    39   40   39 ar
    40   41   40 1
    41   42   34 ar
    42   43   42 1
    43   44   13 1
    44   45   44 ar
    45   46   45 1
    46   47   45 ar
    47   48   47 1
    48   49   47 ar
    49   50   49 1
    50   51   49 ar
    51   52   51 1
    52   53   44 ar
    53   54   53 1
    54   55    3 1
    55   56   55 1
    56   57   55 1
    57   58   55 1
    58   59    4 1
    59   60   59 1
    60   61   59 1
    61   62   59 1
    62   19   21 ar
    63   22   25 1
    64   27   30 1
    65   40   42 ar
    66   51   53 ar
@<TRIPOS>SUBSTRUCTURE
     1 RES1 1

@<TRIPOS>CRYSIN
   6.8788   11.8664   28.2929  90.0000  92.3050  90.0000  14 1

