# MOL2 file generated by ConQuest
# Please check atom types

@<TRIPOS>MOLECULE
IVINUX
    62    66     1
SMALL
NO_CHARGES
****
Generated from CSD

@<TRIPOS>ATOM
      1 O1         1.5382    7.3263    5.0173 O.3       1 RES1    0.0000
      2 O2         0.6485    7.5327    7.0835 O.2       1 RES1    0.0000
      3 O3         3.1296    5.3850    2.6994 O.3       1 RES1    0.0000
      4 O4         0.6655    6.7583   -1.1317 O.3       1 RES1    0.0000
      5 O5        -3.4148    3.0977    3.0411 O.2       1 RES1    0.0000
      6 O6        -4.3477    3.2050    4.9892 O.2       1 RES1    0.0000
      7 N1        -3.4686    3.5289    4.1835 N.pl3     1 RES1    0.0000
      8 C1         2.7164    8.0930    5.4453 C.3       1 RES1    0.0000
      9 H1         2.8912    7.8400    6.3777 H         1 RES1    0.0000
     10 C2         3.8929    7.6409    4.5962 C.3       1 RES1    0.0000
     11 H2         3.9248    6.6604    4.5716 H         1 RES1    0.0000
     12 H3         4.6915    7.8896    5.0848 H         1 RES1    0.0000
     13 C3         4.0376    8.2419    3.1780 C.3       1 RES1    0.0000
     14 C4         3.1350    7.6690    2.0826 C.ar      1 RES1    0.0000
     15 C5         2.7050    6.3573    1.8332 C.ar      1 RES1    0.0000
     16 C6         1.8880    6.1006    0.7390 C.ar      1 RES1    0.0000
     17 H4         1.5441    5.2557    0.5865 H         1 RES1    0.0000
     18 C7         1.5302    7.1305   -0.1297 C.ar      1 RES1    0.0000
     19 C8         1.9992    8.4236    0.0525 C.ar      1 RES1    0.0000
     20 H5         1.7513    9.1034   -0.5346 H         1 RES1    0.0000
     21 C9         2.7868    8.6627    1.1749 C.ar      1 RES1    0.0000
     22 C10        3.3777    9.9832    1.6110 C.3       1 RES1    0.0000
     23 H6         4.2195   10.1888    1.1401 H         1 RES1    0.0000
     24 H7         2.7444   10.7512    1.4636 H         1 RES1    0.0000
     25 C11        3.6169    9.7515    3.1067 C.3       1 RES1    0.0000
     26 H8         4.3198   10.2915    3.4834 H         1 RES1    0.0000
     27 C12        2.3340   10.0193    3.8878 C.3       1 RES1    0.0000
     28 H9         1.5907    9.5517    3.4631 H         1 RES1    0.0000
     29 H10        2.1652   11.0204    3.8272 H         1 RES1    0.0000
     30 C13        2.4342    9.5747    5.3382 C.3       1 RES1    0.0000
     31 H11        1.6012    9.8366    5.8444 H         1 RES1    0.0000
     32 H12        3.1645   10.0611    5.7673 H         1 RES1    0.0000
     33 C14        0.6123    7.0866    5.9575 C.2       1 RES1    0.0000
     34 C15       -0.4622    6.1749    5.4601 C.ar      1 RES1    0.0000
     35 C16       -1.4949    5.8344    6.3277 C.ar      1 RES1    0.0000
     36 H13       -1.4854    6.2305    7.1513 H         1 RES1    0.0000
     37 C17       -2.4938    4.9700    5.9188 C.ar      1 RES1    0.0000
     38 H14       -3.1788    4.7024    6.5130 H         1 RES1    0.0000
     39 C18       -2.4332    4.4785    4.6295 C.ar      1 RES1    0.0000
     40 C19       -1.4358    4.8104    3.7364 C.ar      1 RES1    0.0000
     41 H15       -1.4250    4.4633    2.8565 H         1 RES1    0.0000
     42 C20       -0.4310    5.6587    4.1666 C.ar      1 RES1    0.0000
     43 H16        0.2493    5.9229    3.5668 H         1 RES1    0.0000
     44 C21        5.5242    8.1280    2.7725 C.ar      1 RES1    0.0000
     45 C22        5.9639    7.4194    1.6593 C.ar      1 RES1    0.0000
     46 H17        5.3552    6.9624    1.0895 H         1 RES1    0.0000
     47 C23        7.3194    7.3789    1.3281 C.ar      1 RES1    0.0000
     48 H18        7.6214    6.8755    0.5865 H         1 RES1    0.0000
     49 C24        8.2540    8.0329    2.1129 C.ar      1 RES1    0.0000
     50 H19        9.1846    8.0094    1.9022 H         1 RES1    0.0000
     51 C25        7.8322    8.7309    3.2332 C.ar      1 RES1    0.0000
     52 H20        8.4578    9.1638    3.8335 H         1 RES1    0.0000
     53 C26        6.4864    8.7825    3.5487 C.ar      1 RES1    0.0000
     54 H21        6.2098    9.2973    4.2961 H         1 RES1    0.0000
     55 C27        2.7619    4.0414    2.3889 C.3       1 RES1    0.0000
     56 H22        3.1201    3.5135    3.1282 H         1 RES1    0.0000
     57 H23        1.7623    3.9679    2.3901 H         1 RES1    0.0000
     58 H24        3.1731    3.7817    1.5053 H         1 RES1    0.0000
     59 C28        0.3371    7.7764   -2.0840 C.3       1 RES1    0.0000
     60 H25       -0.2196    7.3298   -2.7806 H         1 RES1    0.0000
     61 H26        1.1673    8.1409   -2.5304 H         1 RES1    0.0000
     62 H27       -0.1409    8.5059   -1.6393 H         1 RES1    0.0000
@<TRIPOS>BOND
     1    1    8 1
     2    2   33 2
     3    3   15 1
     4    4   18 1
     5    5    7 2
     6    6    7 2
     7    7   39 1
     8    8    9 1
     9   10    8 1
    10   11   10 1
    11   12   10 1
    12   13   10 1
    13   14   13 1
    14   15   14 ar
    15   16   15 ar
    16   17   16 1
    17   18   16 ar
    18   19   18 ar
    19   20   19 1
    20   21   14 ar
    21   22   21 1
    22   23   22 1
    23   24   22 1
    24   25   13 1
    25   26   25 1
    26   27   25 1
    27   28   27 1
    28   29   27 1
    29   30    8 1
    30   31   30 1
    31   32   30 1
    32   33    1 1
    33   34   33 1
    34   35   34 ar
    35   36   35 1
    36   37   35 ar
    37   38   37 1
    38   39   37 ar
    39   40   39 ar
    40   41   40 1
    41   42   34 ar
    42   43   42 1
    43   44   13 1
    44   45   44 ar
    45   46   45 1
    46   47   45 ar
    47   48   47 1
    48   49   47 ar
    49   50   49 1
    50   51   49 ar
    51   52   51 1
    52   53   44 ar
    53   54   53 1
    54   55    3 1
    55   56   55 1
    56   57   55 1
    57   58   55 1
    58   59    4 1
    59   60   59 1
    60   61   59 1
    61   62   59 1
    62   19   21 ar
    63   22   25 1
    64   27   30 1
    65   40   42 ar
    66   51   53 ar
@<TRIPOS>SUBSTRUCTURE
     1 RES1 1

@<TRIPOS>CRYSIN
   9.2454    9.7345   12.6526  92.6260  90.2090  90.5770   2 1

