# MOL2 file generated by ConQuest
# Please check atom types

@<TRIPOS>MOLECULE
IVUHUE
    48    50     1
SMALL
NO_CHARGES
****
Generated from CSD

@<TRIPOS>ATOM
      1 C1         7.7970   26.1895    4.5639 C.ar      1 RES1    0.0000
      2 C2         8.1445   25.5201    3.4287 C.ar      1 RES1    0.0000
      3 H1         8.5692   25.9871    2.7188 H         1 RES1    0.0000
      4 C3         7.8846   24.1584    3.2983 C.ar      1 RES1    0.0000
      5 C4         7.2260   23.4640    4.3574 C.ar      1 RES1    0.0000
      6 C5         6.8792   24.2275    5.4675 C.ar      1 RES1    0.0000
      7 H2         6.4213   23.7913    6.1761 H         1 RES1    0.0000
      8 C6         7.1545   25.5690    5.6122 C.ar      1 RES1    0.0000
      9 H3         6.9101   26.0455    6.3982 H         1 RES1    0.0000
     10 C7         6.9797   21.9541    4.3404 C.3       1 RES1    0.0000
     11 C8         6.1767   21.4968    5.5708 C.3       1 RES1    0.0000
     12 H4         6.6816   21.7057    6.3853 H         1 RES1    0.0000
     13 H5         6.0224   20.5315    5.5205 H         1 RES1    0.0000
     14 H6         5.3165   21.9619    5.5898 H         1 RES1    0.0000
     15 C9         6.1760   21.4715    3.0836 C.3       1 RES1    0.0000
     16 H7         6.7340   21.6213    2.2799 H         1 RES1    0.0000
     17 H8         6.0281   20.4958    3.1638 H         1 RES1    0.0000
     18 C10        4.8380   22.1400    2.8683 C.ar      1 RES1    0.0000
     19 C11        3.6698   21.5678    3.3554 C.ar      1 RES1    0.0000
     20 H9         3.7153   20.7650    3.8588 H         1 RES1    0.0000
     21 C12        2.4442   22.1565    3.1142 C.ar      1 RES1    0.0000
     22 H10        1.6554   21.7576    3.4600 H         1 RES1    0.0000
     23 C13        2.3524   23.3183    2.3764 C.ar      1 RES1    0.0000
     24 H11        1.5075   23.7134    2.2032 H         1 RES1    0.0000
     25 C14        3.5137   23.9006    1.8934 C.ar      1 RES1    0.0000
     26 H12        3.4663   24.7059    1.3940 H         1 RES1    0.0000
     27 C15        4.7374   23.3138    2.1339 C.ar      1 RES1    0.0000
     28 H13        5.5262   23.7199    1.7915 H         1 RES1    0.0000
     29 C16        8.3273   21.1724    4.3445 C.3       1 RES1    0.0000
     30 H14        8.1273   20.2136    4.2012 H         1 RES1    0.0000
     31 H15        8.8670   21.4819    3.5734 H         1 RES1    0.0000
     32 C17        9.1655   21.3009    5.5877 C.ar      1 RES1    0.0000
     33 C18       10.0056   22.3914    5.7888 C.ar      1 RES1    0.0000
     34 H16       10.0337   23.0874    5.1414 H         1 RES1    0.0000
     35 C19       10.7992   22.4789    6.9166 C.ar      1 RES1    0.0000
     36 H17       11.3670   23.2301    7.0375 H         1 RES1    0.0000
     37 C20       10.7672   21.4802    7.8663 C.ar      1 RES1    0.0000
     38 H18       11.3164   21.5402    8.6394 H         1 RES1    0.0000
     39 C21        9.9385   20.3933    7.6910 C.ar      1 RES1    0.0000
     40 H19        9.9194   19.6979    8.3378 H         1 RES1    0.0000
     41 C22        9.1393   20.3239    6.5721 C.ar      1 RES1    0.0000
     42 H20        8.5505   19.5844    6.4716 H         1 RES1    0.0000
     43 N1         8.1636   27.6030    4.6930 N.pl3     1 RES1    0.0000
     44 N2         8.2419   23.5752    2.0843 N.3       1 RES1    0.0000
     45 O1         7.9041   28.1895    5.7399 O.2       1 RES1    0.0000
     46 O2         8.7307   28.1499    3.7487 O.2       1 RES1    0.0000
     47 H21        8.8277   24.1643    1.5489 H         1 RES1    0.0000
     48 H22        8.4045   22.7955    2.0313 H         1 RES1    0.0000
@<TRIPOS>BOND
     1    1    2 ar
     2    2    3 1
     3    4    2 ar
     4    5    4 ar
     5    6    5 ar
     6    7    6 1
     7    8    1 ar
     8    9    8 1
     9   10    5 1
    10   11   10 1
    11   12   11 1
    12   13   11 1
    13   14   11 1
    14   15   10 1
    15   16   15 1
    16   17   15 1
    17   18   15 1
    18   19   18 ar
    19   20   19 1
    20   21   19 ar
    21   22   21 1
    22   23   21 ar
    23   24   23 1
    24   25   23 ar
    25   26   25 1
    26   27   18 ar
    27   28   27 1
    28   29   10 1
    29   30   29 1
    30   31   29 1
    31   32   29 1
    32   33   32 ar
    33   34   33 1
    34   35   33 ar
    35   36   35 1
    36   37   35 ar
    37   38   37 1
    38   39   37 ar
    39   40   39 1
    40   41   32 ar
    41   42   41 1
    42   43    1 1
    43   44    4 1
    44   45   43 2
    45   46   43 2
    46   47   44 1
    47   48   44 1
    48    6    8 ar
    49   25   27 ar
    50   39   41 ar
@<TRIPOS>SUBSTRUCTURE
     1 RES1 1

@<TRIPOS>CRYSIN
  37.4530   37.4530    6.7936  90.0000  90.0000 120.0000 233 1

