# MOL2 file generated by ConQuest
# Please check atom types

@<TRIPOS>MOLECULE
IWANUP
    50    54     1
SMALL
NO_CHARGES
****
Generated from CSD

@<TRIPOS>ATOM
      1 N1         2.5498    2.5813    5.9499 N.2       1 RES1    0.0000
      2 N2         2.0412    4.1722    7.6423 N.pl3     1 RES1    0.0000
      3 N3         4.6934    5.7149   13.3913 N.pl3     1 RES1    0.0000
      4 O1         4.0987    5.9735   14.4202 O.2       1 RES1    0.0000
      5 O2         5.8817    5.8587   13.2298 O.2       1 RES1    0.0000
      6 C1         2.5073    3.7073    5.0676 C.ar      1 RES1    0.0000
      7 C2         2.9343    3.4821    3.7507 C.ar      1 RES1    0.0000
      8 H1         3.2099    2.6308    3.4976 H         1 RES1    0.0000
      9 C3         2.9506    4.5034    2.8240 C.ar      1 RES1    0.0000
     10 H2         3.2458    4.3436    1.9569 H         1 RES1    0.0000
     11 C4         2.5324    5.7440    3.1882 C.ar      1 RES1    0.0000
     12 H3         2.5291    6.4326    2.5618 H         1 RES1    0.0000
     13 C5         2.1120    5.9909    4.4797 C.ar      1 RES1    0.0000
     14 H4         1.8407    6.8495    4.7152 H         1 RES1    0.0000
     15 C6         2.0847    4.9828    5.4305 C.ar      1 RES1    0.0000
     16 C7         1.5652    5.2791    6.8164 C.3       1 RES1    0.0000
     17 H5         1.9518    6.1202    7.1400 H         1 RES1    0.0000
     18 C8         2.3037    2.9301    7.1395 C.2       1 RES1    0.0000
     19 C9         2.0934    2.2401    8.4874 C.3       1 RES1    0.0000
     20 C10        1.6697    3.7189    8.9840 C.3       1 RES1    0.0000
     21 H6         0.7014    3.7843    9.1254 H         1 RES1    0.0000
     22 C11        2.4300    4.3407   10.1176 C.ar      1 RES1    0.0000
     23 C12        3.7381    4.7576    9.9469 C.ar      1 RES1    0.0000
     24 H7         4.1259    4.7227    9.1021 H         1 RES1    0.0000
     25 C13        4.4755    5.2268   11.0177 C.ar      1 RES1    0.0000
     26 H8         5.3567    5.5057   10.9065 H         1 RES1    0.0000
     27 C14        3.8710    5.2689   12.2461 C.ar      1 RES1    0.0000
     28 C15        2.5825    4.8898   12.4511 C.ar      1 RES1    0.0000
     29 H9         2.1991    4.9435   13.2978 H         1 RES1    0.0000
     30 C16        1.8549    4.4206   11.3690 C.ar      1 RES1    0.0000
     31 H10        0.9705    4.1562   11.4882 H         1 RES1    0.0000
     32 C17        0.0359    5.3735    6.8448 C.3       1 RES1    0.0000
     33 H11       -0.2483    6.1246    6.3180 H         1 RES1    0.0000
     34 H12       -0.2603    5.4854    7.7501 H         1 RES1    0.0000
     35 H13       -0.3409    4.5687    6.4834 H         1 RES1    0.0000
     36 C18        0.9073    1.2755    8.4416 C.3       1 RES1    0.0000
     37 H14        0.1656    1.7011    8.0086 H         1 RES1    0.0000
     38 H15        0.6590    1.0314    9.3374 H         1 RES1    0.0000
     39 H16        1.1546    0.4867    7.9518 H         1 RES1    0.0000
     40 C19        3.3068    1.6604    9.1714 C.ar      1 RES1    0.0000
     41 C20        4.5180    1.5660    8.5489 C.ar      1 RES1    0.0000
     42 H17        4.6040    1.8420    7.6648 H         1 RES1    0.0000
     43 C21        5.6192    1.0605    9.2179 C.ar      1 RES1    0.0000
     44 H18        6.4317    0.9748    8.7738 H         1 RES1    0.0000
     45 C22        5.5146    0.6857   10.5423 C.ar      1 RES1    0.0000
     46 H19        6.2607    0.3762   11.0022 H         1 RES1    0.0000
     47 C23        4.2925    0.7714   11.1754 C.ar      1 RES1    0.0000
     48 H20        4.2119    0.5114   12.0647 H         1 RES1    0.0000
     49 C24        3.1914    1.2421   10.4945 C.ar      1 RES1    0.0000
     50 H21        2.3657    1.2784   10.9220 H         1 RES1    0.0000
@<TRIPOS>BOND
     1    1    6 1
     2    2   16 1
     3    3    4 2
     4    5    3 2
     5    6    7 ar
     6    7    8 1
     7    9    7 ar
     8   10    9 1
     9   11    9 ar
    10   12   11 1
    11   13   11 ar
    12   14   13 1
    13   15    6 ar
    14   16   15 1
    15   17   16 1
    16   18    1 2
    17   19   18 1
    18   20    2 1
    19   21   20 1
    20   22   20 1
    21   23   22 ar
    22   24   23 1
    23   25   23 ar
    24   26   25 1
    25   27    3 1
    26   28   27 ar
    27   29   28 1
    28   30   22 ar
    29   31   30 1
    30   32   16 1
    31   33   32 1
    32   34   32 1
    33   35   32 1
    34   36   19 1
    35   37   36 1
    36   38   36 1
    37   39   36 1
    38   40   19 1
    39   41   40 ar
    40   42   41 1
    41   43   41 ar
    42   44   43 1
    43   45   43 ar
    44   46   45 1
    45   47   45 ar
    46   48   47 1
    47   49   40 ar
    48   50   49 1
    49    2   18 1
    50   13   15 ar
    51   19   20 1
    52   25   27 ar
    53   28   30 ar
    54   47   49 ar
@<TRIPOS>SUBSTRUCTURE
     1 RES1 1

@<TRIPOS>CRYSIN
  10.8920   14.5270   25.8510  90.0000  90.0000  90.0000  61 1

