# MOL2 file generated by ConQuest
# Please check atom types

@<TRIPOS>MOLECULE
IWATOR
    30    31     1
SMALL
USER_CHARGES
****
Generated from CSD

@<TRIPOS>ATOM
      1 O1         5.3176    3.6079    2.3449 O.3       1 RES1    0.0000
      2 O2        10.5902    2.9937    1.0581 O.2       1 RES1   -1.0000
      3 N1         9.9696    6.3855    1.8806 N.pl3     1 RES1    1.0000
      4 O3        10.3389    7.6111    2.0488 O.2       1 RES1   -1.0000
      5 C1         6.5325    4.2230    2.1874 C.2       1 RES1    0.0000
      6 N2        10.0939    4.1384    1.4042 N.pl3     1 RES1    1.0000
      7 C2         8.7627    5.8434    2.0185 C.2       1 RES1    0.0000
      8 C3         8.8256    4.4449    1.7216 C.2       1 RES1    0.0000
      9 C4         7.6860    3.6137    1.8064 C.2       1 RES1    0.0000
     10 H1         7.7234    2.6852    1.6095 H         1 RES1    0.0000
     11 C5         6.4497    5.6490    2.4661 C.2       1 RES1    0.0000
     12 H2         5.6107    6.0233    2.7070 H         1 RES1    0.0000
     13 C6        10.9680    5.3415    1.5057 C.3       1 RES1    0.0000
     14 C7         5.3164    2.1673    2.2601 C.3       1 RES1    0.0000
     15 H3         6.0009    1.7887    2.8683 H         1 RES1    0.0000
     16 H4         5.5256    1.8787    1.3361 H         1 RES1    0.0000
     17 C8        11.9617    5.1819    2.6320 C.3       1 RES1    0.0000
     18 H5        12.4153    6.0364    2.7903 H         1 RES1    0.0000
     19 H6        12.6224    4.5001    2.3911 H         1 RES1    0.0000
     20 H7        11.4902    4.9063    3.4462 H         1 RES1    0.0000
     21 C9        11.5682    5.6664    0.1530 C.3       1 RES1    0.0000
     22 H8        10.8495    5.8028   -0.4991 H         1 RES1    0.0000
     23 H9        12.1368    4.9237   -0.1386 H         1 RES1    0.0000
     24 H10       12.1060    6.4832    0.2219 H         1 RES1    0.0000
     25 C10        7.5320    6.4571    2.3919 C.2       1 RES1    0.0000
     26 H11        7.4735    7.3870    2.5797 H         1 RES1    0.0000
     27 C11        3.9427    1.6843    2.6578 C.3       1 RES1    0.0000
     28 H12        3.7426    1.9831    3.5697 H         1 RES1    0.0000
     29 H13        3.9176    0.7050    2.6214 H         1 RES1    0.0000
     30 H14        3.2760    2.0513    2.0405 H         1 RES1    0.0000
@<TRIPOS>BOND
     1    1    5 1
     2    2    6 1
     3    3    4 1
     4    5    9 2
     5    6    8 2
     6    7    3 2
     7    8    7 1
     8    9    8 1
     9   10    9 1
    10   11    5 1
    11   12   11 1
    12   13    3 1
    13   14    1 1
    14   15   14 1
    15   16   14 1
    16   17   13 1
    17   18   17 1
    18   19   17 1
    19   20   17 1
    20   21   13 1
    21   22   21 1
    22   23   21 1
    23   24   21 1
    24   25    7 1
    25   26   25 1
    26   27   14 1
    27   28   27 1
    28   29   27 1
    29   30   27 1
    30    6   13 1
    31   11   25 2
@<TRIPOS>SUBSTRUCTURE
     1 RES1 1

@<TRIPOS>CRYSIN
   9.7420   14.5070    8.0320  90.0000 109.4400  90.0000  14 1

