# MOL2 file generated by ConQuest
# Please check atom types

@<TRIPOS>MOLECULE
IWAVEJ
    33    35     1
SMALL
USER_CHARGES
****
Generated from CSD

@<TRIPOS>ATOM
      1 N1         9.6185    1.6412   -1.4820 N.pl3     1 RES1    1.0000
      2 O1         9.7157    2.2466   -2.6070 O.2       1 RES1   -1.0000
      3 O2         7.8735   -0.1456    1.0282 O.2       1 RES1   -1.0000
      4 C1        11.8738    1.9879   -0.4854 C.2       1 RES1    0.0000
      5 H1        12.2634    2.4324   -1.2290 H         1 RES1    0.0000
      6 C2        12.8321    1.0034    3.0441 C.ar      1 RES1    0.0000
      7 C3        12.6908   -0.0793    3.9221 C.ar      1 RES1    0.0000
      8 H2        12.1054   -0.7930    3.6986 H         1 RES1    0.0000
      9 C4        10.7381    0.6066    1.7622 C.2       1 RES1    0.0000
     10 H3        10.3693    0.1391    2.5022 H         1 RES1    0.0000
     11 C5        12.0188    1.1014    1.8056 C.2       1 RES1    0.0000
     12 C6        13.7333    2.0243    3.3844 C.ar      1 RES1    0.0000
     13 H4        13.8604    2.7557    2.7912 H         1 RES1    0.0000
     14 N2         8.7177    0.4906    0.3007 N.pl3     1 RES1    1.0000
     15 C7        12.5753    1.7796    0.6567 C.2       1 RES1    0.0000
     16 H5        13.4708    2.0934    0.7038 H         1 RES1    0.0000
     17 C8         9.9866    0.8133    0.5831 C.2       1 RES1    0.0000
     18 C9         8.3396    1.0121   -1.0464 C.3       1 RES1    0.0000
     19 C10       13.3985   -0.1188    5.1168 C.ar      1 RES1    0.0000
     20 H6        13.2889   -0.8537    5.7082 H         1 RES1    0.0000
     21 C11       14.4404    1.9763    4.5781 C.ar      1 RES1    0.0000
     22 H7        15.0460    2.6741    4.7980 H         1 RES1    0.0000
     23 C12       10.5403    1.5195   -0.5282 C.2       1 RES1    0.0000
     24 C13       14.2659    0.9139    5.4487 C.ar      1 RES1    0.0000
     25 H8        14.7394    0.8914    6.2719 H         1 RES1    0.0000
     26 C14        7.2677    2.0751   -0.9084 C.3       1 RES1    0.0000
     27 H9         6.4314    1.6593   -0.6107 H         1 RES1    0.0000
     28 H10        7.1260    2.5098   -1.7754 H         1 RES1    0.0000
     29 H11        7.5534    2.7431   -0.2506 H         1 RES1    0.0000
     30 C15        7.9769   -0.1271   -1.9751 C.3       1 RES1    0.0000
     31 H12        8.6847   -0.8045   -1.9520 H         1 RES1    0.0000
     32 H13        7.8812    0.2145   -2.8892 H         1 RES1    0.0000
     33 H14        7.1314   -0.5273   -1.6861 H         1 RES1    0.0000
@<TRIPOS>BOND
     1    1    2 1
     2    3   14 1
     3    4    5 1
     4    6    7 ar
     5    7    8 1
     6    9   10 1
     7   11    6 1
     8   12    6 ar
     9   13   12 1
    10   14   17 2
    11   15    4 2
    12   16   15 1
    13   17    9 1
    14   18    1 1
    15   19    7 ar
    16   20   19 1
    17   21   12 ar
    18   22   21 1
    19   23    1 2
    20   24   19 ar
    21   25   24 1
    22   26   18 1
    23   27   26 1
    24   28   26 1
    25   29   26 1
    26   30   18 1
    27   31   30 1
    28   32   30 1
    29   33   30 1
    30    4   23 1
    31    9   11 2
    32   11   15 1
    33   14   18 1
    34   17   23 1
    35   21   24 ar
@<TRIPOS>SUBSTRUCTURE
     1 RES1 1

@<TRIPOS>CRYSIN
  12.3330   10.4620   10.0600  90.0000 107.3600  90.0000  14 1

