# MOL2 file generated by ConQuest
# Please check atom types

@<TRIPOS>MOLECULE
IWAVIN
    35    37     1
SMALL
USER_CHARGES
****
Generated from CSD

@<TRIPOS>ATOM
      1 O1         3.6292   -4.3734    6.9000 O.2       1 RES1    0.0000
      2 O2         5.8140    0.2082    2.3062 O.2       1 RES1   -1.0000
      3 O3         1.4730   -4.0732    6.3599 O.3       1 RES1    0.0000
      4 H1         1.3933   -4.8258    6.7249 H         1 RES1    0.0000
      5 O4         1.9389    2.4203    3.8582 O.2       1 RES1   -1.0000
      6 O5         1.6871    2.8778   -2.6630 O.2       1 RES1    0.0000
      7 N1         2.7930    1.9012    3.0786 N.pl3     1 RES1    1.0000
      8 N2         4.6955    0.8312    2.3221 N.pl3     1 RES1    1.0000
      9 C1         3.0175   -2.4444    5.6580 C.ar      1 RES1    0.0000
     10 N3         1.3032    2.8828   -1.5110 N.pl3     1 RES1    0.0000
     11 C2         2.0303   -1.7610    4.9699 C.ar      1 RES1    0.0000
     12 H2         1.1474   -2.1101    4.9387 H         1 RES1    0.0000
     13 O6         0.2453    3.3572   -1.1237 O.2       1 RES1    0.0000
     14 C3         3.6250   -0.0618    4.3584 C.ar      1 RES1    0.0000
     15 C4         4.6067   -0.7535    5.0664 C.ar      1 RES1    0.0000
     16 H3         5.4862   -0.3984    5.1203 H         1 RES1    0.0000
     17 C5         2.7391   -3.7180    6.3589 C.2       1 RES1    0.0000
     18 C6         3.9935    1.2566    1.2769 C.2       1 RES1    0.0000
     19 C7         2.8076    1.8953    1.7394 C.2       1 RES1    0.0000
     20 C8         1.8616    2.4255    0.8314 C.2       1 RES1    0.0000
     21 H4         1.0492    2.8277    1.1151 H         1 RES1    0.0000
     22 C9         3.4090    1.7329   -0.9690 C.2       1 RES1    0.0000
     23 H5         3.5897    1.7256   -1.9011 H         1 RES1    0.0000
     24 C10        2.3240   -0.5706    4.3244 C.ar      1 RES1    0.0000
     25 H6         1.6421   -0.1013    3.8590 H         1 RES1    0.0000
     26 C11        4.3141   -1.9436    5.6892 C.ar      1 RES1    0.0000
     27 H7         4.9983   -2.4244    6.1390 H         1 RES1    0.0000
     28 C12        2.2101    2.3134   -0.4866 C.2       1 RES1    0.0000
     29 C13        4.0084    1.1940    3.6164 C.3       1 RES1    0.0000
     30 C14        4.3019    1.1867   -0.1022 C.2       1 RES1    0.0000
     31 H8         5.1007    0.7748   -0.4100 H         1 RES1    0.0000
     32 C15        4.8638    2.1856    4.3740 C.3       1 RES1    0.0000
     33 H9         5.7038    1.7562    4.6407 H         1 RES1    0.0000
     34 H10        4.3832    2.4867    5.1742 H         1 RES1    0.0000
     35 H11        5.0575    2.9559    3.8008 H         1 RES1    0.0000
@<TRIPOS>BOND
     1    1   17 2
     2    2    8 1
     3    3    4 1
     4    5    7 1
     5    6   10 2
     6    7   19 2
     7    8   18 2
     8    9   11 ar
     9   10   13 2
    10   11   12 1
    11   14   15 ar
    12   15   16 1
    13   17    3 1
    14   18   19 1
    15   19   20 1
    16   20   21 1
    17   22   23 1
    18   24   11 ar
    19   25   24 1
    20   26    9 ar
    21   27   26 1
    22   28   10 1
    23   29    7 1
    24   30   18 1
    25   31   30 1
    26   32   29 1
    27   33   32 1
    28   34   32 1
    29   35   32 1
    30    8   29 1
    31    9   17 1
    32   14   24 ar
    33   14   29 1
    34   15   26 ar
    35   20   28 2
    36   22   28 1
    37   22   30 2
@<TRIPOS>SUBSTRUCTURE
     1 RES1 1

@<TRIPOS>CRYSIN
   6.0984    7.8530   14.6479 101.3734  97.6475  95.2031   2 1

