# MOL2 file generated by ConQuest
# Please check atom types

@<TRIPOS>MOLECULE
IWEGUM
    51    53     1
SMALL
NO_CHARGES
****
Generated from CSD

@<TRIPOS>ATOM
      1 O1         3.3615    2.2531   10.2369 O.3       1 RES1    0.0000
      2 O2         3.1605   -3.4942    5.1254 O.3       1 RES1    0.0000
      3 N1         3.6515   -2.6599    6.1483 N.2       1 RES1    0.0000
      4 N2        -1.3951   -6.5154   -0.0668 N.1       1 RES1    0.0000
      5 C1        -0.6172   -4.0090    2.2208 C.ar      1 RES1    0.0000
      6 C2         1.9313    0.2298    7.6240 C.ar      1 RES1    0.0000
      7 C3         1.9180   -3.1035    4.8169 C.2       1 RES1    0.0000
      8 C4         2.6931   -1.8064    6.4045 C.2       1 RES1    0.0000
      9 C5         5.6003    3.6995   12.8577 C.3       1 RES1    0.0000
     10 C6         2.8890   -0.7612    7.4238 C.ar      1 RES1    0.0000
     11 C7         4.5465    2.3464   11.0392 C.3       1 RES1    0.0000
     12 C8         4.2365    0.2566    9.1557 C.ar      1 RES1    0.0000
     13 C9         4.0352   -0.7168    8.1923 C.ar      1 RES1    0.0000
     14 C10        4.4198    3.5580   11.9214 C.3       1 RES1    0.0000
     15 C11        0.0470   -3.3383    3.2275 C.ar      1 RES1    0.0000
     16 C12        1.7595   -5.0232    3.2383 C.ar      1 RES1    0.0000
     17 C13       -0.0976   -5.2002    1.7373 C.ar      1 RES1    0.0000
     18 C14       -0.8194   -5.9261    0.7198 C.1       1 RES1    0.0000
     19 C15        2.1130    1.2061    8.5622 C.ar      1 RES1    0.0000
     20 C16        1.2397   -3.8355    3.7453 C.ar      1 RES1    0.0000
     21 C17        1.0959   -5.7044    2.2407 C.ar      1 RES1    0.0000
     22 C18        1.5689   -2.0564    5.5908 C.2       1 RES1    0.0000
     23 C19        5.5218    4.9148   13.7615 C.3       1 RES1    0.0000
     24 C20        6.7262    5.0617   14.6690 C.3       1 RES1    0.0000
     25 C21        6.6713    6.2314   15.6396 C.3       1 RES1    0.0000
     26 C22        7.8838    6.3012   16.5452 C.3       1 RES1    0.0000
     27 C23        3.2603    1.2326    9.3379 C.ar      1 RES1    0.0000
     28 H1         1.4194    1.8803    8.6957 H         1 RES1    0.0000
     29 H2         1.1552    0.2147    7.0540 H         1 RES1    0.0000
     30 H3         5.0503    0.2876    9.6879 H         1 RES1    0.0000
     31 H4         4.6740   -1.3751    8.0823 H         1 RES1    0.0000
     32 H5         2.7252   -5.4008    3.5540 H         1 RES1    0.0000
     33 H6         1.5874   -6.5358    1.8221 H         1 RES1    0.0000
     34 H7        -0.3987   -2.5199    3.5360 H         1 RES1    0.0000
     35 H8        -1.4784   -3.6721    1.8943 H         1 RES1    0.0000
     36 H9         5.8321    6.1528   16.2187 H         1 RES1    0.0000
     37 H10        6.3580    7.0815   15.1001 H         1 RES1    0.0000
     38 H11        6.8570    4.1802   15.2264 H         1 RES1    0.0000
     39 H12        7.5667    5.1960   14.1079 H         1 RES1    0.0000
     40 H13        4.6471    4.8901   14.3424 H         1 RES1    0.0000
     41 H14        5.3843    5.7447   13.2059 H         1 RES1    0.0000
     42 H15        5.6752    2.8587   13.4043 H         1 RES1    0.0000
     43 H16        6.4330    3.7549   12.3038 H         1 RES1    0.0000
     44 H17        4.2884    4.3657   11.3296 H         1 RES1    0.0000
     45 H18        3.5489    3.4951   12.4481 H         1 RES1    0.0000
     46 H19        4.6161    1.5179   11.5822 H         1 RES1    0.0000
     47 H20        5.2998    2.4215   10.3915 H         1 RES1    0.0000
     48 H21        0.7370   -1.5461    5.5566 H         1 RES1    0.0000
     49 H22        7.9070    5.4235   17.1027 H         1 RES1    0.0000
     50 H23        8.6672    6.4138   15.9661 H         1 RES1    0.0000
     51 H24        7.7278    7.0837   17.0846 H         1 RES1    0.0000
@<TRIPOS>BOND
     1    1   11 1
     2    2    3 1
     3    3    8 2
     4    4   18 3
     5    5   15 ar
     6    6   10 ar
     7    7    2 1
     8    8   10 1
     9    9   14 1
    10   10   13 ar
    11   11   14 1
    12   12   13 ar
    13   13   31 1
    14   14   44 1
    15   15   20 ar
    16   16   20 ar
    17   17    5 ar
    18   18   17 1
    19   19    6 ar
    20   20    7 1
    21   21   16 ar
    22   22    7 2
    23   23    9 1
    24   24   23 1
    25   25   24 1
    26   26   25 1
    27   27    1 1
    28   28   19 1
    29   29    6 1
    30   30   12 1
    31   32   16 1
    32   33   21 1
    33   34   15 1
    34   35    5 1
    35   36   25 1
    36   37   25 1
    37   38   24 1
    38   39   24 1
    39   40   23 1
    40   41   23 1
    41   42    9 1
    42   43    9 1
    43   45   14 1
    44   46   11 1
    45   47   11 1
    46   48   22 1
    47   49   26 1
    48   50   26 1
    49   51   26 1
    50    8   22 1
    51   12   27 ar
    52   17   21 ar
    53   19   27 ar
@<TRIPOS>SUBSTRUCTURE
     1 RES1 1

@<TRIPOS>CRYSIN
   5.7310    9.7650   18.3870 100.2350  93.0320  97.1820   2 1

