# MOL2 file generated by ConQuest
# Please check atom types

@<TRIPOS>MOLECULE
IWELEB
    32    32     1
SMALL
NO_CHARGES
****
Generated from CSD

@<TRIPOS>ATOM
      1 O1         1.8089   11.1316    9.0418 O.2       1 RES1    0.0000
      2 O2         1.3073    9.8193    7.3948 O.2       1 RES1    0.0000
      3 O3         4.2867    4.5575    9.1588 O.2       1 RES1    0.0000
      4 O4         4.2856    5.4379    6.1605 O.2       1 RES1    0.0000
      5 O5         3.0274    4.3159    4.6834 O.3       1 RES1    0.0000
      6 O6        -0.1035    4.4607    8.5113 O.2       1 RES1    0.0000
      7 O7         1.2844    4.9686   10.2068 O.3       1 RES1    0.0000
      8 N1         1.9313   10.0813    8.4081 N.pl3     1 RES1    0.0000
      9 C1         2.9038    9.0968    8.9187 C.ar      1 RES1    0.0000
     10 C2         2.7353    7.7687    8.5520 C.ar      1 RES1    0.0000
     11 H1         2.0268    7.5067    7.9764 H         1 RES1    0.0000
     12 C3         3.6362    6.8354    9.0539 C.ar      1 RES1    0.0000
     13 C4         4.6764    7.2509    9.8722 C.ar      1 RES1    0.0000
     14 H2         5.3005    6.6124   10.1972 H         1 RES1    0.0000
     15 C5         4.8157    8.5863   10.2215 C.ar      1 RES1    0.0000
     16 H3         5.5322    8.8580   10.7832 H         1 RES1    0.0000
     17 C6         3.9112    9.5220    9.7534 C.ar      1 RES1    0.0000
     18 H4         3.9845   10.4359   10.0013 H         1 RES1    0.0000
     19 C7         3.4823    5.3757    8.7670 C.2       1 RES1    0.0000
     20 C8         2.2106    4.9225    8.0813 C.2       1 RES1    0.0000
     21 C9         2.1247    4.6483    6.7906 C.2       1 RES1    0.0000
     22 H5         1.3066    4.3120    6.4448 H         1 RES1    0.0000
     23 C10        3.2671    4.8469    5.8675 C.2       1 RES1    0.0000
     24 C11        4.0715    4.5155    3.6987 C.3       1 RES1    0.0000
     25 H6         4.1660    5.4720    3.5115 H         1 RES1    0.0000
     26 H7         3.8369    4.0415    2.8726 H         1 RES1    0.0000
     27 H8         4.9194    4.1658    4.0454 H         1 RES1    0.0000
     28 C12        0.9877    4.7409    8.9282 C.2       1 RES1    0.0000
     29 C13        0.1639    4.9322   11.1221 C.3       1 RES1    0.0000
     30 H9        -0.4816    5.6279   10.8759 H         1 RES1    0.0000
     31 H10        0.4836    5.0918   12.0349 H         1 RES1    0.0000
     32 H11       -0.2688    4.0549   11.0753 H         1 RES1    0.0000
@<TRIPOS>BOND
     1    1    8 2
     2    2    8 2
     3    3   19 2
     4    4   23 2
     5    5   23 1
     6    6   28 2
     7    7   28 1
     8    8    9 1
     9    9   10 ar
    10   10   11 1
    11   12   10 ar
    12   13   12 ar
    13   14   13 1
    14   15   13 ar
    15   16   15 1
    16   17    9 ar
    17   18   17 1
    18   19   12 1
    19   20   19 1
    20   21   20 2
    21   22   21 1
    22   23   21 1
    23   24    5 1
    24   25   24 1
    25   26   24 1
    26   27   24 1
    27   28   20 1
    28   29    7 1
    29   30   29 1
    30   31   29 1
    31   32   29 1
    32   15   17 ar
@<TRIPOS>SUBSTRUCTURE
     1 RES1 1

@<TRIPOS>CRYSIN
  12.4082   12.1843    8.6733  90.0000  91.9740  90.0000  14 1

