# MOL2 file generated by ConQuest
# Please check atom types

@<TRIPOS>MOLECULE
IWIHAZ
    31    32     1
SMALL
NO_CHARGES
****
Generated from CSD

@<TRIPOS>ATOM
      1 O1        10.1606    7.8552    0.3264 O.2       1 RES1    0.0000
      2 O2        17.3296    8.6398   -0.0677 O.2       1 RES1    0.0000
      3 N1        10.9879    8.0206   -0.5635 N.pl3     1 RES1    0.0000
      4 C1        12.4066    8.1388   -0.1878 C.ar      1 RES1    0.0000
      5 C2        14.0982    8.0946    1.4688 C.ar      1 RES1    0.0000
      6 H1        14.3626    8.0180    2.3787 H         1 RES1    0.0000
      7 O3        23.0818    6.4276    3.1323 O.2       1 RES1    0.0000
      8 C3        14.6715    8.3766   -0.8414 C.ar      1 RES1    0.0000
      9 H2        15.3290    8.4987   -1.5165 H         1 RES1    0.0000
     10 O4        10.6941    8.0694   -1.7490 O.2       1 RES1    0.0000
     11 O5        23.2494    8.5725    3.3147 O.2       1 RES1    0.0000
     12 C4        16.5334    8.3181    0.8006 C.2       1 RES1    0.0000
     13 C5        13.3374    8.3142   -1.1939 C.ar      1 RES1    0.0000
     14 H3        13.0672    8.3896   -2.1015 H         1 RES1    0.0000
     15 N2        22.6097    7.5554    3.0976 N.pl3     1 RES1    0.0000
     16 C6        15.0634    8.2648    0.4842 C.ar      1 RES1    0.0000
     17 C7        21.1670    7.6841    2.8028 C.ar      1 RES1    0.0000
     18 C8        20.5155    8.8248    3.1885 C.ar      1 RES1    0.0000
     19 H4        20.9893    9.5408    3.5988 H         1 RES1    0.0000
     20 C9        12.7501    8.0349    1.1362 C.ar      1 RES1    0.0000
     21 H5        12.0860    7.9244    1.8059 H         1 RES1    0.0000
     22 C10       19.1496    8.9132    2.9668 C.ar      1 RES1    0.0000
     23 H6        18.6807    9.6967    3.2277 H         1 RES1    0.0000
     24 C11       18.4627    7.8725    2.3702 C.ar      1 RES1    0.0000
     25 C12       20.5209    6.6394    2.1947 C.ar      1 RES1    0.0000
     26 H7        20.9954    5.8585    1.9322 H         1 RES1    0.0000
     27 C13       19.1542    6.7512    1.9707 C.ar      1 RES1    0.0000
     28 H8        18.6902    6.0443    1.5365 H         1 RES1    0.0000
     29 C14       16.9632    7.9543    2.1862 C.3       1 RES1    0.0000
     30 H9        16.5673    7.0773    2.4210 H         1 RES1    0.0000
     31 H10       16.6022    8.6261    2.8174 H         1 RES1    0.0000
@<TRIPOS>BOND
     1    1    3 2
     2    2   12 2
     3    3    4 1
     4    4   13 ar
     5    5    6 1
     6    7   15 2
     7    8    9 1
     8   10    3 2
     9   11   15 2
    10   12   16 1
    11   13    8 ar
    12   14   13 1
    13   15   17 1
    14   16    5 ar
    15   17   18 ar
    16   18   19 1
    17   20    4 ar
    18   21   20 1
    19   22   18 ar
    20   23   22 1
    21   24   22 ar
    22   25   17 ar
    23   26   25 1
    24   27   24 ar
    25   28   27 1
    26   29   12 1
    27   30   29 1
    28   31   29 1
    29    5   20 ar
    30    8   16 ar
    31   24   29 1
    32   25   27 ar
@<TRIPOS>SUBSTRUCTURE
     1 RES1 1

@<TRIPOS>CRYSIN
  13.1220   12.9930    7.9220  90.0000 103.6600  90.0000  14 1

