# MOL2 file generated by ConQuest
# Please check atom types

@<TRIPOS>MOLECULE
IWOPIU
    60    61     1
SMALL
NO_CHARGES
****
Generated from CSD

@<TRIPOS>ATOM
      1 O1        -2.0766   15.6346    3.9165 O.2       1 RES1    0.0000
      2 O2        -0.5347   15.1018    2.4791 O.2       1 RES1    0.0000
      3 O3        -0.4258   12.4562    2.2979 O.3       1 RES1    0.0000
      4 O4        -0.9457   10.2225    7.8518 O.2       1 RES1    0.0000
      5 O5         1.4542    7.4703    4.7240 O.3       1 RES1    0.0000
      6 O6         1.8673    3.1173    7.5128 O.2       1 RES1    0.0000
      7 O7         1.2697    3.8741    9.5634 O.3       1 RES1    0.0000
      8 N1        -1.1846   14.8746    3.5045 N.pl3     1 RES1    0.0000
      9 N2         0.3087    9.1953    6.2379 N.am      1 RES1    0.0000
     10 C1        -0.9434   13.6506    4.2755 C.ar      1 RES1    0.0000
     11 C2        -1.1186   13.7381    5.6375 C.ar      1 RES1    0.0000
     12 C3        -0.9308   12.6237    6.4050 C.ar      1 RES1    0.0000
     13 C4        -0.5601   11.4075    5.8329 C.ar      1 RES1    0.0000
     14 C5        -0.3779   11.3382    4.4486 C.ar      1 RES1    0.0000
     15 C6        -0.5455   12.4619    3.6610 C.ar      1 RES1    0.0000
     16 C7         0.3043   11.3780    1.6445 C.3       1 RES1    0.0000
     17 C8         0.9433   12.0215    0.4308 C.3       1 RES1    0.0000
     18 C9        -0.6537   10.2686    1.2678 C.3       1 RES1    0.0000
     19 C10       -0.4386   10.2260    6.7441 C.2       1 RES1    0.0000
     20 C11        0.5612    7.9526    6.8288 C.ar      1 RES1    0.0000
     21 C12        0.2823    7.6165    8.1437 C.ar      1 RES1    0.0000
     22 C13        0.5826    6.3448    8.6005 C.ar      1 RES1    0.0000
     23 C14        1.1646    5.3841    7.7682 C.ar      1 RES1    0.0000
     24 C15        1.4456    5.7151    6.4486 C.ar      1 RES1    0.0000
     25 C16        1.1642    6.9779    5.9824 C.ar      1 RES1    0.0000
     26 C17        1.6110    6.5369    3.6198 C.3       1 RES1    0.0000
     27 C18        2.1534    7.3846    2.4850 C.3       1 RES1    0.0000
     28 C19        0.2817    5.8985    3.2749 C.3       1 RES1    0.0000
     29 C20        1.4728    4.0118    8.2426 C.2       1 RES1    0.0000
     30 C21        1.5424    2.5711   10.1391 C.3       1 RES1    0.0000
     31 C22        0.2821    1.7574   10.1685 C.3       1 RES1    0.0000
     32 C23        2.1293    2.8315   11.5046 C.3       1 RES1    0.0000
     33 H1        -1.3670   14.5632    6.0389 H         1 RES1    0.0000
     34 H2        -1.0540   12.6783    7.3456 H         1 RES1    0.0000
     35 H3        -0.1360   10.5124    4.0460 H         1 RES1    0.0000
     36 H4         1.0125   11.0236    2.2567 H         1 RES1    0.0000
     37 H5         1.5325   12.7488    0.7204 H         1 RES1    0.0000
     38 H6         0.2444   12.3793   -0.1542 H         1 RES1    0.0000
     39 H7         1.4667   11.3508   -0.0565 H         1 RES1    0.0000
     40 H8        -1.3254   10.6159    0.6451 H         1 RES1    0.0000
     41 H9        -1.0975    9.9331    2.0742 H         1 RES1    0.0000
     42 H10       -0.1576    9.5395    0.8405 H         1 RES1    0.0000
     43 H11       -0.1116    8.2539    8.7276 H         1 RES1    0.0000
     44 H12        0.3881    6.1191    9.5034 H         1 RES1    0.0000
     45 H13        1.8311    5.0695    5.8682 H         1 RES1    0.0000
     46 H14        2.2748    5.8303    3.8635 H         1 RES1    0.0000
     47 H15        1.4907    8.0633    2.2390 H         1 RES1    0.0000
     48 H16        2.3408    6.8133    1.7116 H         1 RES1    0.0000
     49 H17        2.9804    7.8261    2.7734 H         1 RES1    0.0000
     50 H18       -0.3570    6.5943    3.0136 H         1 RES1    0.0000
     51 H19       -0.0621    5.4164    4.0566 H         1 RES1    0.0000
     52 H20        0.4030    5.2705    2.5321 H         1 RES1    0.0000
     53 H21        2.2223    2.1012    9.5764 H         1 RES1    0.0000
     54 H22       -0.0779    1.6777    9.2609 H         1 RES1    0.0000
     55 H23       -0.3781    2.1977   10.7441 H         1 RES1    0.0000
     56 H24        0.4778    0.8635   10.5216 H         1 RES1    0.0000
     57 H25        1.4765    3.3134   12.0543 H         1 RES1    0.0000
     58 H26        2.9418    3.3723   11.4139 H         1 RES1    0.0000
     59 H27        2.3502    1.9789   11.9331 H         1 RES1    0.0000
     60 H28        0.5485    9.2647    5.4268 H         1 RES1    0.0000
@<TRIPOS>BOND
     1    1    8 2
     2    2    8 2
     3    3   15 1
     4    4   19 2
     5    5   25 1
     6    6   29 2
     7    7   29 1
     8    8   10 1
     9    9   19 1
    10   10   11 ar
    11   11   12 ar
    12   12   13 ar
    13   13   14 ar
    14   14   15 ar
    15   15   10 ar
    16   16    3 1
    17   17   16 1
    18   18   16 1
    19   19   13 1
    20   20    9 1
    21   21   20 ar
    22   22   21 ar
    23   23   22 ar
    24   24   23 ar
    25   25   20 ar
    26   26    5 1
    27   27   26 1
    28   28   26 1
    29   29   23 1
    30   30    7 1
    31   31   30 1
    32   32   30 1
    33   33   11 1
    34   34   12 1
    35   35   14 1
    36   36   16 1
    37   37   17 1
    38   38   17 1
    39   39   17 1
    40   40   18 1
    41   41   18 1
    42   42   18 1
    43   43   21 1
    44   44   22 1
    45   45   24 1
    46   46   26 1
    47   47   27 1
    48   48   27 1
    49   49   27 1
    50   50   28 1
    51   51   28 1
    52   52   28 1
    53   53   30 1
    54   54   31 1
    55   55   31 1
    56   56   31 1
    57   57   32 1
    58   58   32 1
    59   59   32 1
    60   60    9 1
    61   24   25 ar
@<TRIPOS>SUBSTRUCTURE
     1 RES1 1

@<TRIPOS>CRYSIN
   7.5727   12.7080   13.4129 116.9870  96.7920  94.4950   2 1

