# MOL2 file generated by ConQuest
# Please check atom types

@<TRIPOS>MOLECULE
IWOPAM
    54    55     1
SMALL
NO_CHARGES
****
Generated from CSD

@<TRIPOS>ATOM
      1 O1         7.4779   -6.1160    0.7910 O.2       1 RES1    0.0000
      2 O2         8.7551   -5.1976    2.2959 O.2       1 RES1    0.0000
      3 O3         8.9027   -2.6552    1.3899 O.3       1 RES1    0.0000
      4 O4         3.2866   -0.6807    0.8202 O.2       1 RES1    0.0000
      5 O5         6.3545    2.5589    2.1641 O.3       1 RES1    0.0000
      6 O6         3.2159    6.6616    2.4848 O.2       1 RES1    0.0000
      7 O7         1.4006    5.8344    1.4418 O.3       1 RES1    0.0000
      8 N1         7.7973   -5.1717    1.5200 N.pl3     1 RES1    0.0000
      9 N2         4.7852    0.4872    2.0888 N.am      1 RES1    0.0000
     10 C1         6.9613   -3.9681    1.4728 C.ar      1 RES1    0.0000
     11 C2         5.5958   -4.1645    1.4352 C.ar      1 RES1    0.0000
     12 C3         4.7643   -3.0600    1.4159 C.ar      1 RES1    0.0000
     13 C4         5.3137   -1.7771    1.4285 C.ar      1 RES1    0.0000
     14 C5         6.6968   -1.5992    1.4286 C.ar      1 RES1    0.0000
     15 C6         7.5486   -2.7061    1.4479 C.ar      1 RES1    0.0000
     16 C7         9.5954   -1.3821    1.3065 C.3       1 RES1    0.0000
     17 C8         9.6670   -0.7422    2.6727 C.3       1 RES1    0.0000
     18 C9        10.9592   -1.7402    0.7502 C.3       1 RES1    0.0000
     19 C10        4.3677   -0.6158    1.4081 C.2       1 RES1    0.0000
     20 C11        4.1702    1.7543    2.0757 C.ar      1 RES1    0.0000
     21 C12        2.7966    1.9432    2.0345 C.ar      1 RES1    0.0000
     22 C13        2.2631    3.2260    1.9984 C.ar      1 RES1    0.0000
     23 C14        3.1093    4.3277    2.0144 C.ar      1 RES1    0.0000
     24 C15        4.4931    4.1386    2.0841 C.ar      1 RES1    0.0000
     25 C16        5.0262    2.8699    2.1181 C.ar      1 RES1    0.0000
     26 C17        7.3319    3.6233    2.0468 C.3       1 RES1    0.0000
     27 C18        7.4663    4.3763    3.3551 C.3       1 RES1    0.0000
     28 C19        8.6262    2.9459    1.6584 C.3       1 RES1    0.0000
     29 C20        2.6100    5.7168    2.0216 C.2       1 RES1    0.0000
     30 C21        0.8957    7.1895    1.3746 C.3       1 RES1    0.0000
     31 H1         5.2341   -5.0423    1.4227 H         1 RES1    0.0000
     32 H2         3.8211   -3.1735    1.3939 H         1 RES1    0.0000
     33 H3         7.0609   -0.7216    1.4155 H         1 RES1    0.0000
     34 H4         9.1177   -0.7750    0.6710 H         1 RES1    0.0000
     35 H5        10.2085    0.0724    2.6236 H         1 RES1    0.0000
     36 H6        10.0758   -1.3683    3.3062 H         1 RES1    0.0000
     37 H7         8.7632   -0.5158    2.9750 H         1 RES1    0.0000
     38 H8        10.8529   -2.1712   -0.1238 H         1 RES1    0.0000
     39 H9        11.4115   -2.3541    1.3651 H         1 RES1    0.0000
     40 H10       11.4952   -0.9261    0.6494 H         1 RES1    0.0000
     41 H11        2.2165    1.1904    2.0318 H         1 RES1    0.0000
     42 H12        1.3217    3.3489    1.9627 H         1 RES1    0.0000
     43 H13        5.0711    4.8924    2.1081 H         1 RES1    0.0000
     44 H14        7.0538    4.2559    1.3233 H         1 RES1    0.0000
     45 H15        6.5847    4.6981    3.6388 H         1 RES1    0.0000
     46 H16        8.0689    5.1389    3.2327 H         1 RES1    0.0000
     47 H17        7.8312    3.7783    4.0406 H         1 RES1    0.0000
     48 H18        8.5070    2.4786    0.8049 H         1 RES1    0.0000
     49 H19        8.8772    2.2995    2.3515 H         1 RES1    0.0000
     50 H20        9.3323    3.6195    1.5667 H         1 RES1    0.0000
     51 H21        1.5257    7.7484    0.8741 H         1 RES1    0.0000
     52 H22        0.7934    7.5451    2.2824 H         1 RES1    0.0000
     53 H23        0.0265    7.1919    0.9230 H         1 RES1    0.0000
     54 H24        5.5850    0.4256    2.5819 H         1 RES1    0.0000
@<TRIPOS>BOND
     1    1    8 2
     2    2    8 2
     3    3   15 1
     4    4   19 2
     5    5   25 1
     6    6   29 2
     7    7   29 1
     8    8   10 1
     9    9   19 1
    10   10   11 ar
    11   11   12 ar
    12   12   13 ar
    13   13   14 ar
    14   14   15 ar
    15   15   10 ar
    16   16    3 1
    17   17   16 1
    18   18   16 1
    19   19   13 1
    20   20    9 1
    21   21   20 ar
    22   22   21 ar
    23   23   22 ar
    24   24   23 ar
    25   25   20 ar
    26   26    5 1
    27   27   26 1
    28   28   26 1
    29   29   23 1
    30   30    7 1
    31   31   11 1
    32   32   12 1
    33   33   14 1
    34   34   16 1
    35   35   17 1
    36   36   17 1
    37   37   17 1
    38   38   18 1
    39   39   18 1
    40   40   18 1
    41   41   21 1
    42   42   22 1
    43   43   24 1
    44   44   26 1
    45   45   27 1
    46   46   27 1
    47   47   27 1
    48   48   28 1
    49   49   28 1
    50   50   28 1
    51   51   30 1
    52   52   30 1
    53   53   30 1
    54   54    9 1
    55   24   25 ar
@<TRIPOS>SUBSTRUCTURE
     1 RES1 1

@<TRIPOS>CRYSIN
  11.0295   12.7043   14.6477  90.0000 100.5580  90.0000  14 1

