# MOL2 file generated by ConQuest
# Please check atom types

@<TRIPOS>MOLECULE
IWOPEQ
    72    73     1
SMALL
NO_CHARGES
****
Generated from CSD

@<TRIPOS>ATOM
      1 O1         5.5096   14.0439    5.0486 O.2       1 RES1    0.0000
      2 O2         4.6431   12.7727    3.5197 O.2       1 RES1    0.0000
      3 O3         5.9204   10.4934    3.3268 O.3       1 RES1    0.0000
      4 O4         6.9509    8.6222    8.9648 O.2       1 RES1    0.0000
      5 O5         8.5074    5.5580    5.6187 O.3       1 RES1    0.0000
      6 O6         9.8448    1.6917    8.8025 O.2       1 RES1    0.0000
      7 O7        10.3606    2.8729   10.6439 O.3       1 RES1    0.0000
      8 N1         5.2683   12.9343    4.5623 N.pl3     1 RES1    0.0000
      9 N2         7.8097    7.5290    7.1675 N.am      1 RES1    0.0000
     10 C1         5.7523   11.7654    5.3166 C.ar      1 RES1    0.0000
     11 C2         5.8798   11.9164    6.6833 C.ar      1 RES1    0.0000
     12 C3         6.3139   10.8588    7.4482 C.ar      1 RES1    0.0000
     13 C4         6.6640    9.6541    6.8384 C.ar      1 RES1    0.0000
     14 C5         6.5443    9.5145    5.4633 C.ar      1 RES1    0.0000
     15 C6         6.0682   10.5626    4.6702 C.ar      1 RES1    0.0000
     16 C7         6.2790    9.2861    2.6336 C.3       1 RES1    0.0000
     17 C8         5.8458    9.4546    1.1840 C.3       1 RES1    0.0000
     18 C9         4.3168    9.5163    1.0699 C.3       1 RES1    0.0000
     19 C10        3.6262    8.1813    1.3451 C.3       1 RES1    0.0000
     20 C11        6.4918   10.6521    0.5029 C.3       1 RES1    0.0000
     21 C12        8.0037   10.6125    0.4420 C.3       1 RES1    0.0000
     22 C13        7.1467    8.5650    7.7566 C.2       1 RES1    0.0000
     23 C14        8.3571    6.3847    7.7936 C.ar      1 RES1    0.0000
     24 C15        8.6015    6.2915    9.1568 C.ar      1 RES1    0.0000
     25 C16        9.1332    5.1213    9.6770 C.ar      1 RES1    0.0000
     26 C17        9.3980    4.0385    8.8520 C.ar      1 RES1    0.0000
     27 C18        9.1850    4.1382    7.4795 C.ar      1 RES1    0.0000
     28 C19        8.6950    5.3210    6.9442 C.ar      1 RES1    0.0000
     29 C20        9.0187    4.5790    4.6893 C.3       1 RES1    0.0000
     30 C21        8.8806    5.1349    3.2894 C.3       1 RES1    0.0000
     31 C22        7.3971    5.3185    2.9321 C.3       1 RES1    0.0000
     32 C23        7.1625    5.9877    1.5986 C.3       1 RES1    0.0000
     33 C24        9.6361    4.2514    2.3048 C.3       1 RES1    0.0000
     34 C25       11.1418    4.2772    2.4521 C.3       1 RES1    0.0000
     35 C26        9.8764    2.7433    9.4017 C.2       1 RES1    0.0000
     36 C27       10.7728    1.6582   11.2810 C.3       1 RES1    0.0000
     37 H1         5.6696   12.7470    7.0939 H         1 RES1    0.0000
     38 H2         6.3753   10.9487    8.3923 H         1 RES1    0.0000
     39 H3         6.7900    8.6928    5.0542 H         1 RES1    0.0000
     40 H4         5.8213    8.5077    3.0398 H         1 RES1    0.0000
     41 H5         7.2567    9.1386    2.6840 H         1 RES1    0.0000
     42 H6         6.1454    8.6377    0.6907 H         1 RES1    0.0000
     43 H7         3.9758   10.1896    1.7105 H         1 RES1    0.0000
     44 H8         4.0762    9.8185    0.1590 H         1 RES1    0.0000
     45 H9         3.8439    7.8815    2.2521 H         1 RES1    0.0000
     46 H10        3.9362    7.5134    0.6977 H         1 RES1    0.0000
     47 H11        2.6568    8.2915    1.2618 H         1 RES1    0.0000
     48 H12        6.1408   10.7159   -0.4206 H         1 RES1    0.0000
     49 H13        6.2176   11.4737    0.9833 H         1 RES1    0.0000
     50 H14        8.3707   10.7821    1.3349 H         1 RES1    0.0000
     51 H15        8.3236   11.2990   -0.1786 H         1 RES1    0.0000
     52 H16        8.2949    9.7298    0.1322 H         1 RES1    0.0000
     53 H17        8.4051    7.0240    9.7286 H         1 RES1    0.0000
     54 H18        9.3185    5.0614   10.6064 H         1 RES1    0.0000
     55 H19        9.3745    3.4000    6.9124 H         1 RES1    0.0000
     56 H20        8.5077    3.7353    4.7715 H         1 RES1    0.0000
     57 H21        9.9704    4.3893    4.8868 H         1 RES1    0.0000
     58 H22        9.3101    6.0378    3.2776 H         1 RES1    0.0000
     59 H23        6.9596    4.4309    2.9231 H         1 RES1    0.0000
     60 H24        6.9639    5.8589    3.6391 H         1 RES1    0.0000
     61 H25        7.5551    5.4421    0.8862 H         1 RES1    0.0000
     62 H26        7.5815    6.8731    1.5994 H         1 RES1    0.0000
     63 H27        6.1991    6.0813    1.4447 H         1 RES1    0.0000
     64 H28        9.3246    3.3182    2.4167 H         1 RES1    0.0000
     65 H29        9.4048    4.5356    1.3856 H         1 RES1    0.0000
     66 H30       11.3865    3.9927    3.3578 H         1 RES1    0.0000
     67 H31       11.4701    5.1875    2.2957 H         1 RES1    0.0000
     68 H32       11.5446    3.6676    1.7991 H         1 RES1    0.0000
     69 H33       11.3804    1.1683   10.6880 H         1 RES1    0.0000
     70 H34        9.9862    1.1052   11.4715 H         1 RES1    0.0000
     71 H35       11.2345    1.8701   12.1200 H         1 RES1    0.0000
     72 H36        7.9057    7.5510    6.2907 H         1 RES1    0.0000
@<TRIPOS>BOND
     1    1    8 2
     2    2    8 2
     3    3   15 1
     4    4   22 2
     5    5   28 1
     6    6   35 2
     7    7   35 1
     8    8   10 1
     9    9   22 1
    10   10   11 ar
    11   11   12 ar
    12   12   13 ar
    13   13   14 ar
    14   14   15 ar
    15   15   10 ar
    16   16    3 1
    17   17   16 1
    18   18   17 1
    19   19   18 1
    20   20   17 1
    21   21   20 1
    22   22   13 1
    23   23    9 1
    24   24   23 ar
    25   25   24 ar
    26   26   25 ar
    27   27   26 ar
    28   28   23 ar
    29   29    5 1
    30   30   29 1
    31   31   30 1
    32   32   31 1
    33   33   30 1
    34   34   33 1
    35   35   26 1
    36   36    7 1
    37   37   11 1
    38   38   12 1
    39   39   14 1
    40   40   16 1
    41   41   16 1
    42   42   17 1
    43   43   18 1
    44   44   18 1
    45   45   19 1
    46   46   19 1
    47   47   19 1
    48   48   20 1
    49   49   20 1
    50   50   21 1
    51   51   21 1
    52   52   21 1
    53   53   24 1
    54   54   25 1
    55   55   27 1
    56   56   29 1
    57   57   29 1
    58   58   30 1
    59   59   31 1
    60   60   31 1
    61   61   32 1
    62   62   32 1
    63   63   32 1
    64   64   33 1
    65   65   33 1
    66   66   34 1
    67   67   34 1
    68   68   34 1
    69   69   36 1
    70   70   36 1
    71   71   36 1
    72   72    9 1
    73   27   28 ar
@<TRIPOS>SUBSTRUCTURE
     1 RES1 1

@<TRIPOS>CRYSIN
   7.3631   12.3256   14.6024  76.4650  80.4930  81.3010   2 1

