# MOL2 file generated by ConQuest
# Please check atom types

@<TRIPOS>MOLECULE
IWOPUH
    71    75     1
SMALL
NO_CHARGES
****
Generated from CSD

@<TRIPOS>ATOM
      1 N1         8.0693   -3.5029    1.0671 N.ar      1 RES1    0.0000
      2 N2         8.6353    0.9642    2.4221 N.3       1 RES1    0.0000
      3 N3         8.5895    5.0732    3.2529 N.am      1 RES1    0.0000
      4 O1         8.8130   -0.4480    2.6781 O.3       1 RES1    0.0000
      5 O2         8.1470    5.5305    5.4128 O.2       1 RES1    0.0000
      6 C1         7.4741   -5.7393    0.4630 C.ar      1 RES1    0.0000
      7 C2         6.7089   -5.2824   -0.6223 C.ar      1 RES1    0.0000
      8 H1         6.6377   -4.3689   -0.7835 H         1 RES1    0.0000
      9 C3         6.0678   -6.1673   -1.4451 C.ar      1 RES1    0.0000
     10 H2         5.5603   -5.8526   -2.1583 H         1 RES1    0.0000
     11 C4         6.1725   -7.5293   -1.2177 C.ar      1 RES1    0.0000
     12 H3         5.7383   -8.1248   -1.7851 H         1 RES1    0.0000
     13 C5         6.9017   -8.0046   -0.1768 C.ar      1 RES1    0.0000
     14 H4         6.9666   -8.9222   -0.0393 H         1 RES1    0.0000
     15 C6         7.5641   -7.1144    0.7029 C.ar      1 RES1    0.0000
     16 C7         8.3170   -7.5742    1.7986 C.ar      1 RES1    0.0000
     17 H5         8.3650   -8.4890    1.9609 H         1 RES1    0.0000
     18 C8         8.9741   -6.7286    2.6214 C.ar      1 RES1    0.0000
     19 H6         9.4499   -7.0720    3.3429 H         1 RES1    0.0000
     20 C9         8.9521   -5.3233    2.4067 C.ar      1 RES1    0.0000
     21 C10        8.1859   -4.8238    1.3321 C.ar      1 RES1    0.0000
     22 C11        8.7080   -2.6571    1.8545 C.ar      1 RES1    0.0000
     23 C12        9.4963   -3.0711    2.9270 C.ar      1 RES1    0.0000
     24 H7         9.9315   -2.4365    3.4493 H         1 RES1    0.0000
     25 C13        9.6387   -4.4011    3.2220 C.ar      1 RES1    0.0000
     26 C14       10.4807   -4.8449    4.3765 C.3       1 RES1    0.0000
     27 H8        11.2120   -5.3773    4.0540 H         1 RES1    0.0000
     28 H9         9.9472   -5.3662    4.9802 H         1 RES1    0.0000
     29 H10       10.8236   -4.0757    4.8376 H         1 RES1    0.0000
     30 C15        8.5413   -1.2127    1.5050 C.3       1 RES1    0.0000
     31 H11        9.1551   -0.9662    0.7959 H         1 RES1    0.0000
     32 H12        7.6357   -1.0461    1.2001 H         1 RES1    0.0000
     33 C16        7.5127    1.4126    3.2912 C.3       1 RES1    0.0000
     34 C17        7.4064    2.9265    3.1400 C.3       1 RES1    0.0000
     35 H13        7.1258    3.1340    2.2348 H         1 RES1    0.0000
     36 H14        6.7242    3.2584    3.7450 H         1 RES1    0.0000
     37 C18        8.7103    3.6391    3.4293 C.3       1 RES1    0.0000
     38 H15        8.9727    3.4538    4.3548 H         1 RES1    0.0000
     39 C19        9.7775    3.1071    2.5043 C.3       1 RES1    0.0000
     40 H16       10.6166    3.5493    2.7061 H         1 RES1    0.0000
     41 H17        9.5395    3.3294    1.5908 H         1 RES1    0.0000
     42 C20        9.9784    1.5987    2.6080 C.3       1 RES1    0.0000
     43 C21       10.7030    1.2252    3.9031 C.3       1 RES1    0.0000
     44 H18       10.2685    1.6481    4.6463 H         1 RES1    0.0000
     45 H19       11.6155    1.5192    3.8556 H         1 RES1    0.0000
     46 H20       10.6802    0.2732    4.0189 H         1 RES1    0.0000
     47 C22       10.8451    1.1587    1.4337 C.3       1 RES1    0.0000
     48 H21       11.0251    0.2177    1.5040 H         1 RES1    0.0000
     49 H22       11.6727    1.6458    1.4471 H         1 RES1    0.0000
     50 H23       10.3828    1.3349    0.6109 H         1 RES1    0.0000
     51 C23        6.2290    0.7940    2.7268 C.3       1 RES1    0.0000
     52 H24        6.1754    0.9728    1.7851 H         1 RES1    0.0000
     53 H25        5.4678    1.1772    3.1692 H         1 RES1    0.0000
     54 H26        6.2405   -0.1555    2.8736 H         1 RES1    0.0000
     55 C24        7.6137    1.0170    4.7714 C.3       1 RES1    0.0000
     56 H27        7.9185    0.1088    4.8407 H         1 RES1    0.0000
     57 H28        6.7506    1.0972    5.1838 H         1 RES1    0.0000
     58 H29        8.2348    1.5970    5.2169 H         1 RES1    0.0000
     59 C25        8.3170    5.9068    4.2611 C.2       1 RES1    0.0000
     60 C26        8.2507    7.3518    3.9021 C.ar      1 RES1    0.0000
     61 C27        7.2116    8.1274    4.3652 C.ar      1 RES1    0.0000
     62 H30        6.5405    7.7450    4.8830 H         1 RES1    0.0000
     63 C28        7.1654    9.4717    4.0613 C.ar      1 RES1    0.0000
     64 H31        6.4550    9.9883    4.3652 H         1 RES1    0.0000
     65 C29        8.1514   10.0485    3.3201 C.ar      1 RES1    0.0000
     66 H32        8.1142   10.9567    3.1227 H         1 RES1    0.0000
     67 C30        9.1926    9.2982    2.8695 C.ar      1 RES1    0.0000
     68 H33        9.8711    9.6973    2.3733 H         1 RES1    0.0000
     69 C31        9.2433    7.9489    3.1444 C.ar      1 RES1    0.0000
     70 H34        9.9485    7.4362    2.8198 H         1 RES1    0.0000
     71 H35        8.5935    5.3906    2.4498 H         1 RES1    0.0000
@<TRIPOS>BOND
     1    1   21 ar
     2    2    4 1
     3    3   37 1
     4    4   30 1
     5    5   59 2
     6    6    7 ar
     7    7    8 1
     8    9    7 ar
     9   10    9 1
    10   11    9 ar
    11   12   11 1
    12   13   11 ar
    13   14   13 1
    14   15    6 ar
    15   16   15 ar
    16   17   16 1
    17   18   16 ar
    18   19   18 1
    19   20   18 ar
    20   21    6 ar
    21   22    1 ar
    22   23   22 ar
    23   24   23 1
    24   25   20 ar
    25   26   25 1
    26   27   26 1
    27   28   26 1
    28   29   26 1
    29   30   22 1
    30   31   30 1
    31   32   30 1
    32   33    2 1
    33   34   33 1
    34   35   34 1
    35   36   34 1
    36   37   34 1
    37   38   37 1
    38   39   37 1
    39   40   39 1
    40   41   39 1
    41   42    2 1
    42   43   42 1
    43   44   43 1
    44   45   43 1
    45   46   43 1
    46   47   42 1
    47   48   47 1
    48   49   47 1
    49   50   47 1
    50   51   33 1
    51   52   51 1
    52   53   51 1
    53   54   51 1
    54   55   33 1
    55   56   55 1
    56   57   55 1
    57   58   55 1
    58   59    3 1
    59   60   59 1
    60   61   60 ar
    61   62   61 1
    62   63   61 ar
    63   64   63 1
    64   65   63 ar
    65   66   65 1
    66   67   65 ar
    67   68   67 1
    68   69   60 ar
    69   70   69 1
    70   71    3 1
    71   13   15 ar
    72   20   21 ar
    73   23   25 ar
    74   39   42 1
    75   67   69 ar
@<TRIPOS>SUBSTRUCTURE
     1 RES1 1

@<TRIPOS>CRYSIN
  11.4456   22.2110   10.3680  90.0000  94.4570  90.0000  14 1

