# MOL2 file generated by ConQuest
# Please check atom types

@<TRIPOS>MOLECULE
IWUQIC
    58    62     1
SMALL
USER_CHARGES
****
Generated from CSD

@<TRIPOS>ATOM
      1 O1         1.0573    8.5539    4.0663 O.2       1 RES1   -1.0000
      2 N1         1.7586    8.1296    5.0502 N.pl3     1 RES1    1.0000
      3 N2         2.2209   11.4401    5.7749 N.1       1 RES1    0.0000
      4 N3         3.2855    8.8876    8.1481 N.2       1 RES1    0.0000
      5 H1         3.9279    8.4472    8.5525 H         1 RES1    0.0000
      6 C1         1.7579    8.9218    6.3032 C.3       1 RES1    0.0000
      7 C2         2.9079    8.3072    7.1014 C.2       1 RES1    0.0000
      8 C3         3.2176    7.0158    6.4237 C.2       1 RES1    0.0000
      9 C4         2.5186    7.0467    5.1395 C.2       1 RES1    0.0000
     10 C5         2.0156   10.3380    5.9786 C.1       1 RES1    0.0000
     11 C6         0.4021    8.7737    7.0371 C.3       1 RES1    0.0000
     12 H2         0.4263    9.3113    7.8674 H         1 RES1    0.0000
     13 H3        -0.3152    9.1395    6.4610 H         1 RES1    0.0000
     14 C7         0.0645    7.3425    7.3903 C.ar      1 RES1    0.0000
     15 C8         0.4574    6.8069    8.6193 C.ar      1 RES1    0.0000
     16 H4         0.9609    7.3362    9.2262 H         1 RES1    0.0000
     17 C9         0.1159    5.5068    8.9573 C.ar      1 RES1    0.0000
     18 H5         0.3842    5.1484    9.7952 H         1 RES1    0.0000
     19 C10       -0.6141    4.7301    8.0790 C.ar      1 RES1    0.0000
     20 H6        -0.8555    3.8431    8.3184 H         1 RES1    0.0000
     21 C11       -0.9929    5.2426    6.8536 C.ar      1 RES1    0.0000
     22 H7        -1.4821    4.7032    6.2440 H         1 RES1    0.0000
     23 C12       -0.6597    6.5452    6.5129 C.ar      1 RES1    0.0000
     24 H8        -0.9293    6.8949    5.6712 H         1 RES1    0.0000
     25 C13        3.8629    5.9653    7.0135 C.2       1 RES1    0.0000
     26 C14        4.7306    6.1699    8.1998 C.ar      1 RES1    0.0000
     27 C15        5.7758    7.0988    8.1875 C.ar      1 RES1    0.0000
     28 H9         5.9378    7.6176    7.4087 H         1 RES1    0.0000
     29 C16        6.5758    7.2650    9.3074 C.ar      1 RES1    0.0000
     30 H10        7.2781    7.9043    9.2985 H         1 RES1    0.0000
     31 C17        6.3517    6.4986   10.4407 C.ar      1 RES1    0.0000
     32 H11        6.9054    6.6096   11.2054 H         1 RES1    0.0000
     33 C18        5.3256    5.5724   10.4615 C.ar      1 RES1    0.0000
     34 H12        5.1723    5.0506   11.2396 H         1 RES1    0.0000
     35 C19        4.5190    5.4048    9.3478 C.ar      1 RES1    0.0000
     36 H13        3.8177    4.7640    9.3651 H         1 RES1    0.0000
     37 C20        3.7014    4.5631    6.5767 C.ar      1 RES1    0.0000
     38 C21        4.7993    3.6968    6.5744 C.ar      1 RES1    0.0000
     39 H14        5.6504    4.0122    6.8530 H         1 RES1    0.0000
     40 C22        4.6509    2.3788    6.1670 C.ar      1 RES1    0.0000
     41 H15        5.4023    1.7980    6.1565 H         1 RES1    0.0000
     42 C23        3.4038    1.9077    5.7753 C.ar      1 RES1    0.0000
     43 H16        3.3061    1.0067    5.4885 H         1 RES1    0.0000
     44 C24        2.3019    2.7463    5.8016 C.ar      1 RES1    0.0000
     45 H17        1.4485    2.4176    5.5437 H         1 RES1    0.0000
     46 C25        2.4456    4.0689    6.2054 C.ar      1 RES1    0.0000
     47 H18        1.6871    4.6398    6.2288 H         1 RES1    0.0000
     48 C26        2.6396    6.1301    3.9915 C.ar      1 RES1    0.0000
     49 C27        3.8733    5.5495    3.6851 C.ar      1 RES1    0.0000
     50 H19        4.6368    5.7482    4.2153 H         1 RES1    0.0000
     51 C28        3.9831    4.6832    2.6065 C.ar      1 RES1    0.0000
     52 H20        4.8217    4.2884    2.3998 H         1 RES1    0.0000
     53 C29        2.8712    4.3934    1.8289 C.ar      1 RES1    0.0000
     54 H21        2.9469    3.7916    1.0981 H         1 RES1    0.0000
     55 C30        1.6577    4.9790    2.1181 C.ar      1 RES1    0.0000
     56 H22        0.9025    4.7864    1.5758 H         1 RES1    0.0000
     57 C31        1.5274    5.8465    3.1947 C.ar      1 RES1    0.0000
     58 H23        0.6869    6.2449    3.3875 H         1 RES1    0.0000
@<TRIPOS>BOND
     1    1    2 1
     2    2    6 1
     3    3   10 3
     4    4    5 1
     5    6    7 1
     6    7    4 2
     7    8    7 1
     8    9    2 2
     9   10    6 1
    10   11    6 1
    11   12   11 1
    12   13   11 1
    13   14   11 1
    14   15   14 ar
    15   16   15 1
    16   17   15 ar
    17   18   17 1
    18   19   17 ar
    19   20   19 1
    20   21   19 ar
    21   22   21 1
    22   23   14 ar
    23   24   23 1
    24   25    8 2
    25   26   25 1
    26   27   26 ar
    27   28   27 1
    28   29   27 ar
    29   30   29 1
    30   31   29 ar
    31   32   31 1
    32   33   31 ar
    33   34   33 1
    34   35   26 ar
    35   36   35 1
    36   37   25 1
    37   38   37 ar
    38   39   38 1
    39   40   38 ar
    40   41   40 1
    41   42   40 ar
    42   43   42 1
    43   44   42 ar
    44   45   44 1
    45   46   37 ar
    46   47   46 1
    47   48    9 1
    48   49   48 ar
    49   50   49 1
    50   51   49 ar
    51   52   51 1
    52   53   51 ar
    53   54   53 1
    54   55   53 ar
    55   56   55 1
    56   57   48 ar
    57   58   57 1
    58    8    9 1
    59   21   23 ar
    60   33   35 ar
    61   44   46 ar
    62   55   57 ar
@<TRIPOS>SUBSTRUCTURE
     1 RES1 1

@<TRIPOS>CRYSIN
   9.5802   13.2112   19.0309  90.0000  90.0000  90.0000  19 1

