# MOL2 file generated by ConQuest
# Please check atom types

@<TRIPOS>MOLECULE
IWUQAU
    60    63     1
SMALL
USER_CHARGES
****
Generated from CSD

@<TRIPOS>ATOM
      1 O1         9.8471    5.2554    7.7255 O.2       1 RES1   -1.0000
      2 O2         5.4150    5.7559    8.8867 O.2       1 RES1    0.0000
      3 O3         7.8229    3.5994    4.7325 O.3       1 RES1    0.0000
      4 O4        10.0114    3.7205    5.1678 O.2       1 RES1    0.0000
      5 O5         5.6210    1.7398    4.6399 O.2       1 RES1    0.0000
      6 O6         4.6177    3.6857    4.1493 O.3       1 RES1    0.0000
      7 N1         8.6285    4.8703    7.7338 N.pl3     1 RES1    1.0000
      8 C1         8.3976    3.5820    7.0203 C.3       1 RES1    0.0000
      9 C2         7.6615    5.5475    8.3300 C.2       1 RES1    0.0000
     10 C3         6.2759    5.0279    8.4222 C.2       1 RES1    0.0000
     11 C4         6.0324    3.5574    8.0610 C.3       1 RES1    0.0000
     12 C5         6.9349    3.1943    6.8680 C.3       1 RES1    0.0000
     13 C6         6.5778    3.8045    5.4779 C.3       1 RES1    0.0000
     14 C7         8.8891    3.6690    5.5646 C.2       1 RES1    0.0000
     15 C8         6.2623    5.2889    5.3975 C.3       1 RES1    0.0000
     16 C9         5.5503    2.9374    4.7200 C.2       1 RES1    0.0000
     17 C10        3.6017    2.9853    3.3952 C.3       1 RES1    0.0000
     18 C11        8.0195    6.8446    8.9809 C.3       1 RES1    0.0000
     19 C12        8.5784    6.6354   10.3927 C.3       1 RES1    0.0000
     20 C13        8.9998    7.9415   11.0552 C.3       1 RES1    0.0000
     21 C14        9.5965    7.7152   12.4369 C.3       1 RES1    0.0000
     22 C15        6.4303    2.7933    9.3527 C.ar      1 RES1    0.0000
     23 C16        7.3476    1.7494    9.3821 C.ar      1 RES1    0.0000
     24 C17        7.6183    1.0785   10.5753 C.ar      1 RES1    0.0000
     25 C18        6.9661    1.4255   11.7416 C.ar      1 RES1    0.0000
     26 C19        6.0342    2.4473   11.7152 C.ar      1 RES1    0.0000
     27 C20        5.7728    3.1310   10.5361 C.ar      1 RES1    0.0000
     28 C21        4.5891    3.1616    7.7084 C.ar      1 RES1    0.0000
     29 C22        4.3297    1.7887    7.5965 C.ar      1 RES1    0.0000
     30 C23        3.0827    1.3240    7.2044 C.ar      1 RES1    0.0000
     31 C24        2.0600    2.2258    6.9349 C.ar      1 RES1    0.0000
     32 C25        2.2952    3.5849    7.0644 C.ar      1 RES1    0.0000
     33 C26        3.5531    4.0551    7.4408 C.ar      1 RES1    0.0000
     34 H1         8.8874    2.8491    7.4924 H         1 RES1    0.0000
     35 H2         6.9038    2.1997    6.7686 H         1 RES1    0.0000
     36 H3         6.1780    5.5545    4.4580 H         1 RES1    0.0000
     37 H4         6.9852    5.7998    5.8178 H         1 RES1    0.0000
     38 H5         5.4200    5.4696    5.8648 H         1 RES1    0.0000
     39 H6         3.0528    3.6334    2.9061 H         1 RES1    0.0000
     40 H7         3.0340    2.4736    4.0087 H         1 RES1    0.0000
     41 H8         4.0296    2.3742    2.7598 H         1 RES1    0.0000
     42 H9         7.2146    7.4188    9.0299 H         1 RES1    0.0000
     43 H10        8.6946    7.3123    8.4281 H         1 RES1    0.0000
     44 H11        7.8892    6.1967   10.9518 H         1 RES1    0.0000
     45 H12        9.3603    6.0301   10.3447 H         1 RES1    0.0000
     46 H13        9.6673    8.3964   10.4828 H         1 RES1    0.0000
     47 H14        8.2118    8.5356   11.1343 H         1 RES1    0.0000
     48 H15        9.8912    8.5721   12.8099 H         1 RES1    0.0000
     49 H16       10.3631    7.1088   12.3663 H         1 RES1    0.0000
     50 H17        8.9194    7.3188   13.0242 H         1 RES1    0.0000
     51 H18        7.7936    1.4910    8.5841 H         1 RES1    0.0000
     52 H19        8.2576    0.3758   10.5852 H         1 RES1    0.0000
     53 H20        7.1551    0.9681   12.5524 H         1 RES1    0.0000
     54 H21        5.5696    2.6827   12.5098 H         1 RES1    0.0000
     55 H22        5.1383    3.8380   10.5346 H         1 RES1    0.0000
     56 H23        5.0196    1.1657    7.7925 H         1 RES1    0.0000
     57 H24        2.9279    0.3904    7.1202 H         1 RES1    0.0000
     58 H25        1.2052    1.9122    6.6637 H         1 RES1    0.0000
     59 H26        1.5933    4.2022    6.8952 H         1 RES1    0.0000
     60 H27        3.7049    4.9900    7.5155 H         1 RES1    0.0000
@<TRIPOS>BOND
     1    1    7 1
     2    2   10 2
     3    3   13 1
     4    4   14 2
     5    5   16 2
     6    6   16 1
     7    7    8 1
     8    8   12 1
     9    9    7 2
    10   10    9 1
    11   11   10 1
    12   12   11 1
    13   13   12 1
    14   14    3 1
    15   15   13 1
    16   16   13 1
    17   17    6 1
    18   18    9 1
    19   19   18 1
    20   20   19 1
    21   21   20 1
    22   22   11 1
    23   23   22 ar
    24   24   23 ar
    25   25   24 ar
    26   26   25 ar
    27   27   22 ar
    28   28   11 1
    29   29   28 ar
    30   30   29 ar
    31   31   30 ar
    32   32   31 ar
    33   33   28 ar
    34   34    8 1
    35   35   12 1
    36   36   15 1
    37   37   15 1
    38   38   15 1
    39   39   17 1
    40   40   17 1
    41   41   17 1
    42   42   18 1
    43   43   18 1
    44   44   19 1
    45   45   19 1
    46   46   20 1
    47   47   20 1
    48   48   21 1
    49   49   21 1
    50   50   21 1
    51   51   23 1
    52   52   24 1
    53   53   25 1
    54   54   26 1
    55   55   27 1
    56   56   29 1
    57   57   30 1
    58   58   31 1
    59   59   32 1
    60   60   33 1
    61    8   14 1
    62   26   27 ar
    63   32   33 ar
@<TRIPOS>SUBSTRUCTURE
     1 RES1 1

@<TRIPOS>CRYSIN
  10.5196   10.6168   11.9118  72.9557  71.8991  66.7618   2 1

