# MOL2 file generated by ConQuest
# Please check atom types

@<TRIPOS>MOLECULE
IWUQOI
    56    59     1
SMALL
USER_CHARGES
****
Generated from CSD

@<TRIPOS>ATOM
      1 O1         2.1679    5.6759    8.7691 O.2       1 RES1   -1.0000
      2 O2         2.3549    3.0564    4.9662 O.2       1 RES1    0.0000
      3 O3        -0.1862    8.2475    9.0980 O.2       1 RES1    0.0000
      4 N1         1.8952    5.0943    7.6729 N.pl3     1 RES1    1.0000
      5 C1         2.6224    4.2139    7.0229 C.2       1 RES1    0.0000
      6 C2         1.9742    3.8965    5.7565 C.2       1 RES1    0.0000
      7 C3         0.7988    4.8879    5.5545 C.3       1 RES1    0.0000
      8 C4         0.5391    5.3290    7.0370 C.3       1 RES1    0.0000
      9 C5         0.1085    6.7705    7.2690 C.3       1 RES1    0.0000
     10 H1         0.8584    7.3649    7.0165 H         1 RES1    0.0000
     11 H2        -0.6472    6.9722    6.6611 H         1 RES1    0.0000
     12 C6        -0.3137    7.1108    8.6856 C.2       1 RES1    0.0000
     13 C7        -1.0425    6.0647    9.4871 C.3       1 RES1    0.0000
     14 H3        -2.0084    6.1257    9.2801 H         1 RES1    0.0000
     15 H4        -0.9291    6.2693   10.4488 H         1 RES1    0.0000
     16 C8        -0.5818    4.6353    9.2366 C.3       1 RES1    0.0000
     17 H5        -1.2374    4.0033    9.6259 H         1 RES1    0.0000
     18 H6         0.2893    4.4862    9.6819 H         1 RES1    0.0000
     19 C9        -0.4423    4.3684    7.7417 C.3       1 RES1    0.0000
     20 H7        -1.3331    4.4510    7.3175 H         1 RES1    0.0000
     21 H8        -0.1308    3.4380    7.6104 H         1 RES1    0.0000
     22 C10        3.8843    3.6262    7.5443 C.3       1 RES1    0.0000
     23 H9         4.3335    4.2814    8.1355 H         1 RES1    0.0000
     24 H10        4.4921    3.4273    6.7892 H         1 RES1    0.0000
     25 C11        3.6047    2.3349    8.3294 C.3       1 RES1    0.0000
     26 H11        3.0893    2.5563    9.1457 H         1 RES1    0.0000
     27 H12        3.0497    1.7312    7.7737 H         1 RES1    0.0000
     28 C12        4.8814    1.6108    8.7277 C.3       1 RES1    0.0000
     29 H13        5.4100    2.1972    9.3250 H         1 RES1    0.0000
     30 H14        5.4220    1.4409    7.9146 H         1 RES1    0.0000
     31 C13        4.6236    0.2889    9.4343 C.3       1 RES1    0.0000
     32 H15        4.1166   -0.3041    8.8415 H         1 RES1    0.0000
     33 H16        4.1097    0.4508   10.2518 H         1 RES1    0.0000
     34 H17        5.4783   -0.1314    9.6643 H         1 RES1    0.0000
     35 C14       -0.4562    4.2891    4.9170 C.ar      1 RES1    0.0000
     36 C15       -0.6031    2.9272    4.6642 C.ar      1 RES1    0.0000
     37 H18        0.1089    2.3317    4.8682 H         1 RES1    0.0000
     38 C16       -1.7837    2.4275    4.1137 C.ar      1 RES1    0.0000
     39 H19       -1.8652    1.4974    3.9397 H         1 RES1    0.0000
     40 C17       -2.8385    3.2762    3.8177 C.ar      1 RES1    0.0000
     41 H20       -3.6383    2.9337    3.4370 H         1 RES1    0.0000
     42 C18       -2.7126    4.6342    4.0855 C.ar      1 RES1    0.0000
     43 H21       -3.4363    5.2227    3.9045 H         1 RES1    0.0000
     44 C19       -1.5313    5.1339    4.6178 C.ar      1 RES1    0.0000
     45 H22       -1.4512    6.0661    4.7817 H         1 RES1    0.0000
     46 C20        1.4373    5.9776    4.6567 C.ar      1 RES1    0.0000
     47 C21        1.1506    5.9903    3.2918 C.ar      1 RES1    0.0000
     48 H23        0.5116    5.3785    2.9440 H         1 RES1    0.0000
     49 C22        1.7805    6.8792    2.4304 C.ar      1 RES1    0.0000
     50 H24        1.5751    6.8653    1.5032 H         1 RES1    0.0000
     51 C23        2.7076    7.7863    2.9188 C.ar      1 RES1    0.0000
     52 H25        3.1275    8.4070    2.3356 H         1 RES1    0.0000
     53 C24        3.0124    7.7756    4.2679 C.ar      1 RES1    0.0000
     54 H26        3.6461    8.3948    4.6105 H         1 RES1    0.0000
     55 C25        2.4035    6.8705    5.1282 C.ar      1 RES1    0.0000
     56 H27        2.6468    6.8576    6.0464 H         1 RES1    0.0000
@<TRIPOS>BOND
     1    1    4 1
     2    2    6 2
     3    3   12 2
     4    4    5 2
     5    5    6 1
     6    6    7 1
     7    7    8 1
     8    8    4 1
     9    9    8 1
    10   10    9 1
    11   11    9 1
    12   12    9 1
    13   13   12 1
    14   14   13 1
    15   15   13 1
    16   16   13 1
    17   17   16 1
    18   18   16 1
    19   19    8 1
    20   20   19 1
    21   21   19 1
    22   22    5 1
    23   23   22 1
    24   24   22 1
    25   25   22 1
    26   26   25 1
    27   27   25 1
    28   28   25 1
    29   29   28 1
    30   30   28 1
    31   31   28 1
    32   32   31 1
    33   33   31 1
    34   34   31 1
    35   35    7 1
    36   36   35 ar
    37   37   36 1
    38   38   36 ar
    39   39   38 1
    40   40   38 ar
    41   41   40 1
    42   42   40 ar
    43   43   42 1
    44   44   35 ar
    45   45   44 1
    46   46    7 1
    47   47   46 ar
    48   48   47 1
    49   49   47 ar
    50   50   49 1
    51   51   49 ar
    52   52   51 1
    53   53   51 ar
    54   54   53 1
    55   55   46 ar
    56   56   55 1
    57   16   19 1
    58   42   44 ar
    59   53   55 ar
@<TRIPOS>SUBSTRUCTURE
     1 RES1 1

@<TRIPOS>CRYSIN
   8.3135   15.2799   16.3755  90.0000 102.1530  90.0000  14 1

