# MOL2 file generated by ConQuest
# Please check atom types

@<TRIPOS>MOLECULE
IWUROJ
    70    74     1
SMALL
USER_CHARGES
****
Generated from CSD

@<TRIPOS>ATOM
      1 O1         8.0203    5.4279    0.2900 O.2       1 RES1   -1.0000
      2 O2        10.2803    4.7760    1.8666 O.3       1 RES1    0.0000
      3 H1        10.6116    4.6943    1.0996 H         1 RES1    0.0000
      4 N1         8.2536    5.9347    1.4595 N.pl3     1 RES1    1.0000
      5 C1         9.6726    6.0100    1.9768 C.3       1 RES1    0.0000
      6 C2         9.4249    6.3911    3.4605 C.3       1 RES1    0.0000
      7 H2        10.0531    7.1238    3.7211 H         1 RES1    0.0000
      8 C3         7.9923    6.9267    3.4713 C.2       1 RES1    0.0000
      9 C4         7.3559    6.5068    2.2333 C.2       1 RES1    0.0000
     10 C5        10.4097    7.0802    1.1511 C.3       1 RES1    0.0000
     11 H3        11.3208    7.1865    1.5220 H         1 RES1    0.0000
     12 H4        10.5042    6.7466    0.2232 H         1 RES1    0.0000
     13 C6         9.7542    8.4435    1.1015 C.ar      1 RES1    0.0000
     14 C7         8.7064    8.7000    0.2160 C.ar      1 RES1    0.0000
     15 H5         8.3899    8.0069   -0.3520 H         1 RES1    0.0000
     16 C8         8.1212    9.9569    0.1552 C.ar      1 RES1    0.0000
     17 H6         7.4051   10.1171   -0.4479 H         1 RES1    0.0000
     18 C9         8.5773   10.9788    0.9712 C.ar      1 RES1    0.0000
     19 H7         8.1786   11.8398    0.9258 H         1 RES1    0.0000
     20 C10        9.6155   10.7385    1.8535 C.ar      1 RES1    0.0000
     21 H8         9.9305   11.4353    2.4178 H         1 RES1    0.0000
     22 C11       10.2000    9.4760    1.9142 C.ar      1 RES1    0.0000
     23 H9        10.9144    9.3194    2.5212 H         1 RES1    0.0000
     24 C12        9.6198    5.2089    4.3933 C.ar      1 RES1    0.0000
     25 C13        8.7131    4.1529    4.4273 C.ar      1 RES1    0.0000
     26 H10        7.9457    4.1744    3.8680 H         1 RES1    0.0000
     27 C14        8.9166    3.0700    5.2680 C.ar      1 RES1    0.0000
     28 H11        8.2877    2.3584    5.2851 H         1 RES1    0.0000
     29 C15       10.0367    3.0219    6.0857 C.ar      1 RES1    0.0000
     30 H12       10.1854    2.2715    6.6483 H         1 RES1    0.0000
     31 C16       10.9342    4.0712    6.0755 C.ar      1 RES1    0.0000
     32 H13       11.6954    4.0505    6.6438 H         1 RES1    0.0000
     33 C17       10.7252    5.1612    5.2328 C.ar      1 RES1    0.0000
     34 H14       11.3465    5.8803    5.2327 H         1 RES1    0.0000
     35 C18        7.4793    7.6402    4.4940 C.2       1 RES1    0.0000
     36 C19        8.2875    7.9014    5.7303 C.ar      1 RES1    0.0000
     37 C20        9.0068    9.0896    5.8460 C.ar      1 RES1    0.0000
     38 H15        9.0069    9.7120    5.1278 H         1 RES1    0.0000
     39 C21        9.7228    9.3717    7.0023 C.ar      1 RES1    0.0000
     40 H16       10.2135   10.1820    7.0678 H         1 RES1    0.0000
     41 C22        9.7246    8.4775    8.0593 C.ar      1 RES1    0.0000
     42 H17       10.2170    8.6712    8.8490 H         1 RES1    0.0000
     43 C23        9.0034    7.2973    7.9594 C.ar      1 RES1    0.0000
     44 H18        8.9959    6.6833    8.6842 H         1 RES1    0.0000
     45 C24        8.2898    7.0093    6.7999 C.ar      1 RES1    0.0000
     46 H19        7.8000    6.1975    6.7367 H         1 RES1    0.0000
     47 C25        6.1318    8.2812    4.5024 C.ar      1 RES1    0.0000
     48 C26        5.8375    9.3374    3.6407 C.ar      1 RES1    0.0000
     49 H20        6.4870    9.6276    3.0111 H         1 RES1    0.0000
     50 C27        4.5964    9.9701    3.6964 C.ar      1 RES1    0.0000
     51 H21        4.3998   10.6836    3.1010 H         1 RES1    0.0000
     52 C28        3.6490    9.5578    4.6201 C.ar      1 RES1    0.0000
     53 H22        2.8051    9.9921    4.6604 H         1 RES1    0.0000
     54 C29        3.9325    8.5112    5.4849 C.ar      1 RES1    0.0000
     55 H23        3.2800    8.2248    6.1135 H         1 RES1    0.0000
     56 C30        5.1712    7.8815    5.4325 C.ar      1 RES1    0.0000
     57 H24        5.3654    7.1730    6.0356 H         1 RES1    0.0000
     58 C31        5.9456    6.5497    1.7461 C.3       1 RES1    0.0000
     59 H25        5.9329    6.8631    0.8074 H         1 RES1    0.0000
     60 H26        5.4307    7.1964    2.2905 H         1 RES1    0.0000
     61 C32        5.2745    5.1680    1.8297 C.3       1 RES1    0.0000
     62 H27        4.4815    5.1587    1.2374 H         1 RES1    0.0000
     63 H28        5.9068    4.4817    1.4980 H         1 RES1    0.0000
     64 C33        4.8454    4.8053    3.2343 C.3       1 RES1    0.0000
     65 H29        4.1589    5.4476    3.5459 H         1 RES1    0.0000
     66 H30        5.6233    4.8680    3.8440 H         1 RES1    0.0000
     67 C34        4.2718    3.3809    3.2809 C.3       1 RES1    0.0000
     68 H31        3.4986    3.3200    2.6815 H         1 RES1    0.0000
     69 H32        3.9932    3.1704    4.1960 H         1 RES1    0.0000
     70 H33        4.9589    2.7426    2.9946 H         1 RES1    0.0000
@<TRIPOS>BOND
     1    1    4 1
     2    2    3 1
     3    4    5 1
     4    5    2 1
     5    6    5 1
     6    7    6 1
     7    8    6 1
     8    9    4 2
     9   10    5 1
    10   11   10 1
    11   12   10 1
    12   13   10 1
    13   14   13 ar
    14   15   14 1
    15   16   14 ar
    16   17   16 1
    17   18   16 ar
    18   19   18 1
    19   20   18 ar
    20   21   20 1
    21   22   13 ar
    22   23   22 1
    23   24    6 1
    24   25   24 ar
    25   26   25 1
    26   27   25 ar
    27   28   27 1
    28   29   27 ar
    29   30   29 1
    30   31   29 ar
    31   32   31 1
    32   33   24 ar
    33   34   33 1
    34   35    8 2
    35   36   35 1
    36   37   36 ar
    37   38   37 1
    38   39   37 ar
    39   40   39 1
    40   41   39 ar
    41   42   41 1
    42   43   41 ar
    43   44   43 1
    44   45   36 ar
    45   46   45 1
    46   47   35 1
    47   48   47 ar
    48   49   48 1
    49   50   48 ar
    50   51   50 1
    51   52   50 ar
    52   53   52 1
    53   54   52 ar
    54   55   54 1
    55   56   47 ar
    56   57   56 1
    57   58    9 1
    58   59   58 1
    59   60   58 1
    60   61   58 1
    61   62   61 1
    62   63   61 1
    63   64   61 1
    64   65   64 1
    65   66   64 1
    66   67   64 1
    67   68   67 1
    68   69   67 1
    69   70   67 1
    70    8    9 1
    71   20   22 ar
    72   31   33 ar
    73   43   45 ar
    74   54   56 ar
@<TRIPOS>SUBSTRUCTURE
     1 RES1 1

@<TRIPOS>CRYSIN
   9.0244    9.8981   15.4496  86.2590  75.9110  80.0330   2 1

