# MOL2 file generated by ConQuest
# Please check atom types

@<TRIPOS>MOLECULE
IWURAV
    75    63     2
SMALL
NO_CHARGES
****
Generated from CSD

@<TRIPOS>ATOM
      1 O1        -0.3942    1.9837   12.1529 O.3       1 RES1    0.0000
      2 O2         2.0436    4.3357    9.6191 O.2       1 RES1    0.0000
      3 O3         3.3984    4.5731   11.3684 O.3       1 RES1    0.0000
      4 H1         3.8583    4.9917   10.8040 H         1 RES1    0.0000
      5 N1         0.2730    2.4242   13.3653 N.3       1 RES1    0.0000
      6 N2         1.5948   -0.6896   13.0122 N.1       1 RES1    0.0000
      7 C1         0.0296    2.9042   11.0969 C.3       1 RES1    0.0000
      8 C2         1.3706    3.3673   11.6429 C.2       1 RES1    0.0000
      9 C3         1.4442    3.0676   12.9570 C.2       1 RES1    0.0000
     10 C4         0.1126    2.0486    9.8338 C.ar      1 RES1    0.0000
     11 C5        -0.4490    2.4369    8.6287 C.ar      1 RES1    0.0000
     12 H2        -0.9133    3.2643    8.5702 H         1 RES1    0.0000
     13 C6        -0.3390    1.6233    7.4997 C.ar      1 RES1    0.0000
     14 H3        -0.7123    1.9082    6.6729 H         1 RES1    0.0000
     15 C7         0.3032    0.4164    7.5774 C.ar      1 RES1    0.0000
     16 H4         0.3618   -0.1452    6.8134 H         1 RES1    0.0000
     17 C8         0.8618    0.0233    8.7658 C.ar      1 RES1    0.0000
     18 H5         1.3094   -0.8123    8.8259 H         1 RES1    0.0000
     19 C9         0.7757    0.8425    9.8765 C.ar      1 RES1    0.0000
     20 H6         1.1849    0.5657   10.6888 H         1 RES1    0.0000
     21 C10       -1.0065    4.0324   11.0345 C.ar      1 RES1    0.0000
     22 C11       -0.6586    5.3696   11.1187 C.ar      1 RES1    0.0000
     23 H7         0.2588    5.6040   11.1927 H         1 RES1    0.0000
     24 C12       -1.6140    6.3766   11.0987 C.ar      1 RES1    0.0000
     25 H8        -1.3541    7.2889   11.1464 H         1 RES1    0.0000
     26 C13       -2.9516    6.0300   11.0073 C.ar      1 RES1    0.0000
     27 H9        -3.6199    6.7054   11.0327 H         1 RES1    0.0000
     28 C14       -3.3179    4.7027   10.8817 C.ar      1 RES1    0.0000
     29 H10       -4.2335    4.4725   10.7800 H         1 RES1    0.0000
     30 C15       -2.3467    3.7013   10.9041 C.ar      1 RES1    0.0000
     31 H11       -2.6053    2.7890   10.8309 H         1 RES1    0.0000
     32 C16        2.2856    4.1257   10.7907 C.2       1 RES1    0.0000
     33 C17        2.4504    3.4373   14.0004 C.3       1 RES1    0.0000
     34 H12        3.2664    3.7808   13.5565 H         1 RES1    0.0000
     35 H13        2.7013    2.6274   14.5119 H         1 RES1    0.0000
     36 C18        1.9224    4.4951   14.9669 C.3       1 RES1    0.0000
     37 H14        1.5829    5.2670   14.4476 H         1 RES1    0.0000
     38 H15        1.1632    4.1164   15.4778 H         1 RES1    0.0000
     39 C19        2.9843    4.9766   15.9380 C.3       1 RES1    0.0000
     40 C20        2.5546    5.8889   16.8803 C.3       1 RES1    0.0000
     41 H16        3.2792    6.0698   17.5142 H         1 RES1    0.0000
     42 H17        1.7836    5.5218   17.3617 H         1 RES1    0.0000
     43 H18        2.2946    6.7218   16.4347 H         1 RES1    0.0000
     44 C21        0.3287    1.2581   14.2482 C.3       1 RES1    0.0000
     45 H19        0.8491    1.5082   15.0651 H         1 RES1    0.0000
     46 C22        1.0359    0.1333   13.5718 C.1       1 RES1    0.0000
     47 C23       -1.0856    0.8537   14.6851 C.3       1 RES1    0.0000
     48 H20       -1.4819    1.5904   15.2147 H         1 RES1    0.0000
     49 H21       -1.6464    0.7260   13.8795 H         1 RES1    0.0000
     50 C24       -1.1126   -0.3822   15.4883 C.ar      1 RES1    0.0000
     51 C25       -2.0528   -1.3876   15.1952 C.ar      1 RES1    0.0000
     52 H22       -2.6612   -1.2671   14.4761 H         1 RES1    0.0000
     53 C26       -2.0996   -2.5575   15.9488 C.ar      1 RES1    0.0000
     54 H23       -2.7379   -3.2287   15.7380 H         1 RES1    0.0000
     55 C27       -1.2275   -2.7452   16.9969 C.ar      1 RES1    0.0000
     56 H24       -1.2667   -3.5410   17.5157 H         1 RES1    0.0000
     57 C28       -0.2990   -1.7726   17.2854 C.ar      1 RES1    0.0000
     58 H25        0.3158   -1.9013   17.9971 H         1 RES1    0.0000
     59 C29       -0.2576   -0.6082   16.5453 C.ar      1 RES1    0.0000
     60 H26        0.3804    0.0575   16.7726 H         1 RES1    0.0000
     61 C30        3.9506    4.2314   16.4960 Du        2 SUP2    0.0000
     62 H27        3.5457    3.5465   17.0686 Du        2 SUP2    0.0000
     63 H28        4.5353    4.8040   17.0358 Du        2 SUP2    0.0000
     64 H29        4.4777    3.7986   15.7918 Du        2 SUP2    0.0000
     65 C31       -1.2119   -0.7164   15.2939 Du        2 SUP2    0.0000
     66 C32       -1.5075   -1.7561   14.5433 Du        2 SUP2    0.0000
     67 H30       -1.6961   -1.6287   13.6208 Du        2 SUP2    0.0000
     68 C33       -1.5488   -3.0205   15.0711 Du        2 SUP2    0.0000
     69 H31       -1.7513   -3.7725   14.5269 Du        2 SUP2    0.0000
     70 C34       -1.2858   -3.1671   16.4123 Du        2 SUP2    0.0000
     71 H32       -1.3834   -4.0205   16.8160 Du        2 SUP2    0.0000
     72 C35       -0.8935   -2.1328   17.1569 Du        2 SUP2    0.0000
     73 H33       -0.6504   -2.2698   18.0644 Du        2 SUP2    0.0000
     74 C36       -0.8517   -0.8698   16.6216 Du        2 SUP2    0.0000
     75 H34       -0.5851   -0.1247   17.1449 Du        2 SUP2    0.0000
@<TRIPOS>BOND
     1    1    5 1
     2    2   32 2
     3    3    4 1
     4    5    9 1
     5    6   46 3
     6    7    1 1
     7    8    7 1
     8    9    8 2
     9   10    7 1
    10   11   10 ar
    11   12   11 1
    12   13   11 ar
    13   14   13 1
    14   15   13 ar
    15   16   15 1
    16   17   15 ar
    17   18   17 1
    18   19   10 ar
    19   20   19 1
    20   21    7 1
    21   22   21 ar
    22   23   22 1
    23   24   22 ar
    24   25   24 1
    25   26   24 ar
    26   27   26 1
    27   28   26 ar
    28   29   28 1
    29   30   21 ar
    30   31   30 1
    31   32    3 1
    32   33    9 1
    33   34   33 1
    34   35   33 1
    35   36   33 1
    36   37   36 1
    37   38   36 1
    38   39   36 1
    39   40   39 1
    40   41   40 1
    41   42   40 1
    42   43   40 1
    43   44    5 1
    44   45   44 1
    45   46   44 1
    46   47   44 1
    47   48   47 1
    48   49   47 1
    49   50   47 1
    50   51   50 ar
    51   52   51 1
    52   53   51 ar
    53   54   53 1
    54   55   53 ar
    55   56   55 1
    56   57   55 ar
    57   58   57 1
    58   59   50 ar
    59   60   59 1
    60    8   32 1
    61   17   19 ar
    62   28   30 ar
    63   57   59 ar
@<TRIPOS>SUBSTRUCTURE
     1 RES1 1
     2 SUP2 61

@<TRIPOS>CRYSIN
  11.6225   13.6984   15.3427  90.0000 102.9660  90.0000  14 1

