# MOL2 file generated by ConQuest
# Please check atom types

@<TRIPOS>MOLECULE
IWURID
    70    74     1
SMALL
USER_CHARGES
****
Generated from CSD

@<TRIPOS>ATOM
      1 O1         1.7622    3.5539   10.3367 O.2       1 RES1   -1.0000
      2 O2         4.3287    5.5970    6.9971 O.3       1 RES1    0.0000
      3 H1         3.7110    5.4516    6.4471 H         1 RES1    0.0000
      4 N1         2.2112    4.4831    9.5310 N.pl3     1 RES1    1.0000
      5 C1         3.6007    4.4059    9.0374 C.3       1 RES1    0.0000
      6 H2         4.2217    4.3840    9.8204 H         1 RES1    0.0000
      7 C2         3.7804    5.7673    8.2868 C.3       1 RES1    0.0000
      8 C3         2.3586    6.3511    8.2598 C.2       1 RES1    0.0000
      9 C4         3.7853    3.1421    8.2312 C.ar      1 RES1    0.0000
     10 C5         1.5065    5.4740    9.0562 C.2       1 RES1    0.0000
     11 C6         2.8026    2.6756    7.3713 C.ar      1 RES1    0.0000
     12 H3         1.9992    3.1712    7.2617 H         1 RES1    0.0000
     13 C7         2.9794    1.4921    6.6684 C.ar      1 RES1    0.0000
     14 H4         2.3000    1.1813    6.0804 H         1 RES1    0.0000
     15 C8         4.1444    0.7664    6.8234 C.ar      1 RES1    0.0000
     16 H5         4.2639   -0.0490    6.3502 H         1 RES1    0.0000
     17 C9         5.1289    1.2253    7.6632 C.ar      1 RES1    0.0000
     18 H6         5.9351    0.7315    7.7623 H         1 RES1    0.0000
     19 C10        4.9503    2.4104    8.3682 C.ar      1 RES1    0.0000
     20 H7         5.6349    2.7197    8.9499 H         1 RES1    0.0000
     21 C11        4.7298    6.6812    9.0711 C.3       1 RES1    0.0000
     22 H8         4.7660    7.5570    8.6116 H         1 RES1    0.0000
     23 H9         4.3433    6.8342    9.9689 H         1 RES1    0.0000
     24 C12        6.1426    6.1770    9.2429 C.ar      1 RES1    0.0000
     25 C13        6.5707    5.6719   10.4674 C.ar      1 RES1    0.0000
     26 H10        5.9510    5.5899   11.1829 H         1 RES1    0.0000
     27 C14        7.8903    5.2867   10.6581 C.ar      1 RES1    0.0000
     28 H11        8.1650    4.9353   11.4970 H         1 RES1    0.0000
     29 C15        8.8053    5.4124    9.6328 C.ar      1 RES1    0.0000
     30 H12        9.7139    5.1698    9.7698 H         1 RES1    0.0000
     31 C16        8.3948    5.8931    8.4062 C.ar      1 RES1    0.0000
     32 H13        9.0193    5.9679    7.6948 H         1 RES1    0.0000
     33 C17        7.0748    6.2664    8.2102 C.ar      1 RES1    0.0000
     34 H14        6.8008    6.5874    7.3587 H         1 RES1    0.0000
     35 C18        1.9760    7.5041    7.6685 C.2       1 RES1    0.0000
     36 C19        2.9051    8.4653    6.9972 C.ar      1 RES1    0.0000
     37 C20        3.2933    8.2943    5.6715 C.ar      1 RES1    0.0000
     38 H15        3.0247    7.5150    5.1984 H         1 RES1    0.0000
     39 C21        4.0665    9.2506    5.0403 C.ar      1 RES1    0.0000
     40 H16        4.3292    9.1198    4.1372 H         1 RES1    0.0000
     41 C22        4.4611   10.3944    5.7105 C.ar      1 RES1    0.0000
     42 H17        4.9870   11.0519    5.2690 H         1 RES1    0.0000
     43 C23        4.0839   10.5708    7.0236 C.ar      1 RES1    0.0000
     44 H18        4.3610   11.3495    7.4936 H         1 RES1    0.0000
     45 C24        3.3069    9.6244    7.6611 C.ar      1 RES1    0.0000
     46 H19        3.0421    9.7639    8.5632 H         1 RES1    0.0000
     47 C25        0.5430    7.9369    7.5958 C.ar      1 RES1    0.0000
     48 C26        0.0172    8.8701    8.4852 C.ar      1 RES1    0.0000
     49 H20        0.5761    9.2546    9.1501 H         1 RES1    0.0000
     50 C27       -1.3160    9.2436    8.4072 C.ar      1 RES1    0.0000
     51 H21       -1.6689    9.8724    9.0258 H         1 RES1    0.0000
     52 C28       -2.1297    8.7038    7.4335 C.ar      1 RES1    0.0000
     53 H22       -3.0454    8.9501    7.3882 H         1 RES1    0.0000
     54 C29       -1.6115    7.8085    6.5314 C.ar      1 RES1    0.0000
     55 H23       -2.1689    7.4520    5.8496 H         1 RES1    0.0000
     56 C30       -0.2776    7.4192    6.6042 C.ar      1 RES1    0.0000
     57 H24        0.0716    6.7992    5.9750 H         1 RES1    0.0000
     58 C31        0.0568    5.5067    9.4073 C.3       1 RES1    0.0000
     59 H25       -0.2867    6.4299    9.3103 H         1 RES1    0.0000
     60 H26       -0.0600    5.2346   10.3525 H         1 RES1    0.0000
     61 C32       -0.7427    4.5667    8.5021 C.3       1 RES1    0.0000
     62 H27       -0.5781    4.8111    7.5568 H         1 RES1    0.0000
     63 H28       -0.4223    3.6402    8.6348 H         1 RES1    0.0000
     64 C33       -2.2332    4.6199    8.7760 C.3       1 RES1    0.0000
     65 H29       -2.4052    4.2965    9.6960 H         1 RES1    0.0000
     66 H30       -2.5394    5.5601    8.7212 H         1 RES1    0.0000
     67 C34       -3.0256    3.7857    7.8044 C.3       1 RES1    0.0000
     68 H31       -3.9752    3.8205    8.0426 H         1 RES1    0.0000
     69 H32       -2.7140    2.8579    7.8413 H         1 RES1    0.0000
     70 H33       -2.9023    4.1355    6.8971 H         1 RES1    0.0000
@<TRIPOS>BOND
     1    1    4 1
     2    2    3 1
     3    4    5 1
     4    5    6 1
     5    7    2 1
     6    8    7 1
     7    9    5 1
     8   10    4 2
     9   11    9 ar
    10   12   11 1
    11   13   11 ar
    12   14   13 1
    13   15   13 ar
    14   16   15 1
    15   17   15 ar
    16   18   17 1
    17   19    9 ar
    18   20   19 1
    19   21    7 1
    20   22   21 1
    21   23   21 1
    22   24   21 1
    23   25   24 ar
    24   26   25 1
    25   27   25 ar
    26   28   27 1
    27   29   27 ar
    28   30   29 1
    29   31   29 ar
    30   32   31 1
    31   33   24 ar
    32   34   33 1
    33   35    8 2
    34   36   35 1
    35   37   36 ar
    36   38   37 1
    37   39   37 ar
    38   40   39 1
    39   41   39 ar
    40   42   41 1
    41   43   41 ar
    42   44   43 1
    43   45   36 ar
    44   46   45 1
    45   47   35 1
    46   48   47 ar
    47   49   48 1
    48   50   48 ar
    49   51   50 1
    50   52   50 ar
    51   53   52 1
    52   54   52 ar
    53   55   54 1
    54   56   47 ar
    55   57   56 1
    56   58   10 1
    57   59   58 1
    58   60   58 1
    59   61   58 1
    60   62   61 1
    61   63   61 1
    62   64   61 1
    63   65   64 1
    64   66   64 1
    65   67   64 1
    66   68   67 1
    67   69   67 1
    68   70   67 1
    69    5    7 1
    70    8   10 1
    71   17   19 ar
    72   31   33 ar
    73   43   45 ar
    74   54   56 ar
@<TRIPOS>SUBSTRUCTURE
     1 RES1 1

@<TRIPOS>CRYSIN
  14.7141   17.5011   10.6302  90.0000  97.5520  90.0000  14 1

