# MOL2 file generated by ConQuest
# Please check atom types

@<TRIPOS>MOLECULE
IWUSAW
    64    67     1
SMALL
USER_CHARGES
****
Generated from CSD

@<TRIPOS>ATOM
      1 O1         5.4000   -1.3131    5.4774 O.2       1 RES1   -1.0000
      2 O2         5.5869    1.0302    2.8883 O.3       1 RES1    0.0000
      3 O3         4.2359    1.2842    7.0973 O.2       1 RES1    0.0000
      4 O4        -1.3293    0.1225    4.1946 O.2       1 RES1    0.0000
      5 O5        -1.1052    2.2229    3.7417 O.2       1 RES1    0.0000
      6 N1         5.5939   -0.7061    4.3544 N.pl3     1 RES1    1.0000
      7 N2        -0.6402    1.1056    3.9505 N.pl3     1 RES1    0.0000
      8 C1         5.0731    0.6703    4.1731 C.3       1 RES1    0.0000
      9 C2         6.3450   -0.0197    2.3704 C.2       1 RES1    0.0000
     10 C3         6.3195   -1.0986    3.3345 C.2       1 RES1    0.0000
     11 C4         3.5539    0.7289    4.1188 C.ar      1 RES1    0.0000
     12 C5         2.9745    1.9074    3.6480 C.ar      1 RES1    0.0000
     13 C6         1.6003    2.0293    3.5672 C.ar      1 RES1    0.0000
     14 C7         0.8230    0.9522    3.9542 C.ar      1 RES1    0.0000
     15 C8         1.3647   -0.2413    4.3880 C.ar      1 RES1    0.0000
     16 C9         2.7477   -0.3429    4.4838 C.ar      1 RES1    0.0000
     17 C10        5.7063    1.5714    5.2404 C.3       1 RES1    0.0000
     18 C11        5.3649    1.1682    6.6757 C.2       1 RES1    0.0000
     19 C12        6.5145    0.7422    7.5403 C.3       1 RES1    0.0000
     20 C13        6.9921    0.0950    1.1897 C.2       1 RES1    0.0000
     21 C14        7.0854    1.3628    0.4254 C.ar      1 RES1    0.0000
     22 C15        7.1930    1.3261   -0.9739 C.ar      1 RES1    0.0000
     23 C16        7.2866    2.5008   -1.7084 C.ar      1 RES1    0.0000
     24 C17        7.2817    3.7333   -1.0744 C.ar      1 RES1    0.0000
     25 C18        7.2075    3.7813    0.3108 C.ar      1 RES1    0.0000
     26 C19        7.1143    2.6133    1.0547 C.ar      1 RES1    0.0000
     27 C20        7.6694   -1.1122    0.6244 C.ar      1 RES1    0.0000
     28 C21        9.0642   -1.1939    0.6295 C.ar      1 RES1    0.0000
     29 C22        9.7075   -2.3379    0.1766 C.ar      1 RES1    0.0000
     30 C23        8.9648   -3.4106   -0.2944 C.ar      1 RES1    0.0000
     31 C24        7.5826   -3.3307   -0.3301 C.ar      1 RES1    0.0000
     32 C25        6.9328   -2.1818    0.1179 C.ar      1 RES1    0.0000
     33 C26        7.0259   -2.4063    3.4143 C.3       1 RES1    0.0000
     34 C27        6.0945   -3.5943    3.1334 C.3       1 RES1    0.0000
     35 C28        6.8306   -4.9185    3.2652 C.3       1 RES1    0.0000
     36 C29        5.9078   -6.1144    3.1105 C.3       1 RES1    0.0000
     37 H1         3.5287    2.6313    3.3808 H         1 RES1    0.0000
     38 H2         1.1999    2.8319    3.2542 H         1 RES1    0.0000
     39 H3         0.8059   -0.9752    4.6155 H         1 RES1    0.0000
     40 H4         3.1429   -1.1471    4.7995 H         1 RES1    0.0000
     41 H5         6.6899    1.5531    5.1299 H         1 RES1    0.0000
     42 H6         5.4045    2.5024    5.0909 H         1 RES1    0.0000
     43 H7         7.1080    1.5065    7.6947 H         1 RES1    0.0000
     44 H8         7.0128    0.0270    7.0925 H         1 RES1    0.0000
     45 H9         6.1738    0.4148    8.3988 H         1 RES1    0.0000
     46 H10        7.2019    0.4890   -1.4229 H         1 RES1    0.0000
     47 H11        7.3548    2.4593   -2.6551 H         1 RES1    0.0000
     48 H12        7.3285    4.5352   -1.5816 H         1 RES1    0.0000
     49 H13        7.2204    4.6216    0.7539 H         1 RES1    0.0000
     50 H14        7.0697    2.6628    2.0024 H         1 RES1    0.0000
     51 H15        9.5773   -0.4597    0.9460 H         1 RES1    0.0000
     52 H16       10.6562   -2.3859    0.1892 H         1 RES1    0.0000
     53 H17        9.4036   -4.1989   -0.5920 H         1 RES1    0.0000
     54 H18        7.0750   -4.0622   -0.6614 H         1 RES1    0.0000
     55 H19        5.9852   -2.1274    0.0779 H         1 RES1    0.0000
     56 H20        7.4177   -2.5083    4.3177 H         1 RES1    0.0000
     57 H21        7.7679   -2.4144    2.7590 H         1 RES1    0.0000
     58 H22        5.3369   -3.5751    3.7704 H         1 RES1    0.0000
     59 H23        5.7263   -3.5132    2.2180 H         1 RES1    0.0000
     60 H24        7.5395   -4.9650    2.5756 H         1 RES1    0.0000
     61 H25        7.2676   -4.9592    4.1526 H         1 RES1    0.0000
     62 H26        5.5053   -6.1031    2.2170 H         1 RES1    0.0000
     63 H27        5.2008   -6.0712    3.7877 H         1 RES1    0.0000
     64 H28        6.4216   -6.9408    3.2268 H         1 RES1    0.0000
@<TRIPOS>BOND
     1    1    6 1
     2    2    8 1
     3    3   18 2
     4    4    7 2
     5    5    7 2
     6    6    8 1
     7    7   14 1
     8    8   11 1
     9    9    2 1
    10   10    6 2
    11   11   12 ar
    12   12   13 ar
    13   13   14 ar
    14   14   15 ar
    15   15   16 ar
    16   16   11 ar
    17   17    8 1
    18   18   17 1
    19   19   18 1
    20   20    9 2
    21   21   20 1
    22   22   21 ar
    23   23   22 ar
    24   24   23 ar
    25   25   24 ar
    26   26   21 ar
    27   27   20 1
    28   28   27 ar
    29   29   28 ar
    30   30   29 ar
    31   31   30 ar
    32   32   27 ar
    33   33   10 1
    34   34   33 1
    35   35   34 1
    36   36   35 1
    37   37   12 1
    38   38   13 1
    39   39   15 1
    40   40   16 1
    41   41   17 1
    42   42   17 1
    43   43   19 1
    44   44   19 1
    45   45   19 1
    46   46   22 1
    47   47   23 1
    48   48   24 1
    49   49   25 1
    50   50   26 1
    51   51   28 1
    52   52   29 1
    53   53   30 1
    54   54   31 1
    55   55   32 1
    56   56   33 1
    57   57   33 1
    58   58   34 1
    59   59   34 1
    60   60   35 1
    61   61   35 1
    62   62   36 1
    63   63   36 1
    64   64   36 1
    65    9   10 1
    66   25   26 ar
    67   31   32 ar
@<TRIPOS>SUBSTRUCTURE
     1 RES1 1

@<TRIPOS>CRYSIN
  10.2498   11.1701   12.3055 110.3286 106.5756  94.1935   2 1

