# MOL2 file generated by ConQuest
# Please check atom types

@<TRIPOS>MOLECULE
IXAGIX
    25    27     1
SMALL
NO_CHARGES
****
Generated from CSD

@<TRIPOS>ATOM
      1 O1         2.4799    1.4135    8.9776 O.2       1 RES1    0.0000
      2 N1         2.8251    2.6409    8.9839 N.2       1 RES1    0.0000
      3 C1         3.1497    3.1564    7.7903 C.2       1 RES1    0.0000
      4 C2         3.5215    4.4949    7.5040 C.2       1 RES1    0.0000
      5 N2         3.7799    4.6550    6.1906 N.2       1 RES1    0.0000
      6 C3         3.6024    3.4443    5.6126 C.2       1 RES1    0.0000
      7 N3         3.2089    2.4974    6.5446 N.pl3     1 RES1    0.0000
      8 C4         2.9879    1.1978    6.1710 C.2       1 RES1    0.0000
      9 H1         2.7113    0.5406    6.7990 H         1 RES1    0.0000
     10 C5         3.1825    0.8942    4.8645 C.2       1 RES1    0.0000
     11 H2         3.0527    0.0046    4.5567 H         1 RES1    0.0000
     12 C6         3.5738    1.8948    3.9731 C.2       1 RES1    0.0000
     13 H3         3.7098    1.6560    3.0633 H         1 RES1    0.0000
     14 N4         3.7697    3.1675    4.3232 N.2       1 RES1    0.0000
     15 C7         3.6352    5.6344    8.4329 C.ar      1 RES1    0.0000
     16 C8         3.3325    5.5233    9.7857 C.ar      1 RES1    0.0000
     17 H4         3.0197    4.6967   10.1334 H         1 RES1    0.0000
     18 C9         3.4852    6.6193   10.6327 C.ar      1 RES1    0.0000
     19 H5         3.2776    6.5387   11.5563 H         1 RES1    0.0000
     20 C10        3.9402    7.8281   10.1257 C.ar      1 RES1    0.0000
     21 H6         4.0578    8.5733   10.7032 H         1 RES1    0.0000
     22 C11        4.2213    7.9429    8.7809 C.ar      1 RES1    0.0000
     23 H7         4.5218    8.7760    8.4378 H         1 RES1    0.0000
     24 C12        4.0728    6.8682    7.9217 C.ar      1 RES1    0.0000
     25 H8         4.2652    6.9636    6.9966 H         1 RES1    0.0000
@<TRIPOS>BOND
     1    1    2 2
     2    2    3 1
     3    3    4 2
     4    4    5 1
     5    5    6 2
     6    6    7 1
     7    7    3 1
     8    8    7 1
     9    9    8 1
    10   10    8 2
    11   11   10 1
    12   12   10 1
    13   13   12 1
    14   14    6 1
    15   15    4 1
    16   16   15 ar
    17   17   16 1
    18   18   16 ar
    19   19   18 1
    20   20   18 ar
    21   21   20 1
    22   22   20 ar
    23   23   22 1
    24   24   15 ar
    25   25   24 1
    26   12   14 2
    27   22   24 ar
@<TRIPOS>SUBSTRUCTURE
     1 RES1 1

@<TRIPOS>CRYSIN
   7.0734    9.2564   15.7040  90.0000 102.7550  90.0000 231 1

