# MOL2 file generated by ConQuest
# Please check atom types

@<TRIPOS>MOLECULE
IXAHIY
    35    36     1
SMALL
NO_CHARGES
****
Generated from CSD

@<TRIPOS>ATOM
      1 O1         4.5602    6.6219    5.4933 O.3       1 RES1    0.0000
      2 H1         4.9901    6.4331    6.2572 H         1 RES1    0.0000
      3 N1         3.4527    7.4407    5.9495 N.3       1 RES1    0.0000
      4 N2         6.3345   10.8210    5.1573 N.ar      1 RES1    0.0000
      5 N3         0.4551    5.8700    7.5737 N.ar      1 RES1    0.0000
      6 C1         3.7768    8.8130    5.5612 C.3       1 RES1    0.0000
      7 H2         2.9672    9.3773    5.6378 H         1 RES1    0.0000
      8 H3         4.0728    8.8267    4.6170 H         1 RES1    0.0000
      9 C2         4.8766    9.3811    6.4457 C.3       1 RES1    0.0000
     10 H4         4.5525    9.4244    7.3802 H         1 RES1    0.0000
     11 H5         5.6582    8.7737    6.4235 H         1 RES1    0.0000
     12 C3         5.3060   10.7510    6.0090 C.ar      1 RES1    0.0000
     13 C4         4.6772   11.8894    6.4661 C.ar      1 RES1    0.0000
     14 H6         3.9500   11.8180    7.0735 H         1 RES1    0.0000
     15 C5         5.1007   13.1338    6.0439 C.ar      1 RES1    0.0000
     16 H7         4.6807   13.9231    6.3640 H         1 RES1    0.0000
     17 C6         6.1309   13.2069    5.1602 C.ar      1 RES1    0.0000
     18 H8         6.4369   14.0453    4.8352 H         1 RES1    0.0000
     19 C7         6.7147   12.0402    4.7527 C.ar      1 RES1    0.0000
     20 H9         7.4390   12.0977    4.1410 H         1 RES1    0.0000
     21 C8         2.2932    6.9524    5.2104 C.3       1 RES1    0.0000
     22 H10        2.4992    6.9527    4.2417 H         1 RES1    0.0000
     23 H11        1.5292    7.5636    5.3601 H         1 RES1    0.0000
     24 C9         1.9001    5.5398    5.6429 C.3       1 RES1    0.0000
     25 H12        1.0829    5.2672    5.1556 H         1 RES1    0.0000
     26 H13        2.6244    4.9124    5.3952 H         1 RES1    0.0000
     27 C10        1.6462    5.4409    7.1248 C.ar      1 RES1    0.0000
     28 C11        2.6068    4.9324    7.9873 C.ar      1 RES1    0.0000
     29 H14        3.4451    4.6401    7.6487 H         1 RES1    0.0000
     30 C12        2.3377    4.8529    9.3408 C.ar      1 RES1    0.0000
     31 H15        2.9841    4.5017    9.9420 H         1 RES1    0.0000
     32 C13        1.1162    5.2926    9.8034 C.ar      1 RES1    0.0000
     33 H16        0.9009    5.2510   10.7278 H         1 RES1    0.0000
     34 C14        0.2170    5.7942    8.8906 C.ar      1 RES1    0.0000
     35 H17       -0.6213    6.1048    9.2127 H         1 RES1    0.0000
@<TRIPOS>BOND
     1    1    2 1
     2    3    1 1
     3    4   12 ar
     4    5   27 ar
     5    6    3 1
     6    7    6 1
     7    8    6 1
     8    9    6 1
     9   10    9 1
    10   11    9 1
    11   12    9 1
    12   13   12 ar
    13   14   13 1
    14   15   13 ar
    15   16   15 1
    16   17   15 ar
    17   18   17 1
    18   19    4 ar
    19   20   19 1
    20   21    3 1
    21   22   21 1
    22   23   21 1
    23   24   21 1
    24   25   24 1
    25   26   24 1
    26   27   24 1
    27   28   27 ar
    28   29   28 1
    29   30   28 ar
    30   31   30 1
    31   32   30 ar
    32   33   32 1
    33   34    5 ar
    34   35   34 1
    35   17   19 ar
    36   32   34 ar
@<TRIPOS>SUBSTRUCTURE
     1 RES1 1

@<TRIPOS>CRYSIN
   5.8501   14.7210   15.2578  90.0000  90.0000  90.0000  19 1

