# MOL2 file generated by ConQuest
# Please check atom types

@<TRIPOS>MOLECULE
IXAKID
    47    49     1
SMALL
NO_CHARGES
****
Generated from CSD

@<TRIPOS>ATOM
      1 C1         2.1631    6.4265    5.8122 C.ar      1 RES1    0.0000
      2 H1         2.5516    6.9239    5.1017 H         1 RES1    0.0000
      3 C2         2.8746    5.3926    6.3947 C.ar      1 RES1    0.0000
      4 H2         3.7531    5.1936    6.0946 H         1 RES1    0.0000
      5 C3         2.3087    4.6481    7.4141 C.ar      1 RES1    0.0000
      6 H3         2.8035    3.9468    7.8205 H         1 RES1    0.0000
      7 C4         1.0205    4.9260    7.8409 C.ar      1 RES1    0.0000
      8 H4         0.6255    4.3972    8.5235 H         1 RES1    0.0000
      9 C5        -1.1085    6.2053    7.7386 C.2       1 RES1    0.0000
     10 C6        -1.5363    7.2751    8.6604 C.2       1 RES1    0.0000
     11 H5        -2.2211    7.0284    9.2700 H         1 RES1    0.0000
     12 C7        -1.1078    8.5420    8.7705 C.2       1 RES1    0.0000
     13 C8        -0.0415    9.1470    7.8623 C.3       1 RES1    0.0000
     14 H6        -0.1379   10.1355    7.9762 H         1 RES1    0.0000
     15 C9        -0.3270    8.8937    6.3882 C.2       1 RES1    0.0000
     16 H7        -0.8778    9.5245    5.9402 H         1 RES1    0.0000
     17 C10        0.1242    7.8717    5.6721 C.2       1 RES1    0.0000
     18 H8        -0.0454    7.8638    4.7373 H         1 RES1    0.0000
     19 C11        0.8782    6.7464    6.2587 C.ar      1 RES1    0.0000
     20 C12        0.2988    5.9780    7.2743 C.ar      1 RES1    0.0000
     21 C13        1.4030    8.8414    8.2754 C.ar      1 RES1    0.0000
     22 C14        1.7592    7.9437    9.2710 C.ar      1 RES1    0.0000
     23 H9         1.0817    7.4925    9.7617 H         1 RES1    0.0000
     24 C15        3.1029    7.6955    9.5605 C.ar      1 RES1    0.0000
     25 H10        3.3343    7.0633   10.2304 H         1 RES1    0.0000
     26 C16        4.0964    8.3667    8.8743 C.ar      1 RES1    0.0000
     27 H11        5.0103    8.1978    9.0708 H         1 RES1    0.0000
     28 C17        3.7526    9.2878    7.8977 C.ar      1 RES1    0.0000
     29 H12        4.4327    9.7591    7.4303 H         1 RES1    0.0000
     30 C18        2.4185    9.5228    7.6015 C.ar      1 RES1    0.0000
     31 H13        2.1918   10.1559    6.9304 H         1 RES1    0.0000
     32 C19       -1.7229    9.5157    9.7846 C.3       1 RES1    0.0000
     33 C20       -2.7097    8.8454   10.7403 C.3       1 RES1    0.0000
     34 H14       -3.4652    8.4843   10.2304 H         1 RES1    0.0000
     35 H15       -3.0379    9.5049   11.3859 H         1 RES1    0.0000
     36 H16       -2.2594    8.1171   11.2166 H         1 RES1    0.0000
     37 C21       -2.4837   10.6104    9.0239 C.3       1 RES1    0.0000
     38 H17       -1.8556   11.1205    8.4707 H         1 RES1    0.0000
     39 H18       -2.9185   11.2115    9.6642 H         1 RES1    0.0000
     40 H19       -3.1627   10.1976    8.4504 H         1 RES1    0.0000
     41 C22       -0.6153   10.1758   10.6292 C.3       1 RES1    0.0000
     42 H20       -0.1598    9.4913   11.1638 H         1 RES1    0.0000
     43 H21       -1.0126   10.8443   11.2247 H         1 RES1    0.0000
     44 H22        0.0313   10.6106   10.0367 H         1 RES1    0.0000
     45 N1        -1.9076    5.2658    7.3692 N.2       1 RES1    0.0000
     46 O1        -3.2200    5.4113    7.8665 O.3       1 RES1    0.0000
     47 H23       -3.7072    4.8009    7.5563 H         1 RES1    0.0000
@<TRIPOS>BOND
     1    1    2 1
     2    3    1 ar
     3    4    3 1
     4    5    3 ar
     5    6    5 1
     6    7    5 ar
     7    8    7 1
     8    9   10 1
     9   10   11 1
    10   12   10 2
    11   13   12 1
    12   14   13 1
    13   15   13 1
    14   16   15 1
    15   17   15 2
    16   18   17 1
    17   19    1 ar
    18   20    7 ar
    19   21   13 1
    20   22   21 ar
    21   23   22 1
    22   24   22 ar
    23   25   24 1
    24   26   24 ar
    25   27   26 1
    26   28   26 ar
    27   29   28 1
    28   30   21 ar
    29   31   30 1
    30   32   12 1
    31   33   32 1
    32   34   33 1
    33   35   33 1
    34   36   33 1
    35   37   32 1
    36   38   37 1
    37   39   37 1
    38   40   37 1
    39   41   32 1
    40   42   41 1
    41   43   41 1
    42   44   41 1
    43   45    9 2
    44   46   45 1
    45   47   46 1
    46    9   20 1
    47   17   19 1
    48   19   20 ar
    49   28   30 ar
@<TRIPOS>SUBSTRUCTURE
     1 RES1 1

@<TRIPOS>CRYSIN
  15.2286    8.4987   14.7188  90.0000 113.0210  90.0000  14 1

