# MOL2 file generated by ConQuest
# Please check atom types

@<TRIPOS>MOLECULE
IXIJEG
    41    41     1
SMALL
NO_CHARGES
****
Generated from CSD

@<TRIPOS>ATOM
      1 C1         7.8343    4.2110    5.9531 C.3       1 RES1    0.0000
      2 C2         9.2157    4.8094    5.5860 C.3       1 RES1    0.0000
      3 H1         9.8907    4.4815    6.2326 H         1 RES1    0.0000
      4 H2         9.4776    4.4882    4.6864 H         1 RES1    0.0000
      5 C3         9.2254    6.3165    5.5895 C.ar      1 RES1    0.0000
      6 C4         9.5348    7.0110    6.7597 C.ar      1 RES1    0.0000
      7 H3         9.7153    6.5270    7.5567 H         1 RES1    0.0000
      8 C5         9.5832    8.4008    6.7755 C.ar      1 RES1    0.0000
      9 H4         9.7878    8.8748    7.5730 H         1 RES1    0.0000
     10 C6         9.3238    9.0734    5.5931 C.ar      1 RES1    0.0000
     11 C7         9.0074    8.4211    4.4130 C.ar      1 RES1    0.0000
     12 H5         8.8290    8.9109    3.6189 H         1 RES1    0.0000
     13 C8         8.9565    7.0305    4.4194 C.ar      1 RES1    0.0000
     14 H6         8.7374    6.5631    3.6220 H         1 RES1    0.0000
     15 C9         6.8400    4.4908    4.9026 C.1       1 RES1    0.0000
     16 C10        6.0745    4.7455    4.0222 C.1       1 RES1    0.0000
     17 C11        5.1126    5.0905    2.9483 C.3       1 RES1    0.0000
     18 C12        3.7194    5.1317    3.5201 C.3       1 RES1    0.0000
     19 H7         3.4816    4.2461    3.8644 H         1 RES1    0.0000
     20 H8         3.0861    5.3912    2.8184 H         1 RES1    0.0000
     21 H9         3.6843    5.7859    4.2494 H         1 RES1    0.0000
     22 C13        5.2187    4.0989    1.8283 C.3       1 RES1    0.0000
     23 H10        6.1240    4.1230    1.4545 H         1 RES1    0.0000
     24 H11        4.5695    4.3237    1.1296 H         1 RES1    0.0000
     25 H12        5.0318    3.1986    2.1695 H         1 RES1    0.0000
     26 C14        5.4534    6.5042    2.4354 C.3       1 RES1    0.0000
     27 H13        5.4161    7.1397    3.1810 H         1 RES1    0.0000
     28 H14        4.8061    6.7678    1.7489 H         1 RES1    0.0000
     29 H15        6.3550    6.5042    2.0514 H         1 RES1    0.0000
     30 C15        8.0217    2.6896    6.1043 C.2       1 RES1    0.0000
     31 C16        8.7240    0.6967    5.0549 C.3       1 RES1    0.0000
     32 H16        9.4882    0.5405    5.6479 H         1 RES1    0.0000
     33 H17        8.9320    0.3612    4.1578 H         1 RES1    0.0000
     34 H18        7.9385    0.2274    5.4045 H         1 RES1    0.0000
     35 N1         9.4240   10.5394    5.5897 N.pl3     1 RES1    0.0000
     36 O1         7.4166    4.7421    7.1981 O.3       1 RES1    0.0000
     37 H19        7.2672    4.1136    7.7349 H         1 RES1    0.0000
     38 O2         7.8394    2.1174    7.1413 O.2       1 RES1    0.0000
     39 O3         8.4464    2.1246    4.9872 O.3       1 RES1    0.0000
     40 O4         9.5480   11.1232    6.6584 O.2       1 RES1    0.0000
     41 O5         9.3788   11.1198    4.5124 O.2       1 RES1    0.0000
@<TRIPOS>BOND
     1    1    2 1
     2    2    3 1
     3    4    2 1
     4    5    2 1
     5    6    5 ar
     6    7    6 1
     7    8    6 ar
     8    9    8 1
     9   10    8 ar
    10   11   10 ar
    11   12   11 1
    12   13    5 ar
    13   14   13 1
    14   15    1 1
    15   16   15 3
    16   17   16 1
    17   18   17 1
    18   19   18 1
    19   20   18 1
    20   21   18 1
    21   22   17 1
    22   23   22 1
    23   24   22 1
    24   25   22 1
    25   26   17 1
    26   27   26 1
    27   28   26 1
    28   29   26 1
    29   30    1 1
    30   31   32 1
    31   33   31 1
    32   34   31 1
    33   35   10 1
    34   36    1 1
    35   37   36 1
    36   38   30 2
    37   39   30 1
    38   40   35 2
    39   41   35 2
    40   11   13 ar
    41   31   39 1
@<TRIPOS>SUBSTRUCTURE
     1 RES1 1

@<TRIPOS>CRYSIN
  12.1249   13.3777   10.4716  90.0000 103.4220  90.0000  14 1

