# MOL2 file generated by ConQuest
# Please check atom types

@<TRIPOS>MOLECULE
IXIZIA
    24    26     1
SMALL
NO_CHARGES
****
Generated from CSD

@<TRIPOS>ATOM
      1 O1        -0.5096    0.0861   11.8084 O.2       1 RES1    0.0000
      2 O2         1.1285    0.2683   13.2184 O.2       1 RES1    0.0000
      3 O3         0.9737    2.6978    7.8544 O.3       1 RES1    0.0000
      4 N1         3.1614    2.7990   10.8015 N.ar      1 RES1    0.0000
      5 N2         3.4020    3.7928    8.7287 N.pl3     1 RES1    0.0000
      6 H1         4.1071    4.2021    9.0457 H         1 RES1    0.0000
      7 N3         0.5886    0.5338   12.1482 N.pl3     1 RES1    0.0000
      8 C1         2.6911    3.0069    9.5635 C.ar      1 RES1    0.0000
      9 C2         1.4660    2.4361    9.1118 C.ar      1 RES1    0.0000
     10 C3         0.7476    1.6348    9.9451 C.ar      1 RES1    0.0000
     11 H2        -0.0781    1.2509    9.6759 H         1 RES1    0.0000
     12 C4         1.2831    1.4017   11.2237 C.ar      1 RES1    0.0000
     13 C5         2.4653    1.9867   11.6132 C.ar      1 RES1    0.0000
     14 H3         2.7998    1.8103   12.4852 H         1 RES1    0.0000
     15 C6         2.9602    4.0319    7.4201 C.ar      1 RES1    0.0000
     16 C7         1.7588    3.4657    6.9925 C.ar      1 RES1    0.0000
     17 C8         1.2940    3.6608    5.7106 C.ar      1 RES1    0.0000
     18 H4         0.4780    3.2632    5.4311 H         1 RES1    0.0000
     19 C9         2.0303    4.4447    4.8295 C.ar      1 RES1    0.0000
     20 H5         1.7194    4.5800    3.9420 H         1 RES1    0.0000
     21 C10        3.2168    5.0288    5.2441 C.ar      1 RES1    0.0000
     22 H6         3.7146    5.5711    4.6423 H         1 RES1    0.0000
     23 C11        3.6788    4.8220    6.5363 C.ar      1 RES1    0.0000
     24 H7         4.4924    5.2242    6.8172 H         1 RES1    0.0000
@<TRIPOS>BOND
     1    1    7 2
     2    2    7 2
     3    3    9 1
     4    4    8 ar
     5    5    6 1
     6    7   12 1
     7    8    5 1
     8    9    8 ar
     9   10    9 ar
    10   11   10 1
    11   12   10 ar
    12   13    4 ar
    13   14   13 1
    14   15    5 1
    15   16    3 1
    16   17   16 ar
    17   18   17 1
    18   19   17 ar
    19   20   19 1
    20   21   19 ar
    21   22   21 1
    22   23   15 ar
    23   24   23 1
    24   12   13 ar
    25   15   16 ar
    26   21   23 ar
@<TRIPOS>SUBSTRUCTURE
     1 RES1 1

@<TRIPOS>CRYSIN
   5.6273    8.1437   20.7305  90.0000  96.5350  90.0000 231 1

