# MOL2 file generated by ConQuest
# Please check atom types

@<TRIPOS>MOLECULE
IXOFIK
    76    76     1
SMALL
NO_CHARGES
****
Generated from CSD

@<TRIPOS>ATOM
      1 C1         2.2173    0.5601    2.5542 C.3       1 RES1    0.0000
      2 C2         3.7281    0.7711    2.5856 C.3       1 RES1    0.0000
      3 H1         4.1431    0.0539    3.1273 H         1 RES1    0.0000
      4 H2         3.9246    1.6359    3.0250 H         1 RES1    0.0000
      5 C3         4.3605    0.7664    1.1680 C.3       1 RES1    0.0000
      6 H3         4.2143   -0.1418    0.7750 H         1 RES1    0.0000
      7 C4         5.8483    0.9457    1.3535 C.2       1 RES1    0.0000
      8 C5         6.6422   -0.2953    1.5705 C.3       1 RES1    0.0000
      9 H4         7.5891   -0.0633    1.6728 H         1 RES1    0.0000
     10 H5         6.5342   -0.8918    0.7996 H         1 RES1    0.0000
     11 H6         6.3274   -0.7465    2.3810 H         1 RES1    0.0000
     12 C6         3.7172    1.7789    0.2306 C.3       1 RES1    0.0000
     13 C7         4.3094    1.6652   -1.1816 C.3       1 RES1    0.0000
     14 H7         3.8868    2.3261   -1.7670 H         1 RES1    0.0000
     15 H8         4.1461    0.7652   -1.5323 H         1 RES1    0.0000
     16 H9         5.2749    1.8316   -1.1448 H         1 RES1    0.0000
     17 C8         2.2075    1.5152    0.1637 C.3       1 RES1    0.0000
     18 H10        1.7799    2.2089   -0.3984 H         1 RES1    0.0000
     19 H11        2.0477    0.6363   -0.2620 H         1 RES1    0.0000
     20 C9         1.5676    1.5257    1.5568 C.3       1 RES1    0.0000
     21 H12        0.6090    1.2937    1.4681 H         1 RES1    0.0000
     22 H13        1.6204    2.4445    1.9239 H         1 RES1    0.0000
     23 C10        1.5113    0.6879    3.9119 C.3       1 RES1    0.0000
     24 H14        0.5707    0.4055    3.7891 H         1 RES1    0.0000
     25 H15        1.4981    1.6476    4.1547 H         1 RES1    0.0000
     26 C11        2.0757   -0.0879    5.1139 C.3       1 RES1    0.0000
     27 H16        3.0201    0.1934    5.2831 H         1 RES1    0.0000
     28 C12        1.2275    0.1652    6.3610 C.3       1 RES1    0.0000
     29 H17        1.3893    1.0957    6.6899 H         1 RES1    0.0000
     30 C13       -0.9561    1.1308    5.9967 C.2       1 RES1    0.0000
     31 C14       -2.3124    0.8344    5.4523 C.3       1 RES1    0.0000
     32 H18       -2.3736   -0.1184    5.2299 H         1 RES1    0.0000
     33 H19       -2.4639    1.3687    4.6446 H         1 RES1    0.0000
     34 H20       -2.9896    1.0570    6.1236 H         1 RES1    0.0000
     35 C15        3.2103   -2.2031    4.8124 C.2       1 RES1    0.0000
     36 C16        2.9569   -3.6386    4.5600 C.3       1 RES1    0.0000
     37 H21        1.9969   -3.7827    4.4276 H         1 RES1    0.0000
     38 H22        3.2632   -4.1648    5.3281 H         1 RES1    0.0000
     39 H23        3.4428   -3.9187    3.7563 H         1 RES1    0.0000
     40 C17        1.4910   -0.8133    7.4812 C.3       1 RES1    0.0000
     41 H24        1.3451   -1.7472    7.1538 H         1 RES1    0.0000
     42 C18        3.6518   -1.7472    8.0120 C.2       1 RES1    0.0000
     43 C19        5.0643   -1.3804    8.2999 C.3       1 RES1    0.0000
     44 H25        5.1685   -0.4078    8.2371 H         1 RES1    0.0000
     45 H26        5.6539   -1.8140    7.6477 H         1 RES1    0.0000
     46 H27        5.3017   -1.6769    9.2032 H         1 RES1    0.0000
     47 C20        0.6120   -0.5566    8.7242 C.3       1 RES1    0.0000
     48 H28       -0.3324   -0.7992    8.5005 H         1 RES1    0.0000
     49 C21       -0.5303    1.4730    9.2878 C.2       1 RES1    0.0000
     50 C22       -0.3386    2.9413    9.5525 C.3       1 RES1    0.0000
     51 H29        0.6160    3.1593    9.5156 H         1 RES1    0.0000
     52 H30       -0.6896    3.1617   10.4407 H         1 RES1    0.0000
     53 H31       -0.8189    3.4605    8.8743 H         1 RES1    0.0000
     54 C23        1.0300   -1.3336    9.9563 C.3       1 RES1    0.0000
     55 H32        0.9656   -2.3050    9.7790 H         1 RES1    0.0000
     56 H33        1.9693   -1.1215   10.1842 H         1 RES1    0.0000
     57 C24       -1.0556   -1.5808   11.0615 C.2       1 RES1    0.0000
     58 C25       -1.8905   -1.0558   12.1817 C.3       1 RES1    0.0000
     59 H34       -1.3725   -0.4019   12.6961 H         1 RES1    0.0000
     60 H35       -2.1549   -1.7964   12.7657 H         1 RES1    0.0000
     61 H36       -2.6918   -0.6258   11.8174 H         1 RES1    0.0000
     62 N1         1.9201   -0.8578    2.0699 N.pl3     1 RES1    0.0000
     63 O1         0.7308   -1.1636    1.8284 O.2       1 RES1    0.0000
     64 O2         2.8269   -1.6992    1.9266 O.2       1 RES1    0.0000
     65 O3         6.3676    2.0554    1.3290 O.2       1 RES1    0.0000
     66 O4         3.8716    3.1324    0.7245 O.3       1 RES1    0.0000
     67 O5        -0.1740    0.0105    6.0308 O.3       1 RES1    0.0000
     68 O6        -0.5815    2.2113    6.3556 O.2       1 RES1    0.0000
     69 O7         2.0302   -1.5035    4.8206 O.3       1 RES1    0.0000
     70 O8         4.2715   -1.6664    5.0130 O.2       1 RES1    0.0000
     71 O9         2.9024   -0.6281    7.8251 O.3       1 RES1    0.0000
     72 O10        3.1872   -2.8663    8.0025 O.2       1 RES1    0.0000
     73 O11        0.6632    0.8590    9.0285 O.3       1 RES1    0.0000
     74 O12       -1.5862    0.8941    9.2646 O.2       1 RES1    0.0000
     75 O13        0.1733   -0.9832   11.0506 O.3       1 RES1    0.0000
     76 O14       -1.3702   -2.4175   10.2483 O.2       1 RES1    0.0000
@<TRIPOS>BOND
     1    1    2 1
     2    2    3 1
     3    4    2 1
     4    5    2 1
     5    6    5 1
     6    7    5 1
     7    8    7 1
     8    9    8 1
     9   10    8 1
    10   11    8 1
    11   12    5 1
    12   13   12 1
    13   14   13 1
    14   15   13 1
    15   16   13 1
    16   17   12 1
    17   18   17 1
    18   19   17 1
    19   20    1 1
    20   21   20 1
    21   22   20 1
    22   23    1 1
    23   24   23 1
    24   25   23 1
    25   26   23 1
    26   27   26 1
    27   28   26 1
    28   29   28 1
    29   30   31 1
    30   31   32 1
    31   33   31 1
    32   34   31 1
    33   35   36 1
    34   36   37 1
    35   38   36 1
    36   39   36 1
    37   40   28 1
    38   41   40 1
    39   42   43 1
    40   43   44 1
    41   45   43 1
    42   46   43 1
    43   47   40 1
    44   48   47 1
    45   49   50 1
    46   50   51 1
    47   52   50 1
    48   53   50 1
    49   54   47 1
    50   55   54 1
    51   56   54 1
    52   57   58 1
    53   58   59 1
    54   60   58 1
    55   61   58 1
    56   62    1 1
    57   63   62 2
    58   64   62 2
    59   65    7 2
    60   66   12 1
    61   67   28 1
    62   68   30 2
    63   69   26 1
    64   70   35 2
    65   71   40 1
    66   72   42 2
    67   73   47 1
    68   74   49 2
    69   75   54 1
    70   76   57 2
    71   17   20 1
    72   30   67 1
    73   35   69 1
    74   42   71 1
    75   49   73 1
    76   57   75 1
@<TRIPOS>SUBSTRUCTURE
     1 RES1 1

@<TRIPOS>CRYSIN
   8.9593   11.7185   13.7627  90.0000  97.5170  90.0000   4 1

