# MOL2 file generated by ConQuest
# Please check atom types

@<TRIPOS>MOLECULE
IXOGAD
    27    28     1
SMALL
NO_CHARGES
****
Generated from CSD

@<TRIPOS>ATOM
      1 C1        -0.2311    3.5457    8.4571 C.ar      1 RES1    0.0000
      2 C2         0.7974    4.1087    9.2060 C.ar      1 RES1    0.0000
      3 H1         1.1457    5.0123    8.8559 H         1 RES1    0.0000
      4 C3         1.1906    3.5022   10.3818 C.ar      1 RES1    0.0000
      5 H2         1.9174    3.9455   10.9276 H         1 RES1    0.0000
      6 C4         0.5472    2.3408   10.7792 C.ar      1 RES1    0.0000
      7 C5        -0.4905    1.7837   10.0488 C.ar      1 RES1    0.0000
      8 H3        -0.9121    0.8920   10.3965 H         1 RES1    0.0000
      9 C6        -0.8891    2.3916    8.8760 C.ar      1 RES1    0.0000
     10 H4        -1.6442    1.9021    8.3150 H         1 RES1    0.0000
     11 N1         0.9780    1.6606   11.9989 N.pl3     1 RES1    0.0000
     12 O1        -0.6365    4.2427    7.3359 O.3       1 RES1    0.0000
     13 O2         1.7372    2.2507   12.7626 O.2       1 RES1    0.0000
     14 O3         0.5695    0.5183   12.2014 O.2       1 RES1    0.0000
     15 C1B       -1.0419    3.5457    6.2148 C.ar      1 RES1    0.0000
     16 C2B       -2.0705    4.1087    5.4659 C.ar      1 RES1    0.0000
     17 H1B       -2.4187    5.0123    5.8159 H         1 RES1    0.0000
     18 C3B       -2.4636    3.5022    4.2901 C.ar      1 RES1    0.0000
     19 H2B       -3.1904    3.9455    3.7443 H         1 RES1    0.0000
     20 C4B       -1.8202    2.3408    3.8926 C.ar      1 RES1    0.0000
     21 C5B       -0.7826    1.7837    4.6231 C.ar      1 RES1    0.0000
     22 H3B       -0.3610    0.8920    4.2754 H         1 RES1    0.0000
     23 C6B       -0.3839    2.3916    5.7959 C.ar      1 RES1    0.0000
     24 H4B        0.3711    1.9021    6.3568 H         1 RES1    0.0000
     25 N1B       -2.2510    1.6606    2.6730 N.pl3     1 RES1    0.0000
     26 O2B       -3.0102    2.2507    1.9093 O.2       1 RES1    0.0000
     27 O3B       -1.8425    0.5183    2.4705 O.2       1 RES1    0.0000
@<TRIPOS>BOND
     1    1    2 ar
     2    2    3 1
     3    4    2 ar
     4    5    4 1
     5    6    4 ar
     6    7    6 ar
     7    8    7 1
     8    9    1 ar
     9   10    9 1
    10   11    6 1
    11   12    1 1
    12   13   11 2
    13   14   11 2
    14   15   12 1
    15   16   15 ar
    16   17   16 1
    17   18   16 ar
    18   19   18 1
    19   20   18 ar
    20   21   20 ar
    21   22   21 1
    22   23   15 ar
    23   24   23 1
    24   25   20 1
    25   26   25 2
    26   27   25 2
    27    7    9 ar
    28   21   23 ar
@<TRIPOS>SUBSTRUCTURE
     1 RES1 1

@<TRIPOS>CRYSIN
  12.4860    9.3010    9.8180  90.0000  94.9590  90.0000  15 1

