# MOL2 file generated by ConQuest
# Please check atom types

@<TRIPOS>MOLECULE
IXUCUB02
    53    56     1
SMALL
NO_CHARGES
****
Generated from CSD

@<TRIPOS>ATOM
      1 O1        -5.3943    4.1813    5.6457 O.2       1 RES1    0.0000
      2 O2         0.2721   -2.5946   10.1970 O.2       1 RES1    0.0000
      3 N1        -4.8489    3.4765    4.8668 N.pl3     1 RES1    0.0000
      4 O3        -5.1138    3.4240    3.6723 O.2       1 RES1    0.0000
      5 C1         2.8124   -0.0388   11.6520 C.3       1 RES1    0.0000
      6 H1         3.0167   -1.0063   11.6042 H         1 RES1    0.0000
      7 H2         3.6125    0.4551   11.3418 H         1 RES1    0.0000
      8 N2        -0.2787   -0.9756    8.7145 N.am      1 RES1    0.0000
      9 O4         1.0504    1.5932    5.4508 O.2       1 RES1    0.0000
     10 N3        -1.4005   -0.6321    7.9232 N.3       1 RES1    0.0000
     11 C2         1.6775    0.2603   10.7424 C.3       1 RES1    0.0000
     12 H3         1.4961    1.2335   10.7648 H         1 RES1    0.0000
     13 H4         0.8686   -0.2045   11.0755 H         1 RES1    0.0000
     14 C3        -0.4750   -2.1153    9.3901 C.2       1 RES1    0.0000
     15 C4        -0.8243    0.0663    6.7819 C.3       1 RES1    0.0000
     16 H5        -0.5770   -0.5949    6.0735 H         1 RES1    0.0000
     17 C5        -1.8198    1.0152    6.2490 C.ar      1 RES1    0.0000
     18 C6         0.4152    0.6232    7.4010 C.2       1 RES1    0.0000
     19 C7         1.9262   -0.1536    9.3215 C.3       1 RES1    0.0000
     20 H6         2.6244    0.4324    8.9367 H         1 RES1    0.0000
     21 H7         2.2751   -1.0807    9.3160 H         1 RES1    0.0000
     22 C8        -2.2952    0.8907    4.9930 C.ar      1 RES1    0.0000
     23 H8        -1.9353    0.2182    4.4250 H         1 RES1    0.0000
     24 C9        -3.7784    2.6205    5.3390 C.ar      1 RES1    0.0000
     25 C10        1.2159    1.5495    6.6386 C.2       1 RES1    0.0000
     26 C11        0.7318   -0.0938    8.4619 C.2       1 RES1    0.0000
     27 C12       -3.3389    2.7854    6.6001 C.ar      1 RES1    0.0000
     28 H9        -3.7164    3.4522    7.1610 H         1 RES1    0.0000
     29 C13       -1.8013   -2.5987    8.9827 C.3       1 RES1    0.0000
     30 H10       -2.4910   -2.3497    9.6469 H         1 RES1    0.0000
     31 H11       -1.8016   -3.5816    8.8681 H         1 RES1    0.0000
     32 C14       -3.2682    1.6982    4.5224 C.ar      1 RES1    0.0000
     33 H12       -3.5833    1.6118    3.6300 H         1 RES1    0.0000
     34 C15        2.7681    3.9421    9.0470 C.ar      1 RES1    0.0000
     35 H13        2.5774    4.3470    9.8850 H         1 RES1    0.0000
     36 C16        1.8778    3.0247    8.5006 C.ar      1 RES1    0.0000
     37 H14        1.0799    2.8024    8.9649 H         1 RES1    0.0000
     38 C17        2.1557    2.4330    7.2740 C.ar      1 RES1    0.0000
     39 C18        3.3234    2.7579    6.5941 C.ar      1 RES1    0.0000
     40 H15        3.5133    2.3538    5.7567 H         1 RES1    0.0000
     41 C19        4.2134    3.6753    7.1403 C.ar      1 RES1    0.0000
     42 H16        5.0111    3.8976    6.6748 H         1 RES1    0.0000
     43 C20        3.9354    4.2678    8.3669 C.ar      1 RES1    0.0000
     44 H17        4.5441    4.8951    8.7410 H         1 RES1    0.0000
     45 C21       -2.3466    1.9811    7.0523 C.ar      1 RES1    0.0000
     46 H18       -2.0151    2.0919    7.9359 H         1 RES1    0.0000
     47 C22       -2.0333   -1.9076    7.6847 C.3       1 RES1    0.0000
     48 H19       -1.6053   -2.3910    6.9351 H         1 RES1    0.0000
     49 H20       -3.0009   -1.8041    7.4980 H         1 RES1    0.0000
     50 C23        2.5360    0.3257   13.0509 C.3       1 RES1    0.0000
     51 H21        2.5329    1.3014   13.1397 H         1 RES1    0.0000
     52 H22        3.2298   -0.0533   13.6300 H         1 RES1    0.0000
     53 H23        1.6610   -0.0291   13.3132 H         1 RES1    0.0000
@<TRIPOS>BOND
     1    1    3 2
     2    2   14 2
     3    3    4 2
     4    5    6 1
     5    7    5 1
     6    8   10 1
     7    9   25 2
     8   10   15 1
     9   11    5 1
    10   12   11 1
    11   13   11 1
    12   14    8 1
    13   15   16 1
    14   17   15 1
    15   18   15 1
    16   19   11 1
    17   20   19 1
    18   21   19 1
    19   22   17 ar
    20   23   22 1
    21   24    3 1
    22   25   18 1
    23   26    8 1
    24   27   24 ar
    25   28   27 1
    26   29   14 1
    27   30   29 1
    28   31   29 1
    29   32   22 ar
    30   33   32 1
    31   34   35 1
    32   36   34 ar
    33   37   36 1
    34   38   25 1
    35   39   38 ar
    36   40   39 1
    37   41   39 ar
    38   42   41 1
    39   43   34 ar
    40   44   43 1
    41   45   17 ar
    42   46   45 1
    43   47   10 1
    44   48   47 1
    45   49   47 1
    46   50    5 1
    47   51   50 1
    48   52   50 1
    49   53   50 1
    50   18   26 2
    51   19   26 1
    52   24   32 ar
    53   27   45 ar
    54   29   47 1
    55   36   38 ar
    56   41   43 ar
@<TRIPOS>SUBSTRUCTURE
     1 RES1 1

@<TRIPOS>CRYSIN
  12.5200    8.0830   20.4400  90.0000  99.1900  90.0000  14 1

