# MOL2 file generated by ConQuest
# Please check atom types

@<TRIPOS>MOLECULE
IXUQID01
    74    71     2
SMALL
NO_CHARGES
****
Generated from CSD

@<TRIPOS>ATOM
      1 C1         9.0127    3.2842    0.9875 C.2       1 RES1    0.0000
      2 C2         8.5369    5.4368    0.9963 C.2       1 RES1    0.0000
      3 C3         8.7168    6.8940    1.0062 C.ar      1 RES1    0.0000
      4 C4         8.4573    7.5775   -0.1730 C.ar      1 RES1    0.0000
      5 H1         8.1273    7.1208   -0.9123 H         1 RES1    0.0000
      6 C5         8.6880    8.9316   -0.2459 C.ar      1 RES1    0.0000
      7 H2         8.5208    9.3905   -1.0379 H         1 RES1    0.0000
      8 C6         9.1661    9.6043    0.8489 C.ar      1 RES1    0.0000
      9 H3         9.3234   10.5199    0.7949 H         1 RES1    0.0000
     10 C7         9.4171    8.9359    2.0376 C.ar      1 RES1    0.0000
     11 H4         9.7412    9.4066    2.7720 H         1 RES1    0.0000
     12 C8         9.1888    7.5625    2.1424 C.ar      1 RES1    0.0000
     13 C9         9.4232    6.8510    3.4285 C.ar      1 RES1    0.0000
     14 C10        8.4288    6.0429    3.9831 C.ar      1 RES1    0.0000
     15 H5         7.6169    5.9419    3.5401 H         1 RES1    0.0000
     16 C11       10.6228    6.9746    4.1131 C.ar      1 RES1    0.0000
     17 H6        11.2942    7.5195    3.7687 H         1 RES1    0.0000
     18 C12        8.6374    5.3905    5.1873 C.ar      1 RES1    0.0000
     19 H7         7.9558    4.8758    5.5542 H         1 RES1    0.0000
     20 C13       10.8369    6.2986    5.3042 C.ar      1 RES1    0.0000
     21 H8        11.6538    6.3857    5.7396 H         1 RES1    0.0000
     22 C14        9.8468    5.4937    5.8549 C.ar      1 RES1    0.0000
     23 C15       10.0429    4.6920    7.1262 C.3       1 RES1    0.0000
     24 H9         9.2422    4.7586    7.6693 H         1 RES1    0.0000
     25 H10       10.1680    3.7581    6.8949 H         1 RES1    0.0000
     26 C16        6.0894    8.1234    4.5449 C.2       1 RES1    0.0000
     27 C17        6.7175    8.3126    6.6608 C.2       1 RES1    0.0000
     28 C18        5.9175    7.2648    6.5897 C.2       1 RES1    0.0000
     29 C19        5.3851    6.2771    7.5348 C.3       1 RES1    0.0000
     30 H11        5.7204    6.4631    8.4148 H         1 RES1    0.0000
     31 H12        5.6609    5.3970    7.2677 H         1 RES1    0.0000
     32 H13        4.4272    6.3244    7.5416 H         1 RES1    0.0000
     33 C20        7.3892    9.0025    7.7790 C.3       1 RES1    0.0000
     34 H14        7.2205    9.9547    7.7022 H         1 RES1    0.0000
     35 H15        6.9948    8.7005    8.6125 H         1 RES1    0.0000
     36 C21        9.2082    7.5882    8.3283 C.2       1 RES1    0.0000
     37 C22       10.6563    7.5410    8.6456 C.ar      1 RES1    0.0000
     38 C23       11.2791    8.6285    9.2480 C.ar      1 RES1    0.0000
     39 C24       12.5826    8.5587    9.7186 C.ar      1 RES1    0.0000
     40 C25       13.3362    7.4131    9.5928 C.ar      1 RES1    0.0000
     41 C26       12.7599    6.3255    8.9562 C.ar      1 RES1    0.0000
     42 C27       11.4186    6.3825    8.5079 C.ar      1 RES1    0.0000
     43 C28       12.3675    4.4588    8.0062 C.2       1 RES1    0.0000
     44 C29       13.6320    2.4911    7.5848 C.3       1 RES1    0.0000
     45 C30       13.3631    1.1434    7.2533 C.3       1 RES1    0.0000
     46 H16       13.0836    1.0886    6.3368 H         1 RES1    0.0000
     47 H17       12.6653    0.8092    7.8217 H         1 RES1    0.0000
     48 H18       14.1553    0.6190    7.3789 H         1 RES1    0.0000
     49 H19       10.3641    4.6533    1.3510 H         1 RES1    0.0000
     50 H20       10.7831    9.4249    9.3806 H         1 RES1    0.0000
     51 H21       12.9300    9.3174   10.1550 H         1 RES1    0.0000
     52 H22       14.2270    7.3507    9.9408 H         1 RES1    0.0000
     53 N1         9.5298    4.5286    1.2128 N.am      1 RES1    0.0000
     54 N2         7.4030    4.8683    0.7210 N.2       1 RES1    0.0000
     55 N3        11.1904    5.1455    7.9131 N.pl3     1 RES1    0.0000
     56 N4        13.3319    5.0939    8.6300 N.2       1 RES1    0.0000
     57 O1         9.5384    2.1993    0.9895 O.2       1 RES1    0.0000
     58 O2         7.6910    3.4645    0.7286 O.3       1 RES1    0.0000
     59 O3         8.4261    6.6860    8.5282 O.2       1 RES1    0.0000
     60 O4         8.8310    8.7873    7.8427 O.3       1 RES1    0.0000
     61 O5        12.3960    3.2507    7.4615 O.3       1 RES1    0.0000
     62 O6         6.8422    8.8781    5.3730 O.3       1 RES1    0.0000
     63 O7         5.5024    7.1285    5.2492 O.3       1 RES1    0.0000
     64 O8         5.9293    8.3190    3.3746 O.2       1 RES1    0.0000
     65 H23       13.9293    2.5900    8.5425 H         1 RES1    0.0000
     66 H24       14.2859    3.0091    7.1091 H         1 RES1    0.0000
     67 C31       13.7739    1.4938    6.5901 Du        2 SUP2    0.0000
     68 H25       13.5223    1.8538    5.7375 Du        2 SUP2    0.0000
     69 H26       13.2078    0.7480    6.8022 Du        2 SUP2    0.0000
     70 H27       14.6874    1.2015    6.5572 Du        2 SUP2    0.0000
     71 C32       14.5675    2.7909    6.4521 Du        2 SUP2    0.0000
     72 H28       14.8386    3.7108    6.4954 Du        2 SUP2    0.0000
     73 H29       14.1186    2.6286    5.6181 Du        2 SUP2    0.0000
     74 H30       15.3396    2.2256    6.5160 Du        2 SUP2    0.0000
@<TRIPOS>BOND
     1    1   53 1
     2    2    3 1
     3    3    4 ar
     4    4    5 1
     5    6    4 ar
     6    7    6 1
     7    8    6 ar
     8    9    8 1
     9   10    8 ar
    10   11   10 1
    11   12    3 ar
    12   13   12 1
    13   14   13 ar
    14   15   14 1
    15   16   13 ar
    16   17   16 1
    17   18   14 ar
    18   19   18 1
    19   20   16 ar
    20   21   20 1
    21   22   18 ar
    22   23   22 1
    23   24   23 1
    24   25   23 1
    25   26   62 1
    26   27   28 2
    27   28   29 1
    28   29   30 1
    29   31   29 1
    30   32   29 1
    31   33   27 1
    32   34   33 1
    33   35   33 1
    34   36   37 1
    35   37   38 ar
    36   38   39 ar
    37   39   40 ar
    38   40   41 ar
    39   41   42 ar
    40   42   37 ar
    41   43   55 1
    42   44   45 1
    43   45   46 1
    44   47   45 1
    45   48   45 1
    46   49   53 1
    47   50   38 1
    48   51   39 1
    49   52   40 1
    50   53    2 1
    51   54    2 2
    52   55   23 1
    53   56   41 1
    54   57    1 2
    55   58    1 1
    56   59   36 2
    57   60   33 1
    58   61   43 1
    59   62   27 1
    60   63   26 1
    61   64   26 2
    62   65   44 1
    63   66   44 1
    64   10   12 ar
    65   20   22 ar
    66   28   63 1
    67   36   60 1
    68   42   55 1
    69   43   56 2
    70   44   61 1
    71   54   58 1
@<TRIPOS>SUBSTRUCTURE
     1 RES1 1
     2 SUP2 67

@<TRIPOS>CRYSIN
  26.7661   10.7467   20.7113  90.0000  96.0970  90.0000  15 1

