# MOL2 file generated by ConQuest
# Please check atom types

@<TRIPOS>MOLECULE
IYAJAV
    43    46     1
SMALL
NO_CHARGES
****
Generated from CSD

@<TRIPOS>ATOM
      1 O1        19.8617    5.6343    8.0766 O.2       1 RES1    0.0000
      2 C1        19.1974    5.0310    7.2731 C.2       1 RES1    0.0000
      3 N1        17.4957    3.6544    6.3658 N.3       1 RES1    0.0000
      4 N2        19.5632    4.6475    6.0088 N.am      1 RES1    0.0000
      5 O2        15.5760    8.5641    1.8026 O.2       1 RES1    0.0000
      6 C2        17.7509    4.5749    7.4591 C.3       1 RES1    0.0000
      7 H1        17.1397    5.3393    7.4195 H         1 RES1    0.0000
      8 O3        14.6775    6.8157    0.9381 O.2       1 RES1    0.0000
      9 N3        15.4491    7.3492    1.7179 N.pl3     1 RES1    0.0000
     10 C3        17.5181    3.7562    8.7432 C.3       1 RES1    0.0000
     11 H2        18.3303    3.7109    9.2705 H         1 RES1    0.0000
     12 H3        16.8196    4.1586    9.2824 H         1 RES1    0.0000
     13 N4        24.7020    4.9055    3.7422 N.pl3     1 RES1    0.0000
     14 O4        25.6609    5.0317    4.4753 O.2       1 RES1    0.0000
     15 C4        17.1108    2.3956    8.2912 C.3       1 RES1    0.0000
     16 H4        16.1449    2.3161    8.2397 H         1 RES1    0.0000
     17 H5        17.4569    1.7107    8.8849 H         1 RES1    0.0000
     18 O5        24.8038    4.8114    2.5286 O.2       1 RES1    0.0000
     19 C5        17.7377    2.2972    6.9279 C.3       1 RES1    0.0000
     20 H6        18.6861    2.1055    6.9897 H         1 RES1    0.0000
     21 H7        17.3091    1.6124    6.3920 H         1 RES1    0.0000
     22 C6        18.4188    4.0226    5.3026 C.3       1 RES1    0.0000
     23 H8        18.7205    3.2157    4.8363 H         1 RES1    0.0000
     24 C7        17.7088    4.9446    4.3194 C.ar      1 RES1    0.0000
     25 C8        16.7630    4.3685    3.4826 C.ar      1 RES1    0.0000
     26 H9        16.6263    3.4486    3.5055 H         1 RES1    0.0000
     27 C9        16.0297    5.1426    2.6244 C.ar      1 RES1    0.0000
     28 H10       15.3956    4.7591    2.0639 H         1 RES1    0.0000
     29 C10       16.2513    6.4949    2.6078 C.ar      1 RES1    0.0000
     30 C11       17.2059    7.0821    3.4105 C.ar      1 RES1    0.0000
     31 H11       17.3620    7.9985    3.3709 H         1 RES1    0.0000
     32 C12       17.9228    6.2885    4.2695 C.ar      1 RES1    0.0000
     33 H12       18.5613    6.6727    4.8244 H         1 RES1    0.0000
     34 C13       20.8515    4.7577    5.4475 C.ar      1 RES1    0.0000
     35 C14       21.0027    4.8065    4.0763 C.ar      1 RES1    0.0000
     36 H13       20.2496    4.8065    3.5285 H         1 RES1    0.0000
     37 C15       22.2664    4.8546    3.5079 C.ar      1 RES1    0.0000
     38 H14       22.3680    4.8937    2.5848 H         1 RES1    0.0000
     39 C16       23.3648    4.8441    4.3328 C.ar      1 RES1    0.0000
     40 C17       23.2422    4.7890    5.6953 C.ar      1 RES1    0.0000
     41 H15       23.9994    4.7835    6.2336 H         1 RES1    0.0000
     42 C18       21.9854    4.7409    6.2629 C.ar      1 RES1    0.0000
     43 H16       21.8945    4.6977    7.1876 H         1 RES1    0.0000
@<TRIPOS>BOND
     1    1    2 2
     2    2    4 1
     3    3    6 1
     4    4   22 1
     5    5    9 2
     6    6    2 1
     7    7    6 1
     8    8    9 2
     9    9   29 1
    10   10    6 1
    11   11   10 1
    12   12   10 1
    13   13   14 2
    14   15   10 1
    15   16   15 1
    16   17   15 1
    17   18   13 2
    18   19    3 1
    19   20   19 1
    20   21   19 1
    21   22    3 1
    22   23   22 1
    23   24   22 1
    24   25   24 ar
    25   26   25 1
    26   27   25 ar
    27   28   27 1
    28   29   27 ar
    29   30   29 ar
    30   31   30 1
    31   32   24 ar
    32   33   32 1
    33   34    4 1
    34   35   34 ar
    35   36   35 1
    36   37   35 ar
    37   38   37 1
    38   39   13 1
    39   40   39 ar
    40   41   40 1
    41   42   34 ar
    42   43   42 1
    43   15   19 1
    44   30   32 ar
    45   37   39 ar
    46   40   42 ar
@<TRIPOS>SUBSTRUCTURE
     1 RES1 1

@<TRIPOS>CRYSIN
  31.7460    6.9740    8.1230  90.0000 102.9400  90.0000   5 1

