# MOL2 file generated by ConQuest
# Please check atom types

@<TRIPOS>MOLECULE
IYAYAK
    27    26     1
SMALL
NO_CHARGES
****
Generated from CSD

@<TRIPOS>ATOM
      1 O1         5.1214    3.2857    5.8389 O.3       1 RES1    0.0000
      2 O2         7.2759    4.4541    3.2945 O.3       1 RES1    0.0000
      3 O3         9.1992    5.6952    5.6638 O.2       1 RES1    0.0000
      4 O4         7.9740    7.8440    5.8135 O.3       1 RES1    0.0000
      5 O5         7.5147    4.3051    8.0291 O.2       1 RES1    0.0000
      6 O6         8.5057    2.0301    7.9546 O.3       1 RES1    0.0000
      7 N1         7.9400    5.7155    5.7247 N.pl3     1 RES1    0.0000
      8 N2         7.1961    6.7342    5.8084 N.2       1 RES1    0.0000
      9 N3         7.6939    3.7158    6.9224 N.pl3     1 RES1    0.0000
     10 N4         8.1870    2.5609    6.7419 N.2       1 RES1    0.0000
     11 C1         7.2263    4.4074    5.6831 C.3       1 RES1    0.0000
     12 C2         5.7000    4.5605    5.7680 C.3       1 RES1    0.0000
     13 H1         5.4629    5.0751    6.5554 H         1 RES1    0.0000
     14 H2         5.3708    5.0304    4.9864 H         1 RES1    0.0000
     15 C3         7.6686    3.6747    4.4019 C.3       1 RES1    0.0000
     16 H3         8.6308    3.5556    4.4010 H         1 RES1    0.0000
     17 H4         7.2513    2.8000    4.3574 H         1 RES1    0.0000
     18 C4         7.1284    9.0170    5.8612 C.3       1 RES1    0.0000
     19 H5         7.6746    9.8062    5.8620 H         1 RES1    0.0000
     20 H6         6.5961    8.9956    6.6601 H         1 RES1    0.0000
     21 H7         6.5516    9.0274    5.0936 H         1 RES1    0.0000
     22 C5         9.0273    0.6994    7.7509 C.3       1 RES1    0.0000
     23 H8         9.2533    0.3108    8.5993 H         1 RES1    0.0000
     24 H9         9.8128    0.7440    7.2001 H         1 RES1    0.0000
     25 H10        8.3636    0.1588    7.3172 H         1 RES1    0.0000
     26 H11        7.9815    4.9059    3.0670 H         1 RES1    0.0000
     27 H12        4.9264    3.1337    6.5793 H         1 RES1    0.0000
@<TRIPOS>BOND
     1    1   12 1
     2    2   15 1
     3    3    7 1
     4    4    8 1
     5    5    9 1
     6    6   10 1
     7    7    8 2
     8    9   10 2
     9   11    7 1
    10   12   11 1
    11   13   12 1
    12   14   12 1
    13   15   11 1
    14   16   15 1
    15   17   15 1
    16   18    4 1
    17   19   18 1
    18   20   18 1
    19   21   18 1
    20   22    6 1
    21   23   22 1
    22   24   22 1
    23   25   22 1
    24   26    2 1
    25   27    1 1
    26    9   11 1
@<TRIPOS>SUBSTRUCTURE
     1 RES1 1

@<TRIPOS>CRYSIN
   6.9560    9.1170    9.2920  66.7800  72.5100  80.5900   2 1

