# MOL2 file generated by ConQuest
# Please check atom types

@<TRIPOS>MOLECULE
IYAYIQ
    28    28     1
SMALL
NO_CHARGES
****
Generated from CSD

@<TRIPOS>ATOM
      1 O1         1.6600   -1.7552    4.0871 O.2       1 RES1    0.0000
      2 O2        -0.2377    5.3256   -1.4103 O.2       1 RES1    0.0000
      3 O3         1.6365    1.1581    4.2099 O.3       1 RES1    0.0000
      4 H1         2.0660    0.5385    4.5790 H         1 RES1    0.0000
      5 C1         0.8155    1.9755    2.1016 C.ar      1 RES1    0.0000
      6 O4        -0.4345   -2.5133    3.7409 O.3       1 RES1    0.0000
      7 N1        -0.1735    5.4363   -0.1789 N.pl3     1 RES1    0.0000
      8 O5        -0.3611    6.4981    0.4247 O.2       1 RES1    0.0000
      9 C2         0.2166    4.3227    1.9953 C.ar      1 RES1    0.0000
     10 H2         0.0343    5.1496    2.4256 H         1 RES1    0.0000
     11 C3         0.1587    4.2168    0.6147 C.ar      1 RES1    0.0000
     12 C4         0.4104    3.0211   -0.0514 C.ar      1 RES1    0.0000
     13 H3         0.3556    2.9705   -0.9986 H         1 RES1    0.0000
     14 C5         0.7439    1.9016    0.7034 C.ar      1 RES1    0.0000
     15 H4         0.9256    1.0768    0.2670 H         1 RES1    0.0000
     16 C6         1.2155    0.7356    2.9004 C.3       1 RES1    0.0000
     17 H5         1.9958    0.3075    2.4437 H         1 RES1    0.0000
     18 C7         0.5471    3.1920    2.7390 C.ar      1 RES1    0.0000
     19 H6         0.5907    3.2466    3.6862 H         1 RES1    0.0000
     20 C8         0.5254   -1.5771    3.6749 C.2       1 RES1    0.0000
     21 C9         0.0918   -0.3054    3.0080 C.2       1 RES1    0.0000
     22 C10       -1.1661   -0.1409    2.5918 C.2       1 RES1    0.0000
     23 H7        -1.8026   -0.8351    2.7168 H         1 RES1    0.0000
     24 H8        -1.4247    0.6701    2.1716 H         1 RES1    0.0000
     25 C11       -0.0391   -3.7861    4.3483 C.3       1 RES1    0.0000
     26 H9         0.2735   -3.6280    5.2633 H         1 RES1    0.0000
     27 H10        0.6819   -4.1885    3.8212 H         1 RES1    0.0000
     28 H11       -0.8091   -4.3919    4.3654 H         1 RES1    0.0000
@<TRIPOS>BOND
     1    1   20 2
     2    2    7 2
     3    3    4 1
     4    5   14 ar
     5    6   20 1
     6    7    8 2
     7    9   10 1
     8   11    7 1
     9   12   11 ar
    10   13   12 1
    11   14   12 ar
    12   15   14 1
    13   16    3 1
    14   17   16 1
    15   18    5 ar
    16   19   18 1
    17   20   21 1
    18   21   16 1
    19   22   21 2
    20   23   22 1
    21   24   22 1
    22   25    6 1
    23   26   25 1
    24   27   25 1
    25   28   25 1
    26    5   16 1
    27    9   11 ar
    28    9   18 ar
@<TRIPOS>SUBSTRUCTURE
     1 RES1 1

@<TRIPOS>CRYSIN
   6.8170    8.5980   10.4570  97.7480  99.6600 110.7650   2 1

