# MOL2 file generated by ConQuest
# Please check atom types

@<TRIPOS>MOLECULE
IYIBAT
    46    48     1
SMALL
NO_CHARGES
****
Generated from CSD

@<TRIPOS>ATOM
      1 O1         4.0056   -0.5454    1.6036 O.2       1 RES1    0.0000
      2 O2         6.0749    0.2370    1.9062 O.3       1 RES1    0.0000
      3 O3         3.7612    3.4092   -0.5094 O.2       1 RES1    0.0000
      4 O4         1.5661    3.3448   -0.0587 O.3       1 RES1    0.0000
      5 O5         2.6089    2.2899    5.0619 O.3       1 RES1    0.0000
      6 O6         0.9384    0.7811    5.1576 O.2       1 RES1    0.0000
      7 O7        -2.0878    1.0677    9.0086 O.2       1 RES1    0.0000
      8 O8        -1.8535    2.6337   10.4762 O.2       1 RES1    0.0000
      9 O9         3.4410    5.3077    8.7040 O.2       1 RES1    0.0000
     10 O10        2.0440    5.4757   10.3252 O.2       1 RES1    0.0000
     11 N1        -1.4973    2.0269    9.4783 N.pl3     1 RES1    0.0000
     12 N2         2.4339    4.9684    9.2914 N.pl3     1 RES1    0.0000
     13 C1         4.3531    2.2912    3.3580 C.3       1 RES1    0.0000
     14 H1         5.0768    1.9304    3.9456 H         1 RES1    0.0000
     15 C2         4.3797    1.8371    1.8475 C.3       1 RES1    0.0000
     16 H2         5.0310    2.3944    1.3328 H         1 RES1    0.0000
     17 C3         2.9383    2.1333    1.3764 C.3       1 RES1    0.0000
     18 H3         2.4811    1.2676    1.1713 H         1 RES1    0.0000
     19 C4         2.2734    2.7680    2.6437 C.3       1 RES1    0.0000
     20 H4         1.2741    2.8042    2.6505 H         1 RES1    0.0000
     21 C5         2.9948    4.0772    2.8870 C.2       1 RES1    0.0000
     22 H5         2.6330    4.9459    2.7577 H         1 RES1    0.0000
     23 C6         4.2093    3.8014    3.3101 C.2       1 RES1    0.0000
     24 H6         4.8776    4.4345    3.5441 H         1 RES1    0.0000
     25 C7         2.9280    1.8804    3.7047 C.3       1 RES1    0.0000
     26 H7         2.7604    0.9078    3.5471 H         1 RES1    0.0000
     27 C8         4.7580    0.3778    1.7547 C.2       1 RES1    0.0000
     28 C9         6.5568   -1.1248    1.9728 C.3       1 RES1    0.0000
     29 H8         7.5256   -1.1221    2.1192 H         1 RES1    0.0000
     30 H9         6.3562   -1.5837    1.1305 H         1 RES1    0.0000
     31 H10        6.1150   -1.5916    2.7124 H         1 RES1    0.0000
     32 C10        2.8493    3.0264    0.1700 C.2       1 RES1    0.0000
     33 C11        1.3292    4.1512   -1.2268 C.3       1 RES1    0.0000
     34 H11        0.3698    4.3303   -1.3102 H         1 RES1    0.0000
     35 H12        1.6428    3.6723   -2.0226 H         1 RES1    0.0000
     36 H13        1.8137    4.9982   -1.1426 H         1 RES1    0.0000
     37 C12        1.5569    1.6957    5.6281 C.2       1 RES1    0.0000
     38 C13        1.2215    2.3313    6.9440 C.ar      1 RES1    0.0000
     39 C14        0.0720    1.9006    7.5914 C.ar      1 RES1    0.0000
     40 H14       -0.4649    1.2125    7.2165 H         1 RES1    0.0000
     41 C15       -0.2791    2.4892    8.7912 C.ar      1 RES1    0.0000
     42 C16        0.4696    3.4951    9.3693 C.ar      1 RES1    0.0000
     43 H15        0.2102    3.8978   10.1900 H         1 RES1    0.0000
     44 C17        1.6054    3.8894    8.7064 C.ar      1 RES1    0.0000
     45 C18        2.0087    3.3354    7.4980 C.ar      1 RES1    0.0000
     46 H16        2.7991    3.6323    7.0625 H         1 RES1    0.0000
@<TRIPOS>BOND
     1    1   27 2
     2    2   27 1
     3    3   32 2
     4    4   32 1
     5    5   25 1
     6    6   37 2
     7    7   11 2
     8    8   11 2
     9    9   12 2
    10   10   12 2
    11   11   41 1
    12   12   44 1
    13   13   14 1
    14   15   13 1
    15   16   15 1
    16   17   15 1
    17   18   17 1
    18   19   17 1
    19   20   19 1
    20   21   19 1
    21   22   21 1
    22   23   13 1
    23   24   23 1
    24   25   13 1
    25   26   25 1
    26   27   15 1
    27   28    2 1
    28   29   28 1
    29   30   28 1
    30   31   28 1
    31   32   17 1
    32   33    4 1
    33   34   33 1
    34   35   33 1
    35   36   33 1
    36   37    5 1
    37   38   37 1
    38   39   38 ar
    39   40   39 1
    40   41   39 ar
    41   42   41 ar
    42   43   42 1
    43   44   42 ar
    44   45   38 ar
    45   46   45 1
    46   19   25 1
    47   21   23 2
    48   44   45 ar
@<TRIPOS>SUBSTRUCTURE
     1 RES1 1

@<TRIPOS>CRYSIN
   6.0015   10.3352   15.1990  87.4290  83.5260  83.5790   2 1

