# MOL2 file generated by ConQuest
# Please check atom types

@<TRIPOS>MOLECULE
IYIGEE01
    60    51     2
SMALL
NO_CHARGES
****
Generated from CSD

@<TRIPOS>ATOM
      1 O1        15.1312    6.9039    3.4668 O.2       1 RES1    0.0000
      2 O2        19.7693    4.4070   -0.0662 O.2       1 RES1    0.0000
      3 O3        14.3149   -0.3574    2.1031 O.2       1 RES1    0.0000
      4 O4        14.8735   -0.0615    4.1141 O.2       1 RES1    0.0000
      5 N1        16.0920    6.2656   -1.0357 N.pl3     1 RES1    0.0000
      6 H1        15.8144    6.3337   -1.8470 H         1 RES1    0.0000
      7 N2        14.7355    0.3159    2.9878 N.pl3     1 RES1    0.0000
      8 C1        14.8452    7.0802    2.2973 C.2       1 RES1    0.0000
      9 C2        13.7231    7.9995    1.9103 C.3       1 RES1    0.0000
     10 H2        14.0689    8.9038    1.8758 H         1 RES1    0.0000
     11 H3        13.0515    7.9712    2.6094 H         1 RES1    0.0000
     12 C3        13.0449    7.6969    0.5869 C.3       1 RES1    0.0000
     13 C4        12.2685    6.4019    0.6862 C.3       1 RES1    0.0000
     14 H4        12.8653    5.6887    0.9250 H         1 RES1    0.0000
     15 H5        11.5869    6.4883    1.3565 H         1 RES1    0.0000
     16 H6        11.8612    6.2091   -0.1626 H         1 RES1    0.0000
     17 C5        12.1039    8.8091    0.2115 C.3       1 RES1    0.0000
     18 H7        12.5910    9.6336    0.1482 H         1 RES1    0.0000
     19 H8        11.6966    8.6112   -0.6344 H         1 RES1    0.0000
     20 H9        11.4224    8.8905    0.8832 H         1 RES1    0.0000
     21 C6        14.1370    7.5722   -0.4618 C.3       1 RES1    0.0000
     22 H10       13.7547    7.1882   -1.2659 H         1 RES1    0.0000
     23 H11       14.4612    8.4600   -0.6833 H         1 RES1    0.0000
     24 C7        15.2991    6.7277   -0.0273 C.2       1 RES1    0.0000
     25 C8        15.5867    6.4451    1.2414 C.2       1 RES1    0.0000
     26 C9        16.7005    5.5092    1.5982 C.3       1 RES1    0.0000
     27 H12       17.1826    5.8866    2.3635 H         1 RES1    0.0000
     28 C10       17.6730    5.3812    0.4503 C.2       1 RES1    0.0000
     29 C11       17.3255    5.6937   -0.7998 C.2       1 RES1    0.0000
     30 C12       18.1268    5.5557   -2.0283 C.3       1 RES1    0.0000
     31 H13       17.6148    5.8600   -2.7806 H         1 RES1    0.0000
     32 H14       18.9264    6.0811   -1.9492 H         1 RES1    0.0000
     33 H15       18.3629    4.6331   -2.1534 H         1 RES1    0.0000
     34 C13       18.9879    4.7794    0.7221 C.2       1 RES1    0.0000
     35 O5        19.0877    4.3854    2.0283 O.3       1 RES1    0.0000
     36 C14       20.1915    3.5226    2.6670 C.3       1 RES1    0.0000
     37 H16       20.0053    3.4046    3.6006 H         1 RES1    0.0000
     38 H17       20.2198    2.6665    2.2340 H         1 RES1    0.0000
     39 H18       21.0393    3.9615    2.5634 H         1 RES1    0.0000
     40 C15       16.1768    4.1427    2.0010 C.ar      1 RES1    0.0000
     41 C16       15.5119    3.3797    1.0918 C.ar      1 RES1    0.0000
     42 H19       15.3606    3.7238    0.2417 H         1 RES1    0.0000
     43 C17       15.0564    2.1079    1.3910 C.ar      1 RES1    0.0000
     44 H20       14.6191    1.5959    0.7495 H         1 RES1    0.0000
     45 C18       15.2575    1.6375    2.6238 C.ar      1 RES1    0.0000
     46 C19       15.8859    2.3656    3.5876 C.ar      1 RES1    0.0000
     47 H21       15.9973    2.0248    4.4450 H         1 RES1    0.0000
     48 C20       16.3663    3.6456    3.2553 C.ar      1 RES1    0.0000
     49 H22       16.8119    4.1543    3.8926 H         1 RES1    0.0000
     50 O6        19.2988    4.9839    2.0484 Du        2 SUP2    0.0000
     51 C21       20.6586    4.4951    2.5720 Du        2 SUP2    0.0000
     52 H23       20.5190    3.8568    3.2755 Du        2 SUP2    0.0000
     53 H24       21.1474    4.0812    1.8571 Du        2 SUP2    0.0000
     54 H25       21.3635    4.9307    2.0873 Du        2 SUP2    0.0000
     55 H26       21.1574    5.2415    2.9115 Du        2 SUP2    0.0000
     56 H27       20.7351    4.7046    3.5056 Du        2 SUP2    0.0000
     57 H28       19.8025    2.7263    3.0367 Du        2 SUP2    0.0000
     58 H29       20.7251    3.5442    2.4512 Du        2 SUP2    0.0000
     59 H30       20.6237    4.0213    3.3647 Du        2 SUP2    0.0000
     60 H31       20.8382    3.2832    1.9981 Du        2 SUP2    0.0000
@<TRIPOS>BOND
     1    1    8 2
     2    2   34 2
     3    3    7 2
     4    4    7 2
     5    5    6 1
     6    7   45 1
     7    8    9 1
     8    9   10 1
     9   11    9 1
    10   12    9 1
    11   13   12 1
    12   14   13 1
    13   15   13 1
    14   16   13 1
    15   17   12 1
    16   18   17 1
    17   19   17 1
    18   20   17 1
    19   21   12 1
    20   22   21 1
    21   23   21 1
    22   24    5 1
    23   25    8 1
    24   26   25 1
    25   27   26 1
    26   28   26 1
    27   29    5 1
    28   30   29 1
    29   31   30 1
    30   32   30 1
    31   33   30 1
    32   34   28 1
    33   35   34 1
    34   36   35 1
    35   37   36 1
    36   38   36 1
    37   39   36 1
    38   40   26 1
    39   41   40 ar
    40   42   41 1
    41   43   41 ar
    42   44   43 1
    43   45   43 ar
    44   46   45 ar
    45   47   46 1
    46   48   40 ar
    47   49   48 1
    48   21   24 1
    49   24   25 2
    50   28   29 2
    51   46   48 ar
@<TRIPOS>SUBSTRUCTURE
     1 RES1 1
     2 SUP2 50

@<TRIPOS>CRYSIN
  16.6240   16.6240   14.3850  90.0000  90.0000  90.0000 114 1

