# MOL2 file generated by ConQuest
# Please check atom types

@<TRIPOS>MOLECULE
IYIGEE
    51    51     2
SMALL
NO_CHARGES
****
Generated from CSD

@<TRIPOS>ATOM
      1 O1         1.4303    6.6517    3.6488 O.2       1 RES1    0.0000
      2 N1         2.0963    7.7499   -0.8481 N.pl3     1 RES1    0.0000
      3 H1         1.9297    7.4564   -1.6819 H         1 RES1    0.0000
      4 C1         2.8677    8.2569    1.8214 C.3       1 RES1    0.0000
      5 H2         2.5229    8.7146    2.6169 H         1 RES1    0.0000
      6 N2         8.1096    6.2405    2.9886 N.pl3     1 RES1    0.0000
      7 C2         3.0161    9.2796    0.6994 C.2       1 RES1    0.0000
      8 O2         4.1192   11.3542    0.2734 O.2       1 RES1    0.0000
      9 C3         2.6876    8.9692   -0.5687 C.2       1 RES1    0.0000
     10 O3         3.6491   10.7770    2.3593 O.3       1 RES1    0.0000
     11 O4         8.5826    6.4687    4.0920 O.2       1 RES1    0.0000
     12 O5         8.7488    5.6245    2.1508 O.2       1 RES1    0.0000
     13 C4         1.6103    6.9293    0.1239 C.2       1 RES1    0.0000
     14 C5         0.7372    5.8067   -0.3331 C.3       1 RES1    0.0000
     15 H3         1.0936    5.4485   -1.1602 H         1 RES1    0.0000
     16 H4        -0.1483    6.1542   -0.5202 H         1 RES1    0.0000
     17 C6         0.6183    4.6719    0.6863 C.3       1 RES1    0.0000
     18 C7         0.3072    5.3003    2.0454 C.3       1 RES1    0.0000
     19 H5        -0.5949    5.6554    2.0225 H         1 RES1    0.0000
     20 H6         0.3309    4.6042    2.7209 H         1 RES1    0.0000
     21 C8         1.2453    6.4006    2.4566 C.2       1 RES1    0.0000
     22 C9         1.8919    7.1808    1.4249 C.2       1 RES1    0.0000
     23 C10        4.2386    7.6766    2.1516 C.ar      1 RES1    0.0000
     24 C11        4.9944    7.0698    1.1821 C.ar      1 RES1    0.0000
     25 H7         4.6417    6.9707    0.3278 H         1 RES1    0.0000
     26 C12        6.2598    6.6045    1.4424 C.ar      1 RES1    0.0000
     27 H8         6.7686    6.2128    0.7697 H         1 RES1    0.0000
     28 C13        6.7567    6.7285    2.7052 C.ar      1 RES1    0.0000
     29 C14        6.0296    7.2973    3.7044 C.ar      1 RES1    0.0000
     30 H9         6.3807    7.3635    4.5638 H         1 RES1    0.0000
     31 C15        4.7647    7.7761    3.4274 C.ar      1 RES1    0.0000
     32 H10        4.2620    8.1686    4.1034 H         1 RES1    0.0000
     33 C16        3.6439   10.5651    1.0382 C.2       1 RES1    0.0000
     34 C17        4.3011   11.9811    2.8027 C.3       1 RES1    0.0000
     35 H11        4.3712   11.9726    3.7599 H         1 RES1    0.0000
     36 H12        3.7877   12.7435    2.5271 H         1 RES1    0.0000
     37 H13        5.1795   12.0296    2.4173 H         1 RES1    0.0000
     38 C18        2.8499    9.8418   -1.7812 C.3       1 RES1    0.0000
     39 H14        2.8522   10.7633   -1.5137 H         1 RES1    0.0000
     40 H15        2.1220    9.6860   -2.3874 H         1 RES1    0.0000
     41 H16        3.6801    9.6338   -2.2163 H         1 RES1    0.0000
     42 C19       -0.5215    3.7360    0.2812 C.3       1 RES1    0.0000
     43 H17       -0.6112    3.0396    0.9364 H         1 RES1    0.0000
     44 H18       -0.3276    3.3476   -0.5744 H         1 RES1    0.0000
     45 H19       -1.3413    4.2342    0.2280 H         1 RES1    0.0000
     46 C20        1.9173    3.8803    0.7497 C.3       1 RES1    0.0000
     47 H20        1.8384    3.1879    1.4096 H         1 RES1    0.0000
     48 H21        2.6387    4.4673    0.9877 H         1 RES1    0.0000
     49 H22        2.0943    3.4878   -0.1083 H         1 RES1    0.0000
     50 O6         8.4587    6.0841    4.1505 Du        2 SUP2    0.0000
     51 O7         8.6999    6.0596    1.9270 Du        2 SUP2    0.0000
@<TRIPOS>BOND
     1    1   21 2
     2    2    3 1
     3    4    5 1
     4    6   11 2
     5    7    4 1
     6    8   33 2
     7    9    2 1
     8   10   33 1
     9   12    6 2
    10   13    2 1
    11   14   13 1
    12   15   14 1
    13   16   14 1
    14   17   14 1
    15   18   17 1
    16   19   18 1
    17   20   18 1
    18   21   18 1
    19   22    4 1
    20   23    4 1
    21   24   23 ar
    22   25   24 1
    23   26   24 ar
    24   27   26 1
    25   28    6 1
    26   29   28 ar
    27   30   29 1
    28   31   23 ar
    29   32   31 1
    30   33    7 1
    31   34   10 1
    32   35   34 1
    33   36   34 1
    34   37   34 1
    35   38    9 1
    36   39   38 1
    37   40   38 1
    38   41   38 1
    39   42   17 1
    40   43   42 1
    41   44   42 1
    42   45   42 1
    43   46   17 1
    44   47   46 1
    45   48   46 1
    46   49   46 1
    47    7    9 2
    48   13   22 2
    49   21   22 1
    50   26   28 ar
    51   29   31 ar
@<TRIPOS>SUBSTRUCTURE
     1 RES1 1
     2 SUP2 50

@<TRIPOS>CRYSIN
  16.2981   16.2981   14.2530  90.0000  90.0000  90.0000 114 1

