# MOL2 file generated by ConQuest
# Please check atom types

@<TRIPOS>MOLECULE
IYIHEF
    41    41     1
SMALL
NO_CHARGES
****
Generated from CSD

@<TRIPOS>ATOM
      1 O1         5.6667    3.3211    5.0029 O.2       1 RES1    0.0000
      2 O2         5.8865    4.7786    6.5596 O.2       1 RES1    0.0000
      3 O3         2.2923    6.3828    9.1049 O.2       1 RES1    0.0000
      4 O4         0.2580    6.0549    8.4595 O.2       1 RES1    0.0000
      5 O5         5.4051    0.6549    3.5202 O.2       1 RES1    0.0000
      6 O6         4.9603   -0.7799    1.8772 O.3       1 RES1    0.0000
      7 O7         1.8281    0.0013    0.6819 O.2       1 RES1    0.0000
      8 O8         0.6683    3.4177    0.5397 O.2       1 RES1    0.0000
      9 O9        -0.9429    3.4007    2.0624 O.3       1 RES1    0.0000
     10 N1         2.3330    2.2365    3.2194 N.2       1 RES1    0.0000
     11 N2         3.2850    2.8098    4.0070 N.pl3     1 RES1    0.0000
     12 H1         4.0948    2.5475    3.9997 H         1 RES1    0.0000
     13 N3         5.1960    4.0842    5.8367 N.pl3     1 RES1    0.0000
     14 N4         1.4620    5.9063    8.3333 N.pl3     1 RES1    0.0000
     15 C1         2.8651    3.5777    5.0589 C.ar      1 RES1    0.0000
     16 C2         3.7517    4.1780    5.9727 C.ar      1 RES1    0.0000
     17 C3         3.2958    4.9327    7.0495 C.ar      1 RES1    0.0000
     18 H2         3.8952    5.3062    7.6538 H         1 RES1    0.0000
     19 C4         1.9463    5.1157    7.2013 C.ar      1 RES1    0.0000
     20 C5         1.0425    4.5814    6.3020 C.ar      1 RES1    0.0000
     21 H3         0.1332    4.7394    6.4062 H         1 RES1    0.0000
     22 C6         1.4881    3.8201    5.2609 C.ar      1 RES1    0.0000
     23 H4         0.8701    3.4528    4.6699 H         1 RES1    0.0000
     24 C7         4.8953    0.3931    2.4740 C.2       1 RES1    0.0000
     25 C8         4.1058    1.3900    1.6661 C.3       1 RES1    0.0000
     26 H5         4.0452    1.0950    0.7549 H         1 RES1    0.0000
     27 H6         4.5502    2.2250    1.7032 H         1 RES1    0.0000
     28 C9         2.7056    1.5677    2.1889 C.2       1 RES1    0.0000
     29 C10        1.5896    0.9087    1.4475 C.2       1 RES1    0.0000
     30 C11        0.1800    1.3895    1.7032 C.3       1 RES1    0.0000
     31 H7        -0.0460    1.2359    2.6356 H         1 RES1    0.0000
     32 H8        -0.4172    0.8758    1.1443 H         1 RES1    0.0000
     33 C12        0.0214    2.8402    1.3628 C.2       1 RES1    0.0000
     34 C13       -1.2196    4.8015    1.8078 C.3       1 RES1    0.0000
     35 H9        -1.2110    4.9616    0.8609 H         1 RES1    0.0000
     36 H10       -0.5482    5.3423    2.2303 H         1 RES1    0.0000
     37 H11       -2.0826    5.0270    2.1628 H         1 RES1    0.0000
     38 C14        5.7292   -1.8080    2.5442 C.3       1 RES1    0.0000
     39 H12        5.6775   -2.6233    2.0396 H         1 RES1    0.0000
     40 H13        5.3732   -1.9527    3.4236 H         1 RES1    0.0000
     41 H14        6.6446   -1.5291    2.6104 H         1 RES1    0.0000
@<TRIPOS>BOND
     1    1   13 2
     2    2   13 2
     3    3   14 2
     4    4   14 2
     5    5   24 2
     6    6   24 1
     7    7   29 2
     8    8   33 2
     9    9   33 1
    10   10   11 1
    11   11   12 1
    12   13   16 1
    13   14   19 1
    14   15   11 1
    15   16   15 ar
    16   17   16 ar
    17   18   17 1
    18   19   17 ar
    19   20   19 ar
    20   21   20 1
    21   22   15 ar
    22   23   22 1
    23   24   25 1
    24   25   26 1
    25   27   25 1
    26   28   10 2
    27   29   28 1
    28   30   29 1
    29   31   30 1
    30   32   30 1
    31   33   30 1
    32   34    9 1
    33   35   34 1
    34   36   34 1
    35   37   34 1
    36   38    6 1
    37   39   38 1
    38   40   38 1
    39   41   38 1
    40   20   22 ar
    41   25   28 1
@<TRIPOS>SUBSTRUCTURE
     1 RES1 1

@<TRIPOS>CRYSIN
   8.1344    8.4620   13.6107  96.1150  98.4640 112.7890   2 1

