# MOL2 file generated by ConQuest
# Please check atom types

@<TRIPOS>MOLECULE
IYIXAQ
    58    65     1
SMALL
NO_CHARGES
****
Generated from CSD

@<TRIPOS>ATOM
      1 O1         4.9482    7.7857   11.3402 O.2       1 RES1    0.0000
      2 O2         2.5779    2.2409   10.7501 O.3       1 RES1    0.0000
      3 O3         4.0110   -0.4400   16.1585 O.2       1 RES1    0.0000
      4 O4         2.4319   -0.3479    9.5983 O.3       1 RES1    0.0000
      5 H1         2.4726    0.4184    9.8879 H         1 RES1    0.0000
      6 N1         0.7957    4.7686    8.7409 N.3       1 RES1    0.0000
      7 C1         1.3989    6.0716    9.1744 C.3       1 RES1    0.0000
      8 H2         0.8348    6.4992    9.8518 H         1 RES1    0.0000
      9 C2         1.4799    6.9465    7.9220 C.3       1 RES1    0.0000
     10 H3         1.3409    7.8825    8.1352 H         1 RES1    0.0000
     11 H4         2.3342    6.8439    7.4738 H         1 RES1    0.0000
     12 C3         0.3358    6.3926    7.0727 C.3       1 RES1    0.0000
     13 H5        -0.5227    6.7251    7.3776 H         1 RES1    0.0000
     14 H6         0.4511    6.6179    6.1359 H         1 RES1    0.0000
     15 C4         0.4594    4.8982    7.3000 C.3       1 RES1    0.0000
     16 H7        -0.3754    4.4473    7.0980 H         1 RES1    0.0000
     17 H8         1.1612    4.5211    6.7462 H         1 RES1    0.0000
     18 C5         1.8015    3.7237    9.0127 C.3       1 RES1    0.0000
     19 H9         1.7572    3.0133    8.3396 H         1 RES1    0.0000
     20 C6         3.1489    4.4412    8.9586 C.3       1 RES1    0.0000
     21 H10        3.4044    4.6767    8.0540 H         1 RES1    0.0000
     22 H11        3.8567    3.9263    9.3768 H         1 RES1    0.0000
     23 C7         2.7558    5.6646    9.7856 C.3       1 RES1    0.0000
     24 O5         3.7132    6.7314    9.7983 O.3       1 RES1    0.0000
     25 C8         4.1387    6.9313   11.0859 C.2       1 RES1    0.0000
     26 C9         3.4517    5.9804   11.9640 C.2       1 RES1    0.0000
     27 H12        3.5764    5.8998   12.8822 H         1 RES1    0.0000
     28 C10        2.6216    5.2548   11.2260 C.2       1 RES1    0.0000
     29 C11        1.6064    4.2029   11.5437 C.3       1 RES1    0.0000
     30 H13        0.7290    4.6248   11.6556 H         1 RES1    0.0000
     31 C12        1.5278    3.1674   10.4134 C.3       1 RES1    0.0000
     32 H14        0.6592    2.7136   10.4320 H         1 RES1    0.0000
     33 N2         2.6493    2.1347   12.2166 N.3       1 RES1    0.0000
     34 C13        1.9198    0.9160   12.6393 C.3       1 RES1    0.0000
     35 H15        1.3131    0.6444   11.9201 H         1 RES1    0.0000
     36 C14        1.0879    1.3466   13.8487 C.3       1 RES1    0.0000
     37 H16        0.3151    0.7723   13.9675 H         1 RES1    0.0000
     38 H17        1.6176    1.3395   14.6619 H         1 RES1    0.0000
     39 C15        0.6693    2.7674   13.4717 C.3       1 RES1    0.0000
     40 H18        0.4588    3.2899   14.2621 H         1 RES1    0.0000
     41 H19       -0.1011    2.7597   12.8822 H         1 RES1    0.0000
     42 C16        1.9026    3.3227   12.7574 C.3       1 RES1    0.0000
     43 H20        2.4661    3.8098   13.3932 H         1 RES1    0.0000
     44 C17        2.9296   -1.2597   10.5856 C.3       1 RES1    0.0000
     45 H21        3.5297   -1.8767   10.1163 H         1 RES1    0.0000
     46 C18        3.7674   -0.5848   11.6877 C.3       1 RES1    0.0000
     47 H22        4.4810   -1.1827   11.9592 H         1 RES1    0.0000
     48 H23        4.1724    0.2213   11.3309 H         1 RES1    0.0000
     49 C19        2.9249   -0.2285   12.9023 C.3       1 RES1    0.0000
     50 O6         3.7616    0.1689   14.0159 O.3       1 RES1    0.0000
     51 C20        3.4735   -0.6278   15.0990 C.2       1 RES1    0.0000
     52 C21        2.5181   -1.6494   14.6803 C.2       1 RES1    0.0000
     53 H24        2.1645   -2.3159   15.2241 H         1 RES1    0.0000
     54 C22        2.2367   -1.4695   13.3878 C.2       1 RES1    0.0000
     55 C23        1.4958   -2.2396   12.4102 C.2       1 RES1    0.0000
     56 H25        0.8260   -2.8265   12.6777 H         1 RES1    0.0000
     57 C24        1.7944   -2.0898   11.1195 C.2       1 RES1    0.0000
     58 H26        1.2587   -2.5326   10.5011 H         1 RES1    0.0000
@<TRIPOS>BOND
     1    1   25 2
     2    2   31 1
     3    3   51 2
     4    4    5 1
     5    6    7 1
     6    7    8 1
     7    9    7 1
     8   10    9 1
     9   11    9 1
    10   12    9 1
    11   13   12 1
    12   14   12 1
    13   15    6 1
    14   16   15 1
    15   17   15 1
    16   18    6 1
    17   19   18 1
    18   20   18 1
    19   21   20 1
    20   22   20 1
    21   23    7 1
    22   24   23 1
    23   25   24 1
    24   26   25 1
    25   27   26 1
    26   28   23 1
    27   29   28 1
    28   30   29 1
    29   31   18 1
    30   32   31 1
    31   33    2 1
    32   34   33 1
    33   35   34 1
    34   36   34 1
    35   37   36 1
    36   38   36 1
    37   39   36 1
    38   40   39 1
    39   41   39 1
    40   42   29 1
    41   43   42 1
    42   44    4 1
    43   45   44 1
    44   46   44 1
    45   47   46 1
    46   48   46 1
    47   49   34 1
    48   50   49 1
    49   51   50 1
    50   52   51 1
    51   53   52 1
    52   54   49 1
    53   55   54 1
    54   56   55 1
    55   57   44 1
    56   58   57 1
    57   12   15 1
    58   20   23 1
    59   26   28 2
    60   29   31 1
    61   33   42 1
    62   39   42 1
    63   46   49 1
    64   52   54 2
    65   55   57 2
@<TRIPOS>SUBSTRUCTURE
     1 RES1 1

@<TRIPOS>CRYSIN
   5.9124   11.5275   30.0634  90.0000  90.0000  90.0000  19 1

