# MOL2 file generated by ConQuest
# Please check atom types

@<TRIPOS>MOLECULE
IYOZEC
    45    47     1
SMALL
NO_CHARGES
****
Generated from CSD

@<TRIPOS>ATOM
      1 O1         2.5476    5.0145    3.4441 O.2       1 RES1    0.0000
      2 C1         2.6302    3.8083    3.2340 C.2       1 RES1    0.0000
      3 N1         2.1099    2.8174    3.9727 N.am      1 RES1    0.0000
      4 C2         2.4183    1.4685    3.5203 C.3       1 RES1    0.0000
      5 C3         3.0140    1.6629    2.1205 C.3       1 RES1    0.0000
      6 C4         3.4103    3.1852    2.0584 C.3       1 RES1    0.0000
      7 C5         4.9395    3.3908    2.2244 C.3       1 RES1    0.0000
      8 C6         5.4788    2.8223    3.5089 C.2       1 RES1    0.0000
      9 C7         5.3594    3.3551    4.8364 C.2       1 RES1    0.0000
     10 C8         6.0377    2.5349    5.6484 C.2       1 RES1    0.0000
     11 O2         6.5797    1.5062    4.9504 O.3       1 RES1    0.0000
     12 C9         6.2311    1.7013    3.6317 C.2       1 RES1    0.0000
     13 C10        5.3026    4.8796    2.1269 C.3       1 RES1    0.0000
     14 N2         6.7886    5.0334    2.0661 N.pl3     1 RES1    0.0000
     15 O3         7.3378    5.7439    2.8920 O.2       1 RES1    0.0000
     16 O4         7.3831    4.4397    1.1674 O.2       1 RES1    0.0000
     17 C11        2.9040    3.7572    0.7512 C.2       1 RES1    0.0000
     18 O5         3.5753    3.9607   -0.2290 O.2       1 RES1    0.0000
     19 O6         1.5812    3.9411    0.8040 O.3       1 RES1    0.0000
     20 C12        0.9603    4.4586   -0.4016 C.3       1 RES1    0.0000
     21 C13        1.0608    0.8126    3.7027 C.3       1 RES1    0.0000
     22 O7         0.5753    1.4398    4.9005 O.3       1 RES1    0.0000
     23 C14        0.9168    2.8356    4.8478 C.3       1 RES1    0.0000
     24 C15        1.2461    3.2859    6.2526 C.3       1 RES1    0.0000
     25 C16       -0.2059    3.6432    4.2246 C.3       1 RES1    0.0000
     26 H1         3.0897    1.0734    4.1536 H         1 RES1    0.0000
     27 H2         2.3124    1.4895    1.4542 H         1 RES1    0.0000
     28 H3         3.7925    1.0951    1.9799 H         1 RES1    0.0000
     29 H4         5.4216    2.9391    1.4694 H         1 RES1    0.0000
     30 H5         4.8872    4.1376    5.0872 H         1 RES1    0.0000
     31 H6         6.1345    2.6475    6.5946 H         1 RES1    0.0000
     32 H7         6.4888    1.1195    2.9439 H         1 RES1    0.0000
     33 H8         4.9295    5.2705    1.2971 H         1 RES1    0.0000
     34 H9         5.0006    5.3530    2.9388 H         1 RES1    0.0000
     35 H10        0.0182    4.6341   -0.1849 H         1 RES1    0.0000
     36 H11        1.0395    3.7810   -1.1185 H         1 RES1    0.0000
     37 H12        1.4210    5.2942   -0.6334 H         1 RES1    0.0000
     38 H13        0.4683    1.0258    2.9287 H         1 RES1    0.0000
     39 H14        1.1431   -0.1783    3.8281 H         1 RES1    0.0000
     40 H15        0.4360    3.1908    6.7897 H         1 RES1    0.0000
     41 H16        1.9771    2.7580    6.6250 H         1 RES1    0.0000
     42 H17        1.4903    4.2362    6.1943 H         1 RES1    0.0000
     43 H18       -0.9955    3.5195    4.8060 H         1 RES1    0.0000
     44 H19       -0.3802    3.2845    3.3353 H         1 RES1    0.0000
     45 H20        0.0600    4.5810    4.1992 H         1 RES1    0.0000
@<TRIPOS>BOND
     1    1    2 2
     2    2    3 1
     3    3    4 1
     4    4    5 1
     5    5    6 1
     6    6    2 1
     7    7    6 1
     8    8    7 1
     9    9    8 1
    10   10    9 2
    11   11   10 1
    12   12    8 2
    13   13    7 1
    14   14   13 1
    15   15   14 2
    16   16   14 2
    17   17    6 1
    18   18   17 2
    19   19   17 1
    20   20   19 1
    21   21    4 1
    22   22   21 1
    23   23    3 1
    24   24   23 1
    25   25   23 1
    26   26    4 1
    27   27    5 1
    28   28    5 1
    29   29    7 1
    30   30    9 1
    31   31   10 1
    32   32   12 1
    33   33   13 1
    34   34   13 1
    35   35   20 1
    36   36   20 1
    37   37   20 1
    38   38   21 1
    39   39   21 1
    40   40   24 1
    41   41   24 1
    42   42   24 1
    43   43   25 1
    44   44   25 1
    45   45   25 1
    46   11   12 1
    47   22   23 1
@<TRIPOS>SUBSTRUCTURE
     1 RES1 1

@<TRIPOS>CRYSIN
   9.5453    6.9928   13.4491  90.0000 109.6310  90.0000   4 1

