# MOL2 file generated by ConQuest
# Please check atom types

@<TRIPOS>MOLECULE
IYUPUP
    47    50     1
SMALL
NO_CHARGES
****
Generated from CSD

@<TRIPOS>ATOM
      1 O1        19.6094    4.2328    4.1776 O.2       1 RES1    0.0000
      2 O2        17.7946    3.5090    3.2089 O.2       1 RES1    0.0000
      3 N1        19.1833    8.5096   -0.4310 N.2       1 RES1    0.0000
      4 N2        16.9558    6.4860   -0.6099 N.2       1 RES1    0.0000
      5 N3        18.7352    4.2881    3.2928 N.pl3     1 RES1    0.0000
      6 C1        18.1743    9.1901   -0.8765 C.2       1 RES1    0.0000
      7 C2        16.7841    8.9000   -0.3416 C.3       1 RES1    0.0000
      8 H1        16.7946    8.8198    0.6454 H         1 RES1    0.0000
      9 H2        16.1504    9.6133   -0.5999 H         1 RES1    0.0000
     10 C3        16.4068    7.5855   -0.9837 C.2       1 RES1    0.0000
     11 C4        17.9157    5.4406    1.3020 C.ar      1 RES1    0.0000
     12 H3        17.2477    4.7690    1.2276 H         1 RES1    0.0000
     13 C5        18.8623    5.3717    2.3007 C.ar      1 RES1    0.0000
     14 C6        19.9123    6.2790    2.3935 C.ar      1 RES1    0.0000
     15 H4        20.5654    6.1973    3.0789 H         1 RES1    0.0000
     16 C7        19.9858    7.2921    1.4725 C.ar      1 RES1    0.0000
     17 H5        20.7200    7.8949    1.5025 H         1 RES1    0.0000
     18 C8        18.9941    7.4605    0.4816 C.ar      1 RES1    0.0000
     19 C9        17.9443    6.5051    0.4010 C.ar      1 RES1    0.0000
     20 C10       18.3772   10.1904   -1.9486 C.ar      1 RES1    0.0000
     21 C11       17.3065   10.8300   -2.5840 C.ar      1 RES1    0.0000
     22 H6        16.4188   10.6473   -2.3007 H         1 RES1    0.0000
     23 C12       17.5191   11.7245   -3.6138 C.ar      1 RES1    0.0000
     24 H7        16.7774   12.1477   -4.0299 H         1 RES1    0.0000
     25 C13       18.7983   12.0082   -4.0460 C.ar      1 RES1    0.0000
     26 H8        18.9441   12.6206   -4.7570 H         1 RES1    0.0000
     27 C14       19.8761   11.3766   -3.4205 C.ar      1 RES1    0.0000
     28 H9        20.7629   11.5642   -3.7088 H         1 RES1    0.0000
     29 C15       19.6669   10.4854   -2.3868 C.ar      1 RES1    0.0000
     30 H10       20.4108   10.0686   -1.9691 H         1 RES1    0.0000
     31 C16       15.3947    7.5727   -2.0908 C.3       1 RES1    0.0000
     32 H11       15.2249    6.6381   -2.3685 H         1 RES1    0.0000
     33 H12       15.7574    8.0632   -2.8712 H         1 RES1    0.0000
     34 C17       14.0889    8.2139   -1.6614 C.ar      1 RES1    0.0000
     35 C18       13.4438    7.7666   -0.5049 C.ar      1 RES1    0.0000
     36 H13       13.8119    7.0485   -0.0044 H         1 RES1    0.0000
     37 C19       12.2638    8.3726   -0.0850 C.ar      1 RES1    0.0000
     38 H14       11.8320    8.0504    0.6965 H         1 RES1    0.0000
     39 C20       11.7047    9.4306   -0.7732 C.ar      1 RES1    0.0000
     40 C21       10.4304   10.0926   -0.2877 C.3       1 RES1    0.0000
     41 H15        9.8221    9.4097    0.0667 H         1 RES1    0.0000
     42 H16       10.0003   10.5575   -1.0343 H         1 RES1    0.0000
     43 H17       10.6467   10.7370    0.4188 H         1 RES1    0.0000
     44 C22       12.3433    9.8682   -1.9186 C.ar      1 RES1    0.0000
     45 H18       11.9737   10.5896   -2.4129 H         1 RES1    0.0000
     46 C23       13.5233    9.2671   -2.3624 C.ar      1 RES1    0.0000
     47 H19       13.9429    9.5829   -3.1539 H         1 RES1    0.0000
@<TRIPOS>BOND
     1    1    5 2
     2    2    5 2
     3    3    6 2
     4    4   10 2
     5    5   13 1
     6    6    7 1
     7    7    8 1
     8    9    7 1
     9   10    7 1
    10   11   12 1
    11   13   11 ar
    12   14   13 ar
    13   15   14 1
    14   16   14 ar
    15   17   16 1
    16   18    3 1
    17   19    4 1
    18   20    6 1
    19   21   20 ar
    20   22   21 1
    21   23   21 ar
    22   24   23 1
    23   25   23 ar
    24   26   25 1
    25   27   25 ar
    26   28   27 1
    27   29   20 ar
    28   30   29 1
    29   31   10 1
    30   32   31 1
    31   33   31 1
    32   34   31 1
    33   35   34 ar
    34   36   35 1
    35   37   35 ar
    36   38   37 1
    37   39   37 ar
    38   40   39 1
    39   41   40 1
    40   42   40 1
    41   43   40 1
    42   44   39 ar
    43   45   44 1
    44   46   34 ar
    45   47   46 1
    46   11   19 ar
    47   16   18 ar
    48   18   19 ar
    49   27   29 ar
    50   44   46 ar
@<TRIPOS>SUBSTRUCTURE
     1 RES1 1

@<TRIPOS>CRYSIN
  21.4737   16.0302    5.5546  90.0000  90.0000  90.0000  33 1

