# MOL2 file generated by ConQuest
# Please check atom types

@<TRIPOS>MOLECULE
IZARUX
    47    50     1
SMALL
NO_CHARGES
****
Generated from CSD

@<TRIPOS>ATOM
      1 O1        10.7434    3.7235    3.1336 O.3       1 RES1    0.0000
      2 O2        12.5757   -0.8960    2.7273 O.3       1 RES1    0.0000
      3 N1        13.1894    0.2552   -3.5701 N.ar      1 RES1    0.0000
      4 N2        12.8852   -1.2084    1.4066 N.2       1 RES1    0.0000
      5 N3        13.0633   -2.5323    5.9659 N.3       1 RES1    0.0000
      6 C1        13.5672   -0.9566   -3.0389 C.ar      1 RES1    0.0000
      7 C2        14.1277   -1.9040   -3.9148 C.ar      1 RES1    0.0000
      8 H1        14.2472   -1.6859   -4.8104 H         1 RES1    0.0000
      9 C3        14.4961   -3.1344   -3.4670 C.ar      1 RES1    0.0000
     10 H2        14.8566   -3.7533   -4.0600 H         1 RES1    0.0000
     11 C4        14.3365   -3.4704   -2.1227 C.ar      1 RES1    0.0000
     12 H3        14.5919   -4.3142   -1.8293 H         1 RES1    0.0000
     13 C5        13.8127   -2.5836   -1.2337 C.ar      1 RES1    0.0000
     14 H4        13.7187   -2.8245   -0.3403 H         1 RES1    0.0000
     15 C6        13.4104   -1.2935   -1.6611 C.ar      1 RES1    0.0000
     16 C7        12.8660   -0.2830   -0.8311 C.ar      1 RES1    0.0000
     17 C8        12.5995   -0.2248    0.6235 C.2       1 RES1    0.0000
     18 C9        12.0383    1.1259    0.8952 C.ar      1 RES1    0.0000
     19 C10       11.6211    1.7103    2.0812 C.ar      1 RES1    0.0000
     20 H5        11.6360    1.2371    2.8822 H         1 RES1    0.0000
     21 C11       11.1771    3.0325    2.0342 C.ar      1 RES1    0.0000
     22 C12       11.1607    3.7272    0.8348 C.ar      1 RES1    0.0000
     23 H6        10.8775    4.6131    0.8260 H         1 RES1    0.0000
     24 C13       11.5546    3.1344   -0.3457 C.ar      1 RES1    0.0000
     25 H7        11.5226    3.6060   -1.1459 H         1 RES1    0.0000
     26 C14       11.9995    1.8223   -0.3161 C.ar      1 RES1    0.0000
     27 C15       12.5065    0.9381   -1.3778 C.ar      1 RES1    0.0000
     28 C16       12.6794    1.1520   -2.7541 C.ar      1 RES1    0.0000
     29 H8        12.4197    1.9714   -3.1076 H         1 RES1    0.0000
     30 C17       10.8152    3.0864    4.4000 C.3       1 RES1    0.0000
     31 H9        10.4855    3.6817    5.0765 H         1 RES1    0.0000
     32 H10       11.7270    2.8565    4.5923 H         1 RES1    0.0000
     33 H11       10.2802    2.2889    4.3872 H         1 RES1    0.0000
     34 C18       12.9592   -1.9781    3.5903 C.3       1 RES1    0.0000
     35 H12       13.9063   -2.1668    3.4973 H         1 RES1    0.0000
     36 H13       12.4592   -2.7807    3.3708 H         1 RES1    0.0000
     37 C19       12.6500   -1.5352    4.9823 C.3       1 RES1    0.0000
     38 H14       13.1064   -0.6990    5.1623 H         1 RES1    0.0000
     39 H15       11.6958   -1.3794    5.0649 H         1 RES1    0.0000
     40 C20       14.4834   -2.4236    6.2647 C.3       1 RES1    0.0000
     41 H16       14.9890   -2.5078    5.4531 H         1 RES1    0.0000
     42 H17       14.7362   -3.1217    6.8739 H         1 RES1    0.0000
     43 H18       14.6623   -1.5697    6.6645 H         1 RES1    0.0000
     44 C21       12.2676   -2.4059    7.1769 C.3       1 RES1    0.0000
     45 H19       11.3365   -2.4800    6.9568 H         1 RES1    0.0000
     46 H20       12.4347   -1.5520    7.5820 H         1 RES1    0.0000
     47 H21       12.5072   -3.1041    7.7914 H         1 RES1    0.0000
@<TRIPOS>BOND
     1    1   21 1
     2    2    4 1
     3    3    6 ar
     4    4   17 2
     5    5   37 1
     6    6    7 ar
     7    7    8 1
     8    9    7 ar
     9   10    9 1
    10   11    9 ar
    11   12   11 1
    12   13   11 ar
    13   14   13 1
    14   15    6 ar
    15   16   15 ar
    16   17   16 1
    17   18   17 1
    18   19   18 ar
    19   20   19 1
    20   21   19 ar
    21   22   21 ar
    22   23   22 1
    23   24   22 ar
    24   25   24 1
    25   26   18 ar
    26   27   16 ar
    27   28    3 ar
    28   29   28 1
    29   30    1 1
    30   31   30 1
    31   32   30 1
    32   33   30 1
    33   34    2 1
    34   35   34 1
    35   36   34 1
    36   37   34 1
    37   38   37 1
    38   39   37 1
    39   40    5 1
    40   41   40 1
    41   42   40 1
    42   43   40 1
    43   44    5 1
    44   45   44 1
    45   46   44 1
    46   47   44 1
    47   13   15 ar
    48   24   26 ar
    49   26   27 1
    50   27   28 ar
@<TRIPOS>SUBSTRUCTURE
     1 RES1 1

@<TRIPOS>CRYSIN
  14.5476    8.4212   14.9701  90.0000 103.7400  90.0000 231 1

