# MOL2 file generated by ConQuest
# Please check atom types

@<TRIPOS>MOLECULE
IZAREG
    23    23     1
SMALL
NO_CHARGES
****
Generated from CSD

@<TRIPOS>ATOM
      1 O1        -0.5864    1.2676    3.4783 O.3       1 RES1    0.0000
      2 O2        -1.4139    3.3082    3.9167 O.2       1 RES1    0.0000
      3 O3         4.2744    0.2254   -3.0056 O.2       1 RES1    0.0000
      4 O4         3.3368   -1.3100   -1.8571 O.2       1 RES1    0.0000
      5 N1         0.1704    1.8951    2.4411 N.2       1 RES1    0.0000
      6 N2         3.5893   -0.1413   -2.0750 N.pl3     1 RES1    0.0000
      7 C1         1.6595    1.4273    0.6817 C.ar      1 RES1    0.0000
      8 C2         2.0263    2.7705    0.5069 C.ar      1 RES1    0.0000
      9 C3         2.8942    3.1281   -0.4915 C.ar      1 RES1    0.0000
     10 C4         3.4249    2.1863   -1.3398 C.ar      1 RES1    0.0000
     11 C5         3.0473    0.8801   -1.1650 C.ar      1 RES1    0.0000
     12 C6         2.1812    0.4731   -0.1697 C.ar      1 RES1    0.0000
     13 C7         0.7595    1.0203    1.7594 C.2       1 RES1    0.0000
     14 C8        -1.3209    2.1650    4.1943 C.2       1 RES1    0.0000
     15 C9        -1.9748    1.4811    5.3377 C.3       1 RES1    0.0000
     16 H1         1.6779    3.4215    1.0719 H         1 RES1    0.0000
     17 H2         3.1277    4.0227   -0.5957 H         1 RES1    0.0000
     18 H3         4.0210    2.4277   -2.0121 H         1 RES1    0.0000
     19 H4         1.9541   -0.4237   -0.0742 H         1 RES1    0.0000
     20 H5         0.6250    0.1179    1.9400 H         1 RES1    0.0000
     21 H6        -2.4867    2.1180    5.8416 H         1 RES1    0.0000
     22 H7        -1.3042    1.0905    5.9029 H         1 RES1    0.0000
     23 H8        -2.5567    0.7919    5.0086 H         1 RES1    0.0000
@<TRIPOS>BOND
     1    1    5 1
     2    2   14 2
     3    3    6 2
     4    4    6 2
     5    5   13 2
     6    6   11 1
     7    7    8 ar
     8    8    9 ar
     9    9   10 ar
    10   10   11 ar
    11   11   12 ar
    12   12    7 ar
    13   13    7 1
    14   14    1 1
    15   15   14 1
    16   16    8 1
    17   17    9 1
    18   18   10 1
    19   19   12 1
    20   20   13 1
    21   21   15 1
    22   22   15 1
    23   23   15 1
@<TRIPOS>SUBSTRUCTURE
     1 RES1 1

@<TRIPOS>CRYSIN
   8.3129   11.2119   10.2947  90.0000  92.7690  90.0000  14 1

