# MOL2 file generated by ConQuest
# Please check atom types

@<TRIPOS>MOLECULE
IZECOF
    42    44     1
SMALL
NO_CHARGES
****
Generated from CSD

@<TRIPOS>ATOM
      1 O1         4.3568    6.4014    7.1404 O.3       1 RES1    0.0000
      2 H1         5.1403    6.5003    7.3607 H         1 RES1    0.0000
      3 O2         0.3067    3.8705    7.3558 O.2       1 RES1    0.0000
      4 O3         0.3753    7.3332    4.4296 O.2       1 RES1    0.0000
      5 N1         4.2812    5.4828    6.0829 N.2       1 RES1    0.0000
      6 N2         0.6260    5.6617    5.9716 N.am      1 RES1    0.0000
      7 C1         3.8915    3.7773    2.7362 C.3       1 RES1    0.0000
      8 C2         3.8702    3.3258    4.2209 C.3       1 RES1    0.0000
      9 H2         3.5345    2.4245    4.3484 H         1 RES1    0.0000
     10 H3         4.7177    3.4466    4.6763 H         1 RES1    0.0000
     11 C3         2.8305    4.4250    4.5436 C.3       1 RES1    0.0000
     12 H4         1.9219    4.0580    4.5568 H         1 RES1    0.0000
     13 C4         3.1516    5.0704    3.1649 C.3       1 RES1    0.0000
     14 H5         2.3638    5.2637    2.6323 H         1 RES1    0.0000
     15 H6         3.7287    5.8481    3.2238 H         1 RES1    0.0000
     16 C5        -0.0791    4.5947    6.4604 C.2       1 RES1    0.0000
     17 C6        -1.3605    4.4699    5.6952 C.3       1 RES1    0.0000
     18 H7        -2.1220    4.4808    6.2974 H         1 RES1    0.0000
     19 H8        -1.3768    3.6462    5.1850 H         1 RES1    0.0000
     20 C7        -1.3854    5.6732    4.7759 C.3       1 RES1    0.0000
     21 H9        -1.4892    5.3965    3.8520 H         1 RES1    0.0000
     22 H10       -2.1159    6.2674    5.0073 H         1 RES1    0.0000
     23 C8        -0.0637    6.3525    4.9812 C.2       1 RES1    0.0000
     24 C9         1.9544    6.0448    6.4258 C.3       1 RES1    0.0000
     25 H11        2.0195    5.8780    7.3791 H         1 RES1    0.0000
     26 H12        2.0709    6.9973    6.2851 H         1 RES1    0.0000
     27 C10        3.0710    5.3085    5.7256 C.2       1 RES1    0.0000
     28 C11        3.0241    2.9082    1.8319 C.3       1 RES1    0.0000
     29 H13        2.1576    2.7978    2.2278 H         1 RES1    0.0000
     30 H14        3.4373    2.0483    1.7222 H         1 RES1    0.0000
     31 H15        2.9321    3.3304    0.9745 H         1 RES1    0.0000
     32 C12        5.2655    3.9505    2.1341 C.ar      1 RES1    0.0000
     33 C13        5.5929    5.0457    1.3526 C.ar      1 RES1    0.0000
     34 H16        4.9545    5.7031    1.1921 H         1 RES1    0.0000
     35 C14        6.8592    5.1739    0.8047 C.ar      1 RES1    0.0000
     36 H17        7.0601    5.9108    0.2727 H         1 RES1    0.0000
     37 C15        7.8195    4.2197    1.0401 C.ar      1 RES1    0.0000
     38 H18        8.6717    4.3152    0.6803 H         1 RES1    0.0000
     39 C16        7.5170    3.1308    1.8059 C.ar      1 RES1    0.0000
     40 H19        8.1635    2.4808    1.9643 H         1 RES1    0.0000
     41 C17        6.2449    2.9910    2.3498 C.ar      1 RES1    0.0000
     42 H20        6.0474    2.2427    2.8652 H         1 RES1    0.0000
@<TRIPOS>BOND
     1    1    2 1
     2    3   16 2
     3    4   23 2
     4    5    1 1
     5    6   16 1
     6    7    8 1
     7    8    9 1
     8   10    8 1
     9   11    8 1
    10   12   11 1
    11   13    7 1
    12   14   13 1
    13   15   13 1
    14   16   17 1
    15   17   18 1
    16   19   17 1
    17   20   17 1
    18   21   20 1
    19   22   20 1
    20   23    6 1
    21   24    6 1
    22   25   24 1
    23   26   24 1
    24   27    5 2
    25   28    7 1
    26   29   28 1
    27   30   28 1
    28   31   28 1
    29   32    7 1
    30   33   32 ar
    31   34   33 1
    32   35   33 ar
    33   36   35 1
    34   37   35 ar
    35   38   37 1
    36   39   37 ar
    37   40   39 1
    38   41   32 ar
    39   42   41 1
    40   11   27 1
    41   11   13 1
    42   20   23 1
    43   24   27 1
    44   39   41 ar
@<TRIPOS>SUBSTRUCTURE
     1 RES1 1

@<TRIPOS>CRYSIN
   8.8356    5.7520   30.8030  90.0000  95.8210  90.0000  14 1

