# MOL2 file generated by ConQuest
# Please check atom types

@<TRIPOS>MOLECULE
IZEQUA
    36    38     1
SMALL
NO_CHARGES
****
Generated from CSD

@<TRIPOS>ATOM
      1 C1         5.9710    2.6795    6.7110 C.2       1 RES1    0.0000
      2 C2         5.6582    4.0336    7.1811 C.2       1 RES1    0.0000
      3 C3         4.5667    4.4883    5.0555 C.ar      1 RES1    0.0000
      4 C4         4.8260    3.1928    4.5752 C.ar      1 RES1    0.0000
      5 C5         5.5304    2.2209    5.3841 C.2       1 RES1    0.0000
      6 C6         3.9013    5.3963    4.2454 C.ar      1 RES1    0.0000
      7 H1         3.7337    6.2561    4.5592 H         1 RES1    0.0000
      8 C7         3.4902    5.0433    2.9904 C.ar      1 RES1    0.0000
      9 H2         3.0447    5.6623    2.4587 H         1 RES1    0.0000
     10 C8         3.7340    3.7687    2.5089 C.ar      1 RES1    0.0000
     11 H3         3.4554    3.5330    1.6532 H         1 RES1    0.0000
     12 C9         4.3885    2.8509    3.2950 C.ar      1 RES1    0.0000
     13 H4         4.5408    1.9929    2.9710 H         1 RES1    0.0000
     14 C10        4.6243    6.2075    6.8331 C.3       1 RES1    0.0000
     15 H5         4.8768    6.2877    7.7549 H         1 RES1    0.0000
     16 H6         3.6787    6.3441    6.7464 H         1 RES1    0.0000
     17 H7         5.0922    6.8669    6.3151 H         1 RES1    0.0000
     18 C11        7.7001    1.1114    9.3922 C.ar      1 RES1    0.0000
     19 C12        7.9685   -0.1519    8.9004 C.ar      1 RES1    0.0000
     20 H8         7.7171   -0.3788    8.0345 H         1 RES1    0.0000
     21 C13        8.6047   -1.0649    9.6945 C.ar      1 RES1    0.0000
     22 H9         8.7676   -1.9254    9.3808 H         1 RES1    0.0000
     23 C14        8.9997   -0.7052   10.9553 C.ar      1 RES1    0.0000
     24 C15        8.7533    0.5590   11.4459 C.ar      1 RES1    0.0000
     25 H10        9.0276    0.7897   12.3039 H         1 RES1    0.0000
     26 C16        8.1056    1.4702   10.6632 C.ar      1 RES1    0.0000
     27 H11        7.9372    2.3260   10.9838 H         1 RES1    0.0000
     28 N1         4.9699    4.8733    6.3471 N.am      1 RES1    0.0000
     29 N2         6.6151    1.7754    7.4242 N.2       1 RES1    0.0000
     30 N3         7.0271    2.0697    8.6197 N.pl3     1 RES1    0.0000
     31 H12        6.8858    2.8552    8.9392 H         1 RES1    0.0000
     32 N4         9.6890   -1.6723   11.7996 N.pl3     1 RES1    0.0000
     33 O1         6.0105    4.4098    8.3110 O.2       1 RES1    0.0000
     34 O2         5.7532    1.0793    4.9822 O.2       1 RES1    0.0000
     35 O3         9.8027   -2.8282   11.4048 O.2       1 RES1    0.0000
     36 O4        10.1397   -1.2933   12.8707 O.2       1 RES1    0.0000
@<TRIPOS>BOND
     1    1    2 1
     2    2   28 1
     3    3    4 ar
     4    4    5 1
     5    5    1 1
     6    6    3 ar
     7    7    6 1
     8    8    6 ar
     9    9    8 1
    10   10    8 ar
    11   11   10 1
    12   12    4 ar
    13   13   12 1
    14   14   15 1
    15   16   14 1
    16   17   14 1
    17   18   19 ar
    18   19   20 1
    19   21   19 ar
    20   22   21 1
    21   23   21 ar
    22   24   23 ar
    23   25   24 1
    24   26   18 ar
    25   27   26 1
    26   28    3 1
    27   29    1 2
    28   30   18 1
    29   31   30 1
    30   32   23 1
    31   33    2 2
    32   34    5 2
    33   35   32 2
    34   36   32 2
    35   10   12 ar
    36   14   28 1
    37   24   26 ar
    38   29   30 1
@<TRIPOS>SUBSTRUCTURE
     1 RES1 1

@<TRIPOS>CRYSIN
   7.8700    8.0484   11.4690  94.7700  92.8560  95.9720   2 1

