# MOL2 file generated by ConQuest
# Please check atom types

@<TRIPOS>MOLECULE
IZIPUD
    35    36     1
SMALL
NO_CHARGES
****
Generated from CSD

@<TRIPOS>ATOM
      1 O1         6.4448   -1.5229   -1.9794 O.3       1 RES1    0.0000
      2 H1         5.9166   -2.0061   -1.5795 H         1 RES1    0.0000
      3 O2        14.1308    1.6761    3.5182 O.2       1 RES1    0.0000
      4 O3        15.9719    2.7778    3.3987 O.2       1 RES1    0.0000
      5 O4        17.4190    4.9028   -0.5157 O.2       1 RES1    0.0000
      6 O5        16.2266    4.8637   -2.3090 O.2       1 RES1    0.0000
      7 N1        11.4810    1.0169    0.7239 N.2       1 RES1    0.0000
      8 N2        12.5498    1.4797    1.4571 N.pl3     1 RES1    0.0000
      9 H2        12.6057    1.3086    2.2983 H         1 RES1    0.0000
     10 N3        14.9380    2.3703    2.8870 N.pl3     1 RES1    0.0000
     11 N4        16.4154    4.5614   -1.1356 N.pl3     1 RES1    0.0000
     12 C1         7.3892   -1.0593   -1.1045 C.ar      1 RES1    0.0000
     13 C2         7.4544   -1.4276    0.2057 C.ar      1 RES1    0.0000
     14 H3         6.8239   -2.0191    0.5495 H         1 RES1    0.0000
     15 C3         8.4449   -0.9330    1.0314 C.ar      1 RES1    0.0000
     16 H4         8.4606   -1.1815    1.9274 H         1 RES1    0.0000
     17 C4         9.4239   -0.0644    0.5401 C.ar      1 RES1    0.0000
     18 C5         9.3190    0.3096   -0.7945 C.ar      1 RES1    0.0000
     19 H5         9.9434    0.9028   -1.1464 H         1 RES1    0.0000
     20 C6         8.3217   -0.1695   -1.6120 C.ar      1 RES1    0.0000
     21 H6         8.2755    0.1019   -2.5013 H         1 RES1    0.0000
     22 C7        10.5287    0.4416    1.3711 C.2       1 RES1    0.0000
     23 C8        10.4975    0.2664    2.8627 C.3       1 RES1    0.0000
     24 H7        10.9219   -0.5630    3.0955 H         1 RES1    0.0000
     25 H8         9.5871    0.2559    3.1645 H         1 RES1    0.0000
     26 H9        10.9664    0.9933    3.2796 H         1 RES1    0.0000
     27 C9        13.5051    2.1992    0.8473 C.ar      1 RES1    0.0000
     28 C10       14.6511    2.6987    1.5119 C.ar      1 RES1    0.0000
     29 C11       15.5911    3.4801    0.8703 C.ar      1 RES1    0.0000
     30 H10       16.3318    3.8028    1.3305 H         1 RES1    0.0000
     31 C12       15.4154    3.7718   -0.4521 C.ar      1 RES1    0.0000
     32 C13       14.3140    3.2789   -1.1586 C.ar      1 RES1    0.0000
     33 H11       14.2200    3.4704   -2.0641 H         1 RES1    0.0000
     34 C14       13.3792    2.5195   -0.5279 C.ar      1 RES1    0.0000
     35 H12       12.6448    2.2057   -1.0057 H         1 RES1    0.0000
@<TRIPOS>BOND
     1    1    2 1
     2    3   10 2
     3    4   10 2
     4    5   11 2
     5    6   11 2
     6    7    8 1
     7    8    9 1
     8   10   28 1
     9   11   31 1
    10   12    1 1
    11   13   12 ar
    12   14   13 1
    13   15   13 ar
    14   16   15 1
    15   17   15 ar
    16   18   17 ar
    17   19   18 1
    18   20   12 ar
    19   21   20 1
    20   22    7 2
    21   23   22 1
    22   24   23 1
    23   25   23 1
    24   26   23 1
    25   27    8 1
    26   28   27 ar
    27   29   28 ar
    28   30   29 1
    29   31   29 ar
    30   32   31 ar
    31   33   32 1
    32   34   27 ar
    33   35   34 1
    34   17   22 1
    35   18   20 ar
    36   32   34 ar
@<TRIPOS>SUBSTRUCTURE
     1 RES1 1

@<TRIPOS>CRYSIN
  12.7780    8.1483   14.3940  90.0000 109.8930  90.0000 231 1

