# MOL2 file generated by ConQuest
# Please check atom types

@<TRIPOS>MOLECULE
IZISOA
    42    43     1
SMALL
NO_CHARGES
****
Generated from CSD

@<TRIPOS>ATOM
      1 C1         1.1194    5.3267    6.6037 C.2       1 RES1    0.0000
      2 H1         1.1129    6.2332    6.8094 H         1 RES1    0.0000
      3 H2         0.3207    4.8571    6.5439 H         1 RES1    0.0000
      4 C2         2.2698    4.7039    6.3927 C.2       1 RES1    0.0000
      5 H3         2.2099    3.7979    6.1905 H         1 RES1    0.0000
      6 C3         3.6236    5.2649    6.4402 C.3       1 RES1    0.0000
      7 H4         3.9713    5.4125    5.5470 H         1 RES1    0.0000
      8 H5         3.6393    6.1023    6.9289 H         1 RES1    0.0000
      9 C4         6.6506    4.0353    6.6112 C.2       1 RES1    0.0000
     10 C5         7.9653    4.4223    6.8743 C.2       1 RES1    0.0000
     11 C6         9.1926    3.8551    6.3065 C.2       1 RES1    0.0000
     12 C7         8.3160    5.4436    7.7820 C.2       1 RES1    0.0000
     13 C8         9.8228    5.5465    7.8096 C.3       1 RES1    0.0000
     14 H6        10.1207    6.4177    7.5039 H         1 RES1    0.0000
     15 H7        10.1677    5.3906    8.7029 H         1 RES1    0.0000
     16 C9        11.6287    4.3096    6.4920 C.3       1 RES1    0.0000
     17 H8        11.6524    3.5371    5.8899 H         1 RES1    0.0000
     18 C10       12.5257    3.9943    7.6661 C.3       1 RES1    0.0000
     19 H9        12.2109    3.1880    8.1034 H         1 RES1    0.0000
     20 H10       12.4790    4.7195    8.3091 H         1 RES1    0.0000
     21 C11       13.9766    3.7974    7.2331 C.3       1 RES1    0.0000
     22 H11       14.5277    3.6556    8.0190 H         1 RES1    0.0000
     23 H12       14.0413    3.0062    6.6758 H         1 RES1    0.0000
     24 C12       14.4905    4.9839    6.4718 C.3       1 RES1    0.0000
     25 H13       14.5308    5.7527    7.0626 H         1 RES1    0.0000
     26 H14       15.3905    4.8005    6.1589 H         1 RES1    0.0000
     27 C13       13.6122    5.3003    5.3009 C.3       1 RES1    0.0000
     28 H15       13.6612    4.5756    4.6591 H         1 RES1    0.0000
     29 H16       13.9351    6.1060    4.8684 H         1 RES1    0.0000
     30 C14       12.1589    5.5008    5.7211 C.3       1 RES1    0.0000
     31 H17       12.0935    6.2956    6.2731 H         1 RES1    0.0000
     32 H18       11.6136    5.6390    4.9299 H         1 RES1    0.0000
     33 C15        6.2854    2.9719    5.6397 C.3       1 RES1    0.0000
     34 H19        5.8394    2.2577    6.0991 H         1 RES1    0.0000
     35 H20        7.0804    2.6348    5.2200 H         1 RES1    0.0000
     36 H21        5.7012    3.3366    4.9703 H         1 RES1    0.0000
     37 N1        10.2438    4.5008    6.8969 N.am      1 RES1    0.0000
     38 N2         5.6873    4.6608    7.2595 N.3       1 RES1    0.0000
     39 H22        5.8783    5.3257    7.7693 H         1 RES1    0.0000
     40 O1         9.3344    2.9678    5.4704 O.2       1 RES1    0.0000
     41 O2         7.5801    6.1616    8.4686 O.2       1 RES1    0.0000
     42 O3         4.3696    4.2540    7.1246 O.3       1 RES1    0.0000
@<TRIPOS>BOND
     1    1    2 1
     2    3    1 1
     3    4    1 2
     4    5    4 1
     5    6    4 1
     6    7    6 1
     7    8    6 1
     8    9   10 2
     9   10   11 1
    10   11   37 1
    11   12   10 1
    12   13   12 1
    13   14   13 1
    14   15   13 1
    15   16   17 1
    16   18   16 1
    17   19   18 1
    18   20   18 1
    19   21   18 1
    20   22   21 1
    21   23   21 1
    22   24   21 1
    23   25   24 1
    24   26   24 1
    25   27   24 1
    26   28   27 1
    27   29   27 1
    28   30   16 1
    29   31   30 1
    30   32   30 1
    31   33    9 1
    32   34   33 1
    33   35   33 1
    34   36   33 1
    35   37   13 1
    36   38    9 1
    37   39   38 1
    38   40   11 2
    39   41   12 2
    40   42    6 1
    41   16   37 1
    42   27   30 1
    43   38   42 1
@<TRIPOS>SUBSTRUCTURE
     1 RES1 1

@<TRIPOS>CRYSIN
  32.7780    5.1948   18.0250  90.0000 102.7340  90.0000  15 1

