# MOL2 file generated by ConQuest
# Please check atom types

@<TRIPOS>MOLECULE
IZISOB
    41    44     1
SMALL
NO_CHARGES
****
Generated from CSD

@<TRIPOS>ATOM
      1 O1         0.2286    6.1214    5.4178 O.2       1 RES1    0.0000
      2 N1        -0.8246    7.9354    7.4418 N.pl3     1 RES1    0.0000
      3 O2        -1.2961    3.6496    6.4210 O.2       1 RES1    0.0000
      4 N2        -1.5648    7.3499    9.4896 N.2       1 RES1    0.0000
      5 C1         1.0023    3.4552    6.9651 C.ar      1 RES1    0.0000
      6 C2        -0.6857    6.5487    7.5464 C.2       1 RES1    0.0000
      7 N3         1.3492    2.4878   10.7562 N.pl3     1 RES1    0.0000
      8 C3        -0.1887    5.7162    6.5072 C.2       1 RES1    0.0000
      9 C4        -0.2423    4.1906    6.6608 C.2       1 RES1    0.0000
     10 C5         0.0504    4.3729    9.9045 C.ar      1 RES1    0.0000
     11 H1         0.8252    4.8876    9.9266 H         1 RES1    0.0000
     12 C6        -1.1496    6.2546    8.8326 C.2       1 RES1    0.0000
     13 O3         2.2721    3.2476   10.9830 O.2       1 RES1    0.0000
     14 C7         2.1779    4.1071    7.2832 C.ar      1 RES1    0.0000
     15 H2         2.2121    5.0361    7.2640 H         1 RES1    0.0000
     16 C8        -1.3601    8.3650    8.6272 C.2       1 RES1    0.0000
     17 C9        -1.1476    4.9089    9.4474 C.ar      1 RES1    0.0000
     18 C10       -0.5396    8.7905    6.4101 C.2       1 RES1    0.0000
     19 H3        -0.1815    8.4693    5.6148 H         1 RES1    0.0000
     20 C11        0.0632    3.0568   10.3265 C.ar      1 RES1    0.0000
     21 C12       -0.7888   10.1075    6.5697 C.2       1 RES1    0.0000
     22 H4        -0.6053   10.7011    5.8781 H         1 RES1    0.0000
     23 C13       -1.6016    9.7350    8.7992 C.2       1 RES1    0.0000
     24 H5        -1.9457   10.0543    9.6015 H         1 RES1    0.0000
     25 O4         1.4302    1.2801   10.8568 O.2       1 RES1    0.0000
     26 C14        0.9623    2.0645    6.9805 C.ar      1 RES1    0.0000
     27 H6         0.1779    1.6198    6.7533 H         1 RES1    0.0000
     28 C15       -1.3274   10.5880    7.7831 C.2       1 RES1    0.0000
     29 H7        -1.4949   11.4975    7.8852 H         1 RES1    0.0000
     30 C16       -1.0681    2.2691   10.3223 C.ar      1 RES1    0.0000
     31 H8        -1.0248    1.3746   10.5742 H         1 RES1    0.0000
     32 C17       -2.3043    4.1406    9.4968 C.ar      1 RES1    0.0000
     33 H9        -3.1144    4.5131    9.2304 H         1 RES1    0.0000
     34 C18       -2.2692    2.8337    9.9360 C.ar      1 RES1    0.0000
     35 H10       -3.0524    2.3330    9.9727 H         1 RES1    0.0000
     36 C19        2.0889    1.3441    7.3326 C.ar      1 RES1    0.0000
     37 H11        2.0607    0.4151    7.3522 H         1 RES1    0.0000
     38 C20        3.3069    3.3825    7.6311 C.ar      1 RES1    0.0000
     39 H12        4.0981    3.8213    7.8484 H         1 RES1    0.0000
     40 C21        3.2448    2.0023    7.6520 C.ar      1 RES1    0.0000
     41 H13        4.0003    1.5141    7.8865 H         1 RES1    0.0000
@<TRIPOS>BOND
     1    1    8 2
     2    2    6 1
     3    3    9 2
     4    4   12 1
     5    5    9 1
     6    6    8 1
     7    7   13 2
     8    8    9 1
     9   10   11 1
    10   12    6 2
    11   14    5 ar
    12   15   14 1
    13   16    2 1
    14   17   10 ar
    15   18    2 1
    16   19   18 1
    17   20    7 1
    18   21   18 2
    19   22   21 1
    20   23   16 1
    21   24   23 1
    22   25    7 2
    23   26    5 ar
    24   27   26 1
    25   28   21 1
    26   29   28 1
    27   30   20 ar
    28   31   30 1
    29   32   17 ar
    30   33   32 1
    31   34   30 ar
    32   35   34 1
    33   36   26 ar
    34   37   36 1
    35   38   14 ar
    36   39   38 1
    37   40   36 ar
    38   41   40 1
    39    4   16 2
    40   10   20 ar
    41   12   17 1
    42   23   28 2
    43   32   34 ar
    44   38   40 ar
@<TRIPOS>SUBSTRUCTURE
     1 RES1 1

@<TRIPOS>CRYSIN
  11.5675   11.2489   14.0766  90.0000 110.7700  90.0000  14 1

