# MOL2 file generated by ConQuest
# Please check atom types

@<TRIPOS>MOLECULE
IZUFEO
    41    44     1
SMALL
NO_CHARGES
****
Generated from CSD

@<TRIPOS>ATOM
      1 O1         3.6987    3.2543    8.1282 O.2       1 RES1    0.0000
      2 O2         2.5822    5.0541    7.6895 O.2       1 RES1    0.0000
      3 N1         2.6947    3.8381    7.6988 N.pl3     1 RES1    0.0000
      4 N2        -0.2819    2.7388    5.7210 N.3       1 RES1    0.0000
      5 C1         1.5997    3.0366    7.1785 C.2       1 RES1    0.0000
      6 C2         1.6042    1.7350    7.4361 C.2       1 RES1    0.0000
      7 C3         0.5785    0.8685    6.9478 C.ar      1 RES1    0.0000
      8 C4         0.5295   -0.5022    7.2357 C.ar      1 RES1    0.0000
      9 C5        -0.4123   -1.3116    6.6649 C.ar      1 RES1    0.0000
     10 C6        -1.3579   -0.7500    5.8128 C.ar      1 RES1    0.0000
     11 C7        -1.3492    0.5929    5.5215 C.ar      1 RES1    0.0000
     12 C8        -0.3776    1.4279    6.0755 C.ar      1 RES1    0.0000
     13 C9         0.5053    3.7855    6.4190 C.3       1 RES1    0.0000
     14 C10       -0.4285    4.5579    7.3570 C.ar      1 RES1    0.0000
     15 C11       -0.3276    4.4777    8.7394 C.ar      1 RES1    0.0000
     16 C12       -1.2056    5.1565    9.5578 C.ar      1 RES1    0.0000
     17 C13       -2.2114    5.9248    9.0181 C.ar      1 RES1    0.0000
     18 C14       -2.3387    5.9908    7.6542 C.ar      1 RES1    0.0000
     19 C15       -1.4661    5.3153    6.8232 C.ar      1 RES1    0.0000
     20 C16        1.1501    4.6513    5.3144 C.ar      1 RES1    0.0000
     21 C17        1.0232    6.0279    5.2243 C.ar      1 RES1    0.0000
     22 C18        1.6581    6.7271    4.2064 C.ar      1 RES1    0.0000
     23 C19        2.4423    6.0846    3.2929 C.ar      1 RES1    0.0000
     24 C20        2.5980    4.7162    3.3830 C.ar      1 RES1    0.0000
     25 C21        1.9483    4.0071    4.3739 C.ar      1 RES1    0.0000
     26 H1        -0.9657    3.0584    5.1359 H         1 RES1    0.0000
     27 H2         2.3182    1.3298    8.0154 H         1 RES1    0.0000
     28 H3         1.1668   -0.9013    7.8891 H         1 RES1    0.0000
     29 H4        -0.4459   -2.2753    6.8787 H         1 RES1    0.0000
     30 H5        -2.0595   -1.3297    5.4137 H         1 RES1    0.0000
     31 H6        -2.0440    0.9899    4.9170 H         1 RES1    0.0000
     32 H7         0.3965    3.9302    9.1351 H         1 RES1    0.0000
     33 H8        -1.1466    5.0678   10.5665 H         1 RES1    0.0000
     34 H9        -2.8432    6.4419    9.6235 H         1 RES1    0.0000
     35 H10       -3.0496    6.5749    7.2576 H         1 RES1    0.0000
     36 H11       -1.6001    5.3486    5.8515 H         1 RES1    0.0000
     37 H12        0.4585    6.5158    5.9021 H         1 RES1    0.0000
     38 H13        1.5287    7.7273    4.1929 H         1 RES1    0.0000
     39 H14        2.9038    6.6192    2.5848 H         1 RES1    0.0000
     40 H15        3.1667    4.2257    2.7195 H         1 RES1    0.0000
     41 H16        2.0435    3.0141    4.4371 H         1 RES1    0.0000
@<TRIPOS>BOND
     1    1    3 2
     2    2    3 2
     3    3    5 1
     4    4   12 1
     5    5    6 2
     6    6    7 1
     7    7    8 ar
     8    8    9 ar
     9    9   10 ar
    10   10   11 ar
    11   11   12 ar
    12   12    7 ar
    13   13    4 1
    14   14   13 1
    15   15   14 ar
    16   16   15 ar
    17   17   16 ar
    18   18   17 ar
    19   19   14 ar
    20   20   13 1
    21   21   20 ar
    22   22   21 ar
    23   23   22 ar
    24   24   23 ar
    25   25   20 ar
    26   26    4 1
    27   27    6 1
    28   28    8 1
    29   29    9 1
    30   30   10 1
    31   31   11 1
    32   32   15 1
    33   33   16 1
    34   34   17 1
    35   35   18 1
    36   36   19 1
    37   37   21 1
    38   38   22 1
    39   39   23 1
    40   40   24 1
    41   41   25 1
    42    5   13 1
    43   18   19 ar
    44   24   25 ar
@<TRIPOS>SUBSTRUCTURE
     1 RES1 1

@<TRIPOS>CRYSIN
  13.0560   14.7750    8.4490  90.0000  94.7900  90.0000   9 1

