# MOL2 file generated by ConQuest
# Please check atom types

@<TRIPOS>MOLECULE
IZURIG
    52    57     1
SMALL
NO_CHARGES
****
Generated from CSD

@<TRIPOS>ATOM
      1 N1         6.6577    4.4758    3.7525 N.3       1 RES1    0.0000
      2 O1         8.0239    3.1828    0.1444 O.2       1 RES1    0.0000
      3 O2         6.3010    5.0318    2.4659 O.3       1 RES1    0.0000
      4 C1         6.9015    3.0664    3.5671 C.ar      1 RES1    0.0000
      5 C2         6.6339    2.1991    4.6159 C.ar      1 RES1    0.0000
      6 H1         6.3095    2.5321    5.4441 H         1 RES1    0.0000
      7 C3         6.8467    0.8369    4.4390 C.ar      1 RES1    0.0000
      8 H2         6.6719    0.2369    5.1539 H         1 RES1    0.0000
      9 C4         7.3123    0.3446    3.2281 C.ar      1 RES1    0.0000
     10 H3         7.4552   -0.5883    3.1170 H         1 RES1    0.0000
     11 C5         7.5675    1.2130    2.1823 C.ar      1 RES1    0.0000
     12 H4         7.8807    0.8755    1.3512 H         1 RES1    0.0000
     13 C6         7.3667    2.5835    2.3451 C.ar      1 RES1    0.0000
     14 C7         7.6734    3.5385    1.2452 C.2       1 RES1    0.0000
     15 C8         7.5203    5.0157    1.6731 C.3       1 RES1    0.0000
     16 C9         8.6706    5.3121    2.7117 C.3       1 RES1    0.0000
     17 H5         9.2895    4.5280    2.6800 H         1 RES1    0.0000
     18 C10        7.8940    5.2147    4.0865 C.3       1 RES1    0.0000
     19 H6         8.4346    4.6545    4.7147 H         1 RES1    0.0000
     20 C11        7.5781    6.5265    4.7704 C.ar      1 RES1    0.0000
     21 C12        6.3073    7.0948    4.7415 C.ar      1 RES1    0.0000
     22 H7         5.6010    6.6544    4.2833 H         1 RES1    0.0000
     23 C13        6.0717    8.3022    5.3811 C.ar      1 RES1    0.0000
     24 H8         5.2010    8.6825    5.3612 H         1 RES1    0.0000
     25 C14        7.0899    8.9612    6.0482 C.ar      1 RES1    0.0000
     26 H9         6.9270    9.8010    6.4614 H         1 RES1    0.0000
     27 C15        8.3493    8.3853    6.1086 C.ar      1 RES1    0.0000
     28 H10        9.0480    8.8211    6.5824 H         1 RES1    0.0000
     29 C16        8.5893    7.1761    5.4786 C.ar      1 RES1    0.0000
     30 H11        9.4534    6.7830    5.5293 H         1 RES1    0.0000
     31 C17        9.5294    6.5426    2.5273 C.ar      1 RES1    0.0000
     32 C18        9.0125    7.8197    2.3014 C.ar      1 RES1    0.0000
     33 H12        8.0741    7.9355    2.2061 H         1 RES1    0.0000
     34 C19        9.8489    8.9205    2.2143 C.ar      1 RES1    0.0000
     35 H13        9.4842    9.7809    2.0436 H         1 RES1    0.0000
     36 C20       11.2232    8.7682    2.3758 C.ar      1 RES1    0.0000
     37 H14       11.7971    9.5238    2.3249 H         1 RES1    0.0000
     38 C21       11.7457    7.5125    2.6108 C.ar      1 RES1    0.0000
     39 H15       12.6816    7.4034    2.7305 H         1 RES1    0.0000
     40 C22       10.9076    6.4055    2.6733 C.ar      1 RES1    0.0000
     41 H16       11.2802    5.5440    2.8178 H         1 RES1    0.0000
     42 C23        7.3421    5.9454    0.5000 C.ar      1 RES1    0.0000
     43 C24        6.1905    6.7197    0.3651 C.ar      1 RES1    0.0000
     44 H17        5.5184    6.6886    1.0353 H         1 RES1    0.0000
     45 C25        6.0226    7.5357   -0.7474 C.ar      1 RES1    0.0000
     46 H18        5.2422    8.0721   -0.8269 H         1 RES1    0.0000
     47 C26        6.9861    7.5719   -1.7401 C.ar      1 RES1    0.0000
     48 H19        6.8587    8.1142   -2.5097 H         1 RES1    0.0000
     49 C27        8.1400    6.8129   -1.6053 C.ar      1 RES1    0.0000
     50 H20        8.8074    6.8412   -2.2812 H         1 RES1    0.0000
     51 C28        8.3222    6.0123   -0.4858 C.ar      1 RES1    0.0000
     52 H21        9.1206    5.5059   -0.3921 H         1 RES1    0.0000
@<TRIPOS>BOND
     1    1    3 1
     2    2   14 2
     3    3   15 1
     4    4    1 1
     5    5    4 ar
     6    6    5 1
     7    7    5 ar
     8    8    7 1
     9    9    7 ar
    10   10    9 1
    11   11    9 ar
    12   12   11 1
    13   13    4 ar
    14   14   13 1
    15   15   14 1
    16   16   15 1
    17   17   16 1
    18   18    1 1
    19   19   18 1
    20   20   18 1
    21   21   20 ar
    22   22   21 1
    23   23   21 ar
    24   24   23 1
    25   25   23 ar
    26   26   25 1
    27   27   25 ar
    28   28   27 1
    29   29   20 ar
    30   30   29 1
    31   31   16 1
    32   32   31 ar
    33   33   32 1
    34   34   32 ar
    35   35   34 1
    36   36   34 ar
    37   37   36 1
    38   38   36 ar
    39   39   38 1
    40   40   31 ar
    41   41   40 1
    42   42   15 1
    43   43   42 ar
    44   44   43 1
    45   45   43 ar
    46   46   45 1
    47   47   45 ar
    48   48   47 1
    49   49   47 ar
    50   50   49 1
    51   51   42 ar
    52   52   51 1
    53   11   13 ar
    54   16   18 1
    55   27   29 ar
    56   38   40 ar
    57   49   51 ar
@<TRIPOS>SUBSTRUCTURE
     1 RES1 1

@<TRIPOS>CRYSIN
   9.0705   20.0798   11.2141  90.0000  92.4130  90.0000 231 1

