# MOL2 file generated by ConQuest
# Please check atom types

@<TRIPOS>MOLECULE
JABBOG
    21    22     1
SMALL
NO_CHARGES
****
Generated from CSD

@<TRIPOS>ATOM
      1 O1         5.3768    3.6198    7.8004 O.3       1 RES1    0.0000
      2 O2         0.0153    1.0119    9.1556 O.2       1 RES1    0.0000
      3 O3         1.5313    2.5664    9.3057 O.2       1 RES1    0.0000
      4 N1         4.5052    4.6883    7.9754 N.2       1 RES1    0.0000
      5 N2         4.7066    2.5231    7.3067 N.2       1 RES1    0.0000
      6 N3         2.4691    1.3830    5.5039 N.pl3     1 RES1    0.0000
      7 N4         1.4118    0.5479    5.2900 N.2       1 RES1    0.0000
      8 N5         0.9147    1.7019    8.6739 N.pl3     1 RES1    0.0000
      9 N6         3.4485    1.6119    4.5403 N.3       1 RES1    0.0000
     10 C1         3.3308    4.2720    7.5948 C.2       1 RES1    0.0000
     11 C2         3.4653    2.9029    7.1804 C.2       1 RES1    0.0000
     12 C3         2.4399    1.9763    6.7090 C.2       1 RES1    0.0000
     13 C4         1.2941    1.4751    7.3231 C.2       1 RES1    0.0000
     14 C5         0.6940    0.5931    6.4088 C.2       1 RES1    0.0000
     15 C6         2.1310    5.1511    7.6106 C.3       1 RES1    0.0000
     16 H1        -0.0959    0.0810    6.5045 H         1 RES1    0.0000
     17 H2         3.7380    0.8118    4.2616 H         1 RES1    0.0000
     18 H3         3.0306    2.0006    3.8529 H         1 RES1    0.0000
     19 H4         1.4411    4.8288    7.0775 H         1 RES1    0.0000
     20 H5         2.3438    6.0422    7.4635 H         1 RES1    0.0000
     21 H6         1.7071    5.1493    8.4551 H         1 RES1    0.0000
@<TRIPOS>BOND
     1    1    4 1
     2    2    8 2
     3    3    8 2
     4    4   10 2
     5    5    1 1
     6    6    7 1
     7    7   14 2
     8    8   13 1
     9    9    6 1
    10   10   11 1
    11   11    5 2
    12   12    6 1
    13   13   12 2
    14   14   13 1
    15   15   10 1
    16   16   14 1
    17   17    9 1
    18   18    9 1
    19   19   15 1
    20   20   15 1
    21   21   15 1
    22   11   12 1
@<TRIPOS>SUBSTRUCTURE
     1 RES1 1

@<TRIPOS>CRYSIN
   6.6196   17.6105    7.6520  90.0000  98.4220  90.0000 231 1

