# MOL2 file generated by ConQuest
# Please check atom types

@<TRIPOS>MOLECULE
JABCEX
    21    22     1
SMALL
NO_CHARGES
****
Generated from CSD

@<TRIPOS>ATOM
      1 O1        13.8921    5.2577    0.3623 O.3       1 RES1    0.0000
      2 O2         7.2455    7.4806    2.0350 O.2       1 RES1    0.0000
      3 O3         7.3506    9.5496    1.3677 O.2       1 RES1    0.0000
      4 N1        14.5059    5.8324    1.4690 N.2       1 RES1    0.0000
      5 N2        12.6722    5.8526    0.1188 N.2       1 RES1    0.0000
      6 N3        11.2483    8.8971    1.0273 N.pl3     1 RES1    0.0000
      7 N4        10.0083    9.3935    1.1602 N.2       1 RES1    0.0000
      8 N5         7.8587    8.4556    1.6104 N.pl3     1 RES1    0.0000
      9 N6        12.3665    9.7002    0.7762 N.3       1 RES1    0.0000
     10 C1        13.6927    6.7596    1.8926 C.2       1 RES1    0.0000
     11 C2        12.5399    6.7697    1.0430 C.2       1 RES1    0.0000
     12 C3        11.2957    7.5371    1.1502 C.2       1 RES1    0.0000
     13 C4        10.0050    7.1086    1.3934 C.2       1 RES1    0.0000
     14 C5         9.2806    8.3024    1.3858 C.2       1 RES1    0.0000
     15 C6        13.9792    7.6032    3.0799 C.3       1 RES1    0.0000
     16 H1         9.6842    6.2252    1.5250 H         1 RES1    0.0000
     17 H2        12.1370   10.2406    0.1089 H         1 RES1    0.0000
     18 H3        12.5265   10.1822    1.5094 H         1 RES1    0.0000
     19 H4        13.8629    8.5073    2.8866 H         1 RES1    0.0000
     20 H5        13.4157    7.3801    3.7891 H         1 RES1    0.0000
     21 H6        14.8559    7.4651    3.4079 H         1 RES1    0.0000
@<TRIPOS>BOND
     1    1    4 1
     2    2    8 2
     3    3    8 2
     4    4   10 2
     5    5    1 1
     6    6    7 1
     7    7   14 2
     8    8   14 1
     9    9    6 1
    10   10   11 1
    11   11    5 2
    12   12    6 1
    13   13   12 2
    14   14   13 1
    15   15   10 1
    16   16   13 1
    17   17    9 1
    18   18    9 1
    19   19   15 1
    20   20   15 1
    21   21   15 1
    22   11   12 1
@<TRIPOS>SUBSTRUCTURE
     1 RES1 1

@<TRIPOS>CRYSIN
  10.3110   10.6341    8.2955  90.0000 110.2940  90.0000  14 1

