# MOL2 file generated by ConQuest
# Please check atom types

@<TRIPOS>MOLECULE
JABCAT
    23    24     1
SMALL
NO_CHARGES
****
Generated from CSD

@<TRIPOS>ATOM
      1 O1         9.5408    5.0671    4.6628 O.3       1 RES1    0.0000
      2 O2         6.0759    2.8003    4.5108 O.2       1 RES1    0.0000
      3 O3         5.6616    1.5207    2.8060 O.2       1 RES1    0.0000
      4 O4         3.2978    2.6207    1.8830 O.2       1 RES1    0.0000
      5 O5         3.1036    3.9143    0.1403 O.2       1 RES1    0.0000
      6 N1        10.3395    5.0761    3.5221 N.2       1 RES1    0.0000
      7 N2         8.2166    4.9301    4.3358 N.2       1 RES1    0.0000
      8 N3         6.5496    5.4832    1.2873 N.pl3     1 RES1    0.0000
      9 N4         5.3640    5.1627    0.7527 N.2       1 RES1    0.0000
     10 N5         5.8718    2.6129    3.3174 N.pl3     1 RES1    0.0000
     11 N6         3.6926    3.5049    1.1383 N.pl3     1 RES1    0.0000
     12 N7         7.3350    6.5270    0.7980 N.3       1 RES1    0.0000
     13 C1         9.5275    4.9532    2.5068 C.2       1 RES1    0.0000
     14 C2         8.1881    4.8615    3.0296 C.2       1 RES1    0.0000
     15 C3         6.9223    4.6857    2.3225 C.2       1 RES1    0.0000
     16 C4         5.8948    3.7626    2.4451 C.2       1 RES1    0.0000
     17 C5         4.9738    4.1089    1.4521 C.2       1 RES1    0.0000
     18 C6        10.0229    4.9015    1.1015 C.3       1 RES1    0.0000
     19 H1         7.4357    6.3950   -0.1014 H         1 RES1    0.0000
     20 H2         6.8908    7.2701    0.9351 H         1 RES1    0.0000
     21 H3         9.4723    4.3419    0.5803 H         1 RES1    0.0000
     22 H4         9.9410    5.7690    0.7057 H         1 RES1    0.0000
     23 H5        10.9415    4.6448    1.0846 H         1 RES1    0.0000
@<TRIPOS>BOND
     1    1    6 1
     2    2   10 2
     3    3   10 2
     4    4   11 2
     5    5   11 2
     6    6   13 2
     7    7    1 1
     8    8    9 1
     9    9   17 2
    10   10   16 1
    11   11   17 1
    12   12    8 1
    13   13   14 1
    14   14    7 2
    15   15    8 1
    16   16   15 2
    17   17   16 1
    18   18   13 1
    19   19   12 1
    20   20   12 1
    21   21   18 1
    22   22   18 1
    23   23   18 1
    24   14   15 1
@<TRIPOS>SUBSTRUCTURE
     1 RES1 1

@<TRIPOS>CRYSIN
  10.4808    6.7316   13.8350  90.0000 105.3700  90.0000  14 1

