# MOL2 file generated by ConQuest
# Please check atom types

@<TRIPOS>MOLECULE
JABMAD
    16    17     1
SMALL
NO_CHARGES
****
Generated from CSD

@<TRIPOS>ATOM
      1 O1        10.5893    4.0710    4.5392 O.2       1 RES1    0.0000
      2 O2         8.5090    4.2025    5.1953 O.2       1 RES1    0.0000
      3 N1         9.8029    2.5753    5.9911 N.pl3     1 RES1    0.0000
      4 N2        11.0605    2.2040    6.3191 N.2       1 RES1    0.0000
      5 N3         8.9137   -0.1323    8.0476 N.pl3     1 RES1    0.0000
      6 N4         7.5749   -0.1878    8.2447 N.2       1 RES1    0.0000
      7 N5         7.3655   -1.2277    8.9878 N.2       1 RES1    0.0000
      8 N6         8.5357   -1.8641    9.2905 N.2       1 RES1    0.0000
      9 N7         9.6206    3.7191    5.1728 N.pl3     1 RES1    0.0000
     10 C1        10.8659    1.1683    7.1282 C.2       1 RES1    0.0000
     11 C2         9.4832    0.8973    7.2813 C.2       1 RES1    0.0000
     12 C3         8.8012    1.8280    6.5410 C.2       1 RES1    0.0000
     13 C4         9.4839   -1.1677    8.6957 C.2       1 RES1    0.0000
     14 H1        11.6337    0.7184    7.5257 H         1 RES1    0.0000
     15 H2         7.9082    2.0170    6.3620 H         1 RES1    0.0000
     16 H3        10.4190   -1.3398    8.7180 H         1 RES1    0.0000
@<TRIPOS>BOND
     1    1    9 2
     2    2    9 2
     3    3    4 1
     4    4   10 2
     5    5    6 1
     6    6    7 2
     7    7    8 1
     8    8   13 2
     9    9    3 1
    10   10   11 1
    11   11    5 1
    12   12    3 1
    13   13    5 1
    14   14   10 1
    15   15   12 1
    16   16   13 1
    17   11   12 2
@<TRIPOS>SUBSTRUCTURE
     1 RES1 1

@<TRIPOS>CRYSIN
  10.9928   10.3064   11.8871  90.0000  90.0000  90.0000  61 1

