# MOL2 file generated by ConQuest
# Please check atom types

@<TRIPOS>MOLECULE
JADDOI
    25    26     1
SMALL
NO_CHARGES
****
Generated from CSD

@<TRIPOS>ATOM
      1 O1         4.0265    2.2938    2.1022 O.3       1 RES1    0.0000
      2 C1         1.8590    4.6277    4.6991 C.ar      1 RES1    0.0000
      3 C2         3.2709    3.0517    2.9809 C.ar      1 RES1    0.0000
      4 C3         3.2118    4.8537    4.5434 C.ar      1 RES1    0.0000
      5 C4         3.9591    4.0738    3.6696 C.ar      1 RES1    0.0000
      6 C5         3.3387    1.4353    1.2480 C.ar      1 RES1    0.0000
      7 O2         1.7055    6.2891    6.3008 O.2       1 RES1    0.0000
      8 N1         2.7562    3.2943   -0.2292 N.3       1 RES1    0.0000
      9 N2         5.3176    4.3282    3.4041 N.3       1 RES1    0.0000
     10 C6         2.7226    1.9463    0.0891 C.ar      1 RES1    0.0000
     11 C7         1.9323    2.8272    3.1778 C.ar      1 RES1    0.0000
     12 C8         1.9369   -0.3004   -0.2782 C.ar      1 RES1    0.0000
     13 C9         1.2000    3.6216    4.0359 C.ar      1 RES1    0.0000
     14 N3         1.1304   -1.2271   -1.0893 N.pl3     1 RES1    0.0000
     15 N4         1.0981    5.4892    5.6043 N.pl3     1 RES1    0.0000
     16 C10        2.0032    1.0208   -0.6730 C.ar      1 RES1    0.0000
     17 O3         0.6089   -0.8121   -2.0983 O.2       1 RES1    0.0000
     18 O4         1.0081   -2.3750   -0.7102 O.2       1 RES1    0.0000
     19 C11        3.2912    0.1113    1.5899 C.ar      1 RES1    0.0000
     20 O5        -0.1186    5.3843    5.6170 O.2       1 RES1    0.0000
     21 C12        2.5756   -0.7946    0.8307 C.ar      1 RES1    0.0000
     22 C13        6.2525    3.2502    3.6666 C.3       1 RES1    0.0000
     23 C14        4.0206    4.0245   -0.1567 C.3       1 RES1    0.0000
     24 C15        5.8310    5.5953    3.9008 C.3       1 RES1    0.0000
     25 C16        1.8711    3.7741   -1.2715 C.3       1 RES1    0.0000
@<TRIPOS>BOND
     1    1    3 1
     2    2    4 ar
     3    3    5 ar
     4    4    5 ar
     5    5    9 1
     6    6    1 1
     7    7   15 2
     8    8   10 1
     9    9   22 1
    10   10    6 ar
    11   11    3 ar
    12   12   14 1
    13   13    2 ar
    14   14   17 2
    15   15    2 1
    16   16   10 ar
    17   18   14 2
    18   19    6 ar
    19   20   15 2
    20   21   12 ar
    21   23    8 1
    22   24    9 1
    23   25    8 1
    24   11   13 ar
    25   12   16 ar
    26   19   21 ar
@<TRIPOS>SUBSTRUCTURE
     1 RES1 1

@<TRIPOS>CRYSIN
   8.9470    9.9360   10.8080  65.1900  81.8600  77.1200   2 1

