# MOL2 file generated by ConQuest
# Please check atom types

@<TRIPOS>MOLECULE
JADNOS
    27    27     1
SMALL
NO_CHARGES
****
Generated from CSD

@<TRIPOS>ATOM
      1 O1         6.7743    1.9153    8.2986 O.2       1 RES1    0.0000
      2 O2         6.3093   -1.3919   11.4421 O.2       1 RES1    0.0000
      3 N1         6.5591    0.7641    8.8267 N.3       1 RES1    0.0000
      4 N2         6.3355   -0.8019   10.3115 N.pl3     1 RES1    0.0000
      5 C1         6.6067    0.4824   10.1186 C.2       1 RES1    0.0000
      6 C2         6.3685   -0.4752    7.9917 C.3       1 RES1    0.0000
      7 C3         5.8954   -1.4943    9.0715 C.3       1 RES1    0.0000
      8 C4         5.3901   -0.2038    6.8905 C.3       1 RES1    0.0000
      9 H1         4.5740    0.1342    7.2629 H         1 RES1    0.0000
     10 H2         5.2127   -1.0170    6.4133 H         1 RES1    0.0000
     11 H3         5.7602    0.4466    6.2880 H         1 RES1    0.0000
     12 C5         7.7473   -0.7968    7.4152 C.3       1 RES1    0.0000
     13 H4         7.6881   -1.5742    6.8556 H         1 RES1    0.0000
     14 H5         8.3623   -0.9658    8.1328 H         1 RES1    0.0000
     15 H6         8.0599   -0.0512    6.8962 H         1 RES1    0.0000
     16 C6         4.3831   -1.6049    9.1776 C.3       1 RES1    0.0000
     17 H7         4.1499   -2.0668    9.9866 H         1 RES1    0.0000
     18 H8         4.0435   -2.0924    8.4228 H         1 RES1    0.0000
     19 H9         3.9978   -0.7262    9.1889 H         1 RES1    0.0000
     20 C7         6.5594   -2.8760    8.9948 C.3       1 RES1    0.0000
     21 H10        7.5107   -2.7797    9.0896 H         1 RES1    0.0000
     22 H11        6.3617   -3.2795    8.1463 H         1 RES1    0.0000
     23 H12        6.2232   -3.4331    9.7000 H         1 RES1    0.0000
     24 C8         6.9244    1.4574   11.1769 C.3       1 RES1    0.0000
     25 H13        7.8757    1.5015   11.2954 H         1 RES1    0.0000
     26 H14        6.5121    1.1830   11.9983 H         1 RES1    0.0000
     27 H15        6.5932    2.3219   10.9253 H         1 RES1    0.0000
@<TRIPOS>BOND
     1    1    3 1
     2    2    4 1
     3    3    5 1
     4    4    5 2
     5    5   24 1
     6    6    3 1
     7    7    4 1
     8    8    6 1
     9    9    8 1
    10   10    8 1
    11   11    8 1
    12   12    6 1
    13   13   12 1
    14   14   12 1
    15   15   12 1
    16   16    7 1
    17   17   16 1
    18   18   16 1
    19   19   16 1
    20   20    7 1
    21   21   20 1
    22   22   20 1
    23   23   20 1
    24   24   25 1
    25   26   24 1
    26   27   24 1
    27    6    7 1
@<TRIPOS>SUBSTRUCTURE
     1 RES1 1

@<TRIPOS>CRYSIN
  16.8970   10.2420   11.2830  90.0000  90.0000  90.0000  61 1

