# MOL2 file generated by ConQuest
# Please check atom types

@<TRIPOS>MOLECULE
JADNIM
    36    37     1
SMALL
USER_CHARGES
****
Generated from CSD

@<TRIPOS>ATOM
      1 O1         8.5597    7.8439    2.2008 O.2       1 RES1   -1.0000
      2 O2         3.1169   10.6727    1.2538 O.2       1 RES1    0.0000
      3 O3         3.1624    9.3740   -0.4545 O.2       1 RES1    0.0000
      4 N1         8.7516    6.5203   -0.0293 N.3       1 RES1    0.0000
      5 N2         7.3931    6.9304   -1.6638 N.pl3     1 RES1    1.0000
      6 N3         3.6728    9.8267    0.5597 N.pl3     1 RES1    0.0000
      7 C1         7.6634    7.1660   -0.3937 C.2       1 RES1    0.0000
      8 C2         9.4878    6.0023   -1.2029 C.3       1 RES1    0.0000
      9 C3         8.2873    5.9006   -2.2137 C.3       1 RES1    0.0000
     10 C4        10.5262    7.0248   -1.6042 C.3       1 RES1    0.0000
     11 H1        11.0616    6.7445   -2.4014 H         1 RES1    0.0000
     12 H2        11.1557    7.1214   -0.8731 H         1 RES1    0.0000
     13 H3        10.1029    7.9238   -1.8102 H         1 RES1    0.0000
     14 C5        10.1477    4.6766   -0.8753 C.3       1 RES1    0.0000
     15 H4        10.6077    4.3517   -1.6454 H         1 RES1    0.0000
     16 H5         9.5215    3.9738   -0.6096 H         1 RES1    0.0000
     17 H6        10.8294    4.8386   -0.1800 H         1 RES1    0.0000
     18 C6         8.6405    6.2193   -3.6552 C.3       1 RES1    0.0000
     19 H7         8.9993    7.1712   -3.6964 H         1 RES1    0.0000
     20 H8         9.3203    5.5985   -3.9947 H         1 RES1    0.0000
     21 H9         7.8230    6.1466   -4.1661 H         1 RES1    0.0000
     22 C7         7.5571    4.5718   -2.1443 C.3       1 RES1    0.0000
     23 H10        7.2986    4.3746   -1.1963 H         1 RES1    0.0000
     24 H11        8.1169    3.7870   -2.4990 H         1 RES1    0.0000
     25 H12        6.6731    4.6445   -2.6150 H         1 RES1    0.0000
     26 C8         6.9048    8.0121    0.5022 C.ar      1 RES1    0.0000
     27 C9         5.6677    8.5145    0.1247 C.ar      1 RES1    0.0000
     28 H13        5.3156    8.2955   -0.7072 H         1 RES1    0.0000
     29 C10        4.9618    9.3315    0.9675 C.ar      1 RES1    0.0000
     30 C11        5.4841    9.7114    2.1953 C.ar      1 RES1    0.0000
     31 H14        5.0102   10.2917    2.7463 H         1 RES1    0.0000
     32 C12        6.6891    9.2308    2.5857 C.ar      1 RES1    0.0000
     33 H15        7.0306    9.5007    3.4079 H         1 RES1    0.0000
     34 C13        7.4544    8.3318    1.7940 C.ar      1 RES1    0.0000
     35 H16        6.6489    7.1421   -2.0499 H         1 RES1    0.0000
     36 H17        9.1671    6.7477    0.6725 H         1 RES1    0.0000
@<TRIPOS>BOND
     1    1   34 1
     2    2    6 2
     3    3    6 2
     4    4    7 1
     5    5    7 2
     6    6   29 1
     7    7   26 1
     8    8    4 1
     9    9    5 1
    10   10    8 1
    11   11   10 1
    12   12   10 1
    13   13   10 1
    14   14    8 1
    15   15   14 1
    16   16   14 1
    17   17   14 1
    18   18    9 1
    19   19   18 1
    20   20   18 1
    21   21   18 1
    22   22    9 1
    23   23   22 1
    24   24   22 1
    25   25   22 1
    26   26   27 ar
    27   27   28 1
    28   29   27 ar
    29   30   29 ar
    30   31   30 1
    31   32   30 ar
    32   33   32 1
    33   34   26 ar
    34   35    5 1
    35   36    4 1
    36    8    9 1
    37   32   34 ar
@<TRIPOS>SUBSTRUCTURE
     1 RES1 1

@<TRIPOS>CRYSIN
  12.0570   10.3810   12.1970  90.0000 117.2200  90.0000 231 1

