# MOL2 file generated by ConQuest
# Please check atom types

@<TRIPOS>MOLECULE
JADNOS01
    27    27     1
SMALL
USER_CHARGES
****
Generated from CSD

@<TRIPOS>ATOM
      1 O1        -0.8469    4.1303    6.3767 O.2       1 RES1    0.0000
      2 N1        -1.2348    4.4880    7.5420 N.pl3     1 RES1    0.0000
      3 C1        -0.8416    3.7374    8.7735 C.3       1 RES1    0.0000
      4 C2         0.6413    3.4466    8.7816 C.3       1 RES1    0.0000
      5 H1         1.0101    4.4134    8.5208 H         1 RES1    0.0000
      6 H2         0.8851    2.7978    8.0454 H         1 RES1    0.0000
      7 H3         0.8558    3.0342    9.6453 H         1 RES1    0.0000
      8 C3        -1.6439    2.4234    8.7074 C.3       1 RES1    0.0000
      9 H4        -2.7673    2.6795    8.9033 H         1 RES1    0.0000
     10 H5        -1.3002    1.9440    7.9411 H         1 RES1    0.0000
     11 H6        -1.4234    1.8126    9.4830 H         1 RES1    0.0000
     12 C4        -1.3518    4.6952    9.8918 C.3       1 RES1    0.0000
     13 C5        -2.0710    4.0521   11.0550 C.3       1 RES1    0.0000
     14 H7        -1.4126    3.4414   11.5465 H         1 RES1    0.0000
     15 H8        -2.7956    3.5859   10.6770 H         1 RES1    0.0000
     16 H9        -2.2983    4.7811   11.6972 H         1 RES1    0.0000
     17 C6        -0.2877    5.6297   10.4440 C.3       1 RES1    0.0000
     18 H10        0.4719    5.1489   10.9437 H         1 RES1    0.0000
     19 H11        0.1204    6.0684    9.7032 H         1 RES1    0.0000
     20 H12       -0.7107    6.3442   11.0828 H         1 RES1    0.0000
     21 N2        -2.3176    5.5398    9.1200 N.pl3     1 RES1    1.0000
     22 O2        -3.1263    6.3563    9.6833 O.2       1 RES1   -1.0000
     23 C7        -2.1453    5.4301    7.8050 C.2       1 RES1    0.0000
     24 C8        -2.8850    6.2207    6.7992 C.3       1 RES1    0.0000
     25 H13       -2.6665    5.8845    5.8892 H         1 RES1    0.0000
     26 H14       -2.6337    7.1323    6.8050 H         1 RES1    0.0000
     27 H15       -3.8423    6.1472    6.9789 H         1 RES1    0.0000
@<TRIPOS>BOND
     1    1    2 1
     2    2    3 1
     3    3    4 1
     4    4    5 1
     5    6    4 1
     6    7    4 1
     7    8    3 1
     8    9    8 1
     9   10    8 1
    10   11    8 1
    11   12    3 1
    12   13   12 1
    13   14   13 1
    14   15   13 1
    15   16   13 1
    16   17   12 1
    17   18   17 1
    18   19   17 1
    19   20   17 1
    20   21   12 1
    21   22   21 1
    22   23    2 1
    23   24   23 1
    24   25   24 1
    25   26   24 1
    26   27   24 1
    27   21   23 2
@<TRIPOS>SUBSTRUCTURE
     1 RES1 1

@<TRIPOS>CRYSIN
   6.2350   13.1350   11.8440  90.0000 101.8200  90.0000 231 1

