# MOL2 file generated by ConQuest
# Please check atom types

@<TRIPOS>MOLECULE
JADXER
    39    38     2
SMALL
NO_CHARGES
****
Generated from CSD

@<TRIPOS>ATOM
      1 O1         2.4676   -0.2010    2.9177 O.3       1 RES1    0.0000
      2 O2         0.2578    0.0831    0.2519 O.2       1 RES1    0.0000
      3 O3         1.0690    1.6052    1.5114 O.2       1 RES1    0.0000
      4 O4         3.9638   -2.4607    1.9129 O.3       1 RES1    0.0000
      5 O5         5.4754   -2.5756    0.2175 O.3       1 RES1    0.0000
      6 O6         6.1193    0.9658    0.5577 O.3       1 RES1    0.0000
      7 O7         6.3565    0.8736   -1.7066 O.3       1 RES1    0.0000
      8 N1         1.0320    0.5079    1.0903 N.pl3     1 RES1    0.0000
      9 C1         1.9860   -0.4912    1.6452 C.3       1 RES1    0.0000
     10 C2         3.3754   -0.1360    1.7809 C.3       1 RES1    0.0000
     11 C3         4.4721   -1.1336    1.7214 C.3       1 RES1    0.0000
     12 C4         5.1489   -1.1941    0.3328 C.3       1 RES1    0.0000
     13 C5         6.4294   -0.4111    0.2314 C.3       1 RES1    0.0000
     14 C6         6.9655   -0.3507   -1.1972 C.3       1 RES1    0.0000
     15 C7         4.4485   -3.3102    0.8756 C.3       1 RES1    0.0000
     16 C8         5.0780   -4.5315    1.4826 C.3       1 RES1    0.0000
     17 C9         3.3405   -3.6125   -0.0781 C.3       1 RES1    0.0000
     18 C10        6.3267    1.7805   -0.5902 C.3       1 RES1    0.0000
     19 C11        5.1458    2.6587   -0.7557 C.3       1 RES1    0.0000
     20 C12        7.6381    2.5318   -0.4703 C.3       1 RES1    0.0000
     21 H1         1.5835   -1.2092    1.4333 H         1 RES1    0.0000
     22 H2         3.7297    0.7074    1.4156 H         1 RES1    0.0000
     23 H3         5.1345   -0.8555    2.5050 H         1 RES1    0.0000
     24 H4         4.6128   -0.8842   -0.3448 H         1 RES1    0.0000
     25 H5         7.9821   -0.3235   -1.4333 H         1 RES1    0.0000
     26 H6         5.6757   -4.3985    2.1602 H         1 RES1    0.0000
     27 H7         4.4321   -5.2540    1.4156 H         1 RES1    0.0000
     28 H8         3.5295   -4.2216   -0.7259 H         1 RES1    0.0000
     29 H9         3.0078   -2.9807   -0.3448 H         1 RES1    0.0000
     30 H10        2.4666   -4.2201    0.3448 H         1 RES1    0.0000
     31 H11        4.2319    2.0949   -0.7259 H         1 RES1    0.0000
     32 H12        5.3142    3.3359   -0.3448 H         1 RES1    0.0000
     33 H13        5.1345    2.8341   -1.4333 H         1 RES1    0.0000
     34 H14        7.7818    3.1575   -1.4333 H         1 RES1    0.0000
     35 H15        7.6011    3.0109    0.0000 H         1 RES1    0.0000
     36 H16        8.3025    1.9483   -0.3448 H         1 RES1    0.0000
     37 H17        7.1000   -0.8842   -0.7259 Du        2 SUP2    0.0000
     38 H18        6.7385    0.8555   -1.4156 Du        2 SUP2    0.0000
     39 H19        4.2319   -5.2842    1.7791 Du        2 SUP2    0.0000
@<TRIPOS>BOND
     1    1    9 1
     2    2    8 2
     3    3    8 2
     4    4   11 1
     5    5   12 1
     6    6   13 1
     7    7   14 1
     8    8    9 1
     9    9   10 1
    10   10    1 1
    11   11   10 1
    12   12   11 1
    13   13   12 1
    14   14   13 1
    15   15    4 1
    16   16   15 1
    17   17   15 1
    18   18    6 1
    19   19   18 1
    20   20   18 1
    21   21    9 1
    22   22   10 1
    23   23   11 1
    24   24   12 1
    25   25   14 1
    26   26   16 1
    27   27   16 1
    28   28   17 1
    29   29   17 1
    30   30   17 1
    31   31   19 1
    32   32   19 1
    33   33   19 1
    34   34   20 1
    35   35   20 1
    36   36   20 1
    37    5   15 1
    38    7   18 1
@<TRIPOS>SUBSTRUCTURE
     1 RES1 1
     2 SUP2 37

@<TRIPOS>CRYSIN
  10.2690   15.1150    9.2950  90.0000  90.0000  90.0000  19 1

