# MOL2 file generated by ConQuest
# Please check atom types

@<TRIPOS>MOLECULE
JAFTUI
    56    60     1
SMALL
NO_CHARGES
****
Generated from CSD

@<TRIPOS>ATOM
      1 O1         1.4681    5.1180   11.4559 O.3       1 RES1    0.0000
      2 O2         5.5320    4.6525    9.7908 O.3       1 RES1    0.0000
      3 O3         8.7117    3.3999    7.1101 O.3       1 RES1    0.0000
      4 O4         3.1137    3.4900   11.2205 O.3       1 RES1    0.0000
      5 O5         2.3109    6.1967    9.6753 O.3       1 RES1    0.0000
      6 O6         6.1181    4.7347    7.6137 O.2       1 RES1    0.0000
      7 O7         8.8471    5.3424    5.9834 O.2       1 RES1    0.0000
      8 O8         5.5010    0.3825   10.0115 O.3       1 RES1    0.0000
      9 N1         4.7710    1.4668   10.5563 N.2       1 RES1    0.0000
     10 C1        10.0083    5.9660    8.7736 C.ar      1 RES1    0.0000
     11 H1        10.7284    5.9936    8.1849 H         1 RES1    0.0000
     12 C2         6.4057    4.8643    8.7809 C.2       1 RES1    0.0000
     13 C3        10.1232    6.5255   10.0288 C.ar      1 RES1    0.0000
     14 H2        10.9247    6.9207   10.2850 H         1 RES1    0.0000
     15 C4         7.7310    5.3353    9.2729 C.ar      1 RES1    0.0000
     16 C5         8.8186    5.3598    8.3831 C.ar      1 RES1    0.0000
     17 C6         8.7657    4.7331    7.0146 C.2       1 RES1    0.0000
     18 C7         1.2702    6.2853   10.6533 C.3       1 RES1    0.0000
     19 C8         7.8556    5.9162   10.5349 C.ar      1 RES1    0.0000
     20 H3         7.1344    5.9099   11.1226 H         1 RES1    0.0000
     21 C9         3.4351    3.3469    9.8358 C.3       1 RES1    0.0000
     22 H4         2.6001    3.2718    9.3267 H         1 RES1    0.0000
     23 C10        9.0518    6.5026   10.9138 C.ar      1 RES1    0.0000
     24 H5         9.1372    6.8811   11.7594 H         1 RES1    0.0000
     25 C11        2.8561    4.8414   11.5039 C.3       1 RES1    0.0000
     26 H6         3.2406    5.1038   12.3666 H         1 RES1    0.0000
     27 C12        4.2536    2.1196    9.5940 C.2       1 RES1    0.0000
     28 C13        4.1291    4.6628    9.4475 C.3       1 RES1    0.0000
     29 H7         3.9924    4.8754    8.5002 H         1 RES1    0.0000
     30 C14        5.5794    0.5271    8.5581 C.3       1 RES1    0.0000
     31 H8         5.3484   -0.3248    8.1307 H         1 RES1    0.0000
     32 C15        6.9883    0.9333    8.1529 C.3       1 RES1    0.0000
     33 H9         7.6317    0.4054    8.6517 H         1 RES1    0.0000
     34 H10        7.1304    1.8667    8.3758 H         1 RES1    0.0000
     35 C16        8.6804    2.6736    5.8446 C.3       1 RES1    0.0000
     36 H11        9.4894    2.8538    5.3408 H         1 RES1    0.0000
     37 H12        7.9214    2.9644    5.3162 H         1 RES1    0.0000
     38 C17        3.4526    5.6751   10.3478 C.3       1 RES1    0.0000
     39 H13        4.0635    6.3754   10.6582 H         1 RES1    0.0000
     40 C18        7.2174    0.7302    6.6625 C.3       1 RES1    0.0000
     41 H14        6.5213    1.2013    6.1796 H         1 RES1    0.0000
     42 H15        7.1214   -0.2142    6.4641 H         1 RES1    0.0000
     43 C19       -0.0658    6.1841    9.9697 C.3       1 RES1    0.0000
     44 H16       -0.0953    5.3819    9.4437 H         1 RES1    0.0000
     45 H17       -0.1929    6.9459    9.3994 H         1 RES1    0.0000
     46 H18       -0.7629    6.1588   10.6299 H         1 RES1    0.0000
     47 C20        4.5109    1.5695    8.2280 C.3       1 RES1    0.0000
     48 H19        4.8471    2.2500    7.6232 H         1 RES1    0.0000
     49 H20        3.7166    1.1633    7.8474 H         1 RES1    0.0000
     50 C21        8.5721    1.1973    6.1303 C.3       1 RES1    0.0000
     51 H21        9.2548    0.9602    6.7782 H         1 RES1    0.0000
     52 H22        8.7653    0.7121    5.3137 H         1 RES1    0.0000
     53 C22        1.4412    7.5418   11.4822 C.3       1 RES1    0.0000
     54 H23        0.7126    7.6177   12.1018 H         1 RES1    0.0000
     55 H24        1.4497    8.3076   10.9033 H         1 RES1    0.0000
     56 H25        2.2693    7.4960   11.9651 H         1 RES1    0.0000
@<TRIPOS>BOND
     1    1   18 1
     2    2   12 1
     3    3   17 1
     4    4   21 1
     5    5   18 1
     6    6   12 2
     7    7   17 2
     8    8    9 1
     9    9   27 2
    10   10   11 1
    11   12   15 1
    12   13   10 ar
    13   14   13 1
    14   15   16 ar
    15   16   10 ar
    16   17   16 1
    17   18   43 1
    18   19   15 ar
    19   20   19 1
    20   21   22 1
    21   23   13 ar
    22   24   23 1
    23   25    1 1
    24   26   25 1
    25   27   21 1
    26   28    2 1
    27   29   28 1
    28   30    8 1
    29   31   30 1
    30   32   30 1
    31   33   32 1
    32   34   32 1
    33   35    3 1
    34   36   35 1
    35   37   35 1
    36   38    5 1
    37   39   38 1
    38   40   32 1
    39   41   40 1
    40   42   40 1
    41   43   44 1
    42   45   43 1
    43   46   43 1
    44   47   27 1
    45   48   47 1
    46   49   47 1
    47   50   35 1
    48   51   50 1
    49   52   50 1
    50   53   18 1
    51   54   53 1
    52   55   53 1
    53   56   53 1
    54    4   25 1
    55   19   23 ar
    56   21   28 1
    57   25   38 1
    58   28   38 1
    59   30   47 1
    60   40   50 1
@<TRIPOS>SUBSTRUCTURE
     1 RES1 1

@<TRIPOS>CRYSIN
  21.5800    7.9030   12.3258  90.0000  92.1220  90.0000   5 1

