# MOL2 file generated by ConQuest
# Please check atom types

@<TRIPOS>MOLECULE
JAFZIC
    32    34     1
SMALL
NO_CHARGES
****
Generated from CSD

@<TRIPOS>ATOM
      1 O1         9.4879    6.8938   10.2514 O.2       1 RES1    0.0000
      2 O2         5.7924    8.7238    8.9482 O.2       1 RES1    0.0000
      3 N1         6.8353    8.1410    9.4361 N.pl3     1 RES1    0.0000
      4 N2         9.5328    6.3413    7.9911 N.am      1 RES1    0.0000
      5 N3         6.3263    4.8111   10.4207 N.1       1 RES1    0.0000
      6 C1         8.9885    6.9105    9.1300 C.2       1 RES1    0.0000
      7 C2         7.5979    7.3070    7.2461 C.ar      1 RES1    0.0000
      8 C3         6.9508    8.1983   10.8848 C.ar      1 RES1    0.0000
      9 C4         6.7755    7.0519   11.6349 C.ar      1 RES1    0.0000
     10 C5         6.6691    7.6853    6.2891 C.ar      1 RES1    0.0000
     11 C6         7.7097    7.5233    8.6685 C.2       1 RES1    0.0000
     12 C7         6.5206    5.7983   10.9638 C.1       1 RES1    0.0000
     13 C8         7.1405    9.4168   11.4982 C.ar      1 RES1    0.0000
     14 C9         8.9261    6.1634    5.5791 C.ar      1 RES1    0.0000
     15 C10        7.9726    6.5379    4.6284 C.ar      1 RES1    0.0000
     16 C11        6.7930    7.1295   13.0159 C.ar      1 RES1    0.0000
     17 C12        8.7231    6.5644    6.8710 C.ar      1 RES1    0.0000
     18 C13        7.1712    9.4754   12.8704 C.ar      1 RES1    0.0000
     19 C14        6.8771    7.2772    4.9783 C.ar      1 RES1    0.0000
     20 C15       10.8098    5.6449    8.0087 C.3       1 RES1    0.0000
     21 C16        6.9951    8.3318   13.6242 C.ar      1 RES1    0.0000
     22 H1         5.9279    8.1974    6.5186 H         1 RES1    0.0000
     23 H2         7.2468   10.1893   10.9914 H         1 RES1    0.0000
     24 H3         9.6722    5.6605    5.3421 H         1 RES1    0.0000
     25 H4         8.0851    6.2791    3.7416 H         1 RES1    0.0000
     26 H5         6.6681    6.3632   13.5276 H         1 RES1    0.0000
     27 H6         7.3118   10.2908   13.2943 H         1 RES1    0.0000
     28 H7         6.2583    7.5114    4.3248 H         1 RES1    0.0000
     29 H8        11.0115    5.3237    7.1269 H         1 RES1    0.0000
     30 H9        10.7621    4.9032    8.6158 H         1 RES1    0.0000
     31 H10       11.4999    6.2486    8.2947 H         1 RES1    0.0000
     32 H11        7.0141    8.3830   14.5524 H         1 RES1    0.0000
@<TRIPOS>BOND
     1    1    6 2
     2    2    3 1
     3    3    8 1
     4    4    6 1
     5    5   12 3
     6    6   11 1
     7    7   10 ar
     8    8    9 ar
     9    9   12 1
    10   10   19 ar
    11   11    3 2
    12   13    8 ar
    13   14   15 ar
    14   15   19 ar
    15   16    9 ar
    16   17    4 1
    17   18   13 ar
    18   19   28 1
    19   20    4 1
    20   21   16 ar
    21   22   10 1
    22   23   13 1
    23   24   14 1
    24   25   15 1
    25   26   16 1
    26   27   18 1
    27   29   20 1
    28   30   20 1
    29   31   20 1
    30   32   21 1
    31    7   11 1
    32    7   17 ar
    33   14   17 ar
    34   18   21 ar
@<TRIPOS>SUBSTRUCTURE
     1 RES1 1

@<TRIPOS>CRYSIN
   7.0120    7.8440   12.6910  81.8300  85.8600  82.7600   2 1

