# MOL2 file generated by ConQuest
# Please check atom types

@<TRIPOS>MOLECULE
JAGLIP
    44    46     1
SMALL
NO_CHARGES
****
Generated from CSD

@<TRIPOS>ATOM
      1 O1         0.8534    5.3673    2.8313 O.3       1 RES1    0.0000
      2 O2        -0.3378    6.2153    4.6021 O.3       1 RES1    0.0000
      3 N1         2.3109    6.6634    4.9372 N.am      1 RES1    0.0000
      4 O3         3.7400    4.9619    5.4304 O.2       1 RES1    0.0000
      5 O4         1.5684    6.2599    8.4623 O.2       1 RES1    0.0000
      6 O5        -2.9292    9.5203   -1.1478 O.2       1 RES1    0.0000
      7 C1         1.6252    7.4047    3.9009 C.3       1 RES1    0.0000
      8 H1         2.2235    7.5655    3.1533 H         1 RES1    0.0000
      9 H2         1.3274    8.2614    4.2449 H         1 RES1    0.0000
     10 N2        -2.7567    9.8464    0.0228 N.pl3     1 RES1    0.0000
     11 C2        -0.4856    7.3432    2.5313 C.ar      1 RES1    0.0000
     12 C3         2.1059    6.6564    7.4432 C.2       1 RES1    0.0000
     13 C4         3.2644    5.2928    3.1411 C.2       1 RES1    0.0000
     14 O6        -3.1728   10.8958    0.5038 O.2       1 RES1    0.0000
     15 C5         0.1796    6.2769    5.8726 C.2       1 RES1    0.0000
     16 C6         3.1500    5.6226    4.5798 C.2       1 RES1    0.0000
     17 C7         1.4918    6.4820    6.1086 C.2       1 RES1    0.0000
     18 C8         3.4395    7.3523    7.4855 C.3       1 RES1    0.0000
     19 H3         3.6954    7.4977    8.4003 H         1 RES1    0.0000
     20 H4         3.3734    8.1972    7.0328 H         1 RES1    0.0000
     21 H5         4.0990    6.8073    7.0512 H         1 RES1    0.0000
     22 C9        -2.0019    8.9364    0.8927 C.ar      1 RES1    0.0000
     23 C10        0.4476    6.5887    3.4543 C.3       1 RES1    0.0000
     24 C11       -0.4425    7.1652    1.1572 C.ar      1 RES1    0.0000
     25 H6         0.1067    6.5091    0.7952 H         1 RES1    0.0000
     26 C12       -1.3238    8.3101    3.0790 C.ar      1 RES1    0.0000
     27 H7        -1.3747    8.4114    4.0013 H         1 RES1    0.0000
     28 C13       -1.2162    7.9604    0.3165 C.ar      1 RES1    0.0000
     29 H8        -1.2037    7.8375   -0.6045 H         1 RES1    0.0000
     30 C14        2.1600    5.0958    2.4153 C.2       1 RES1    0.0000
     31 C15       -2.0800    9.1207    2.2539 C.ar      1 RES1    0.0000
     32 H9        -2.6313    9.7777    2.6132 H         1 RES1    0.0000
     33 C16        2.1220    4.4108    1.0873 C.3       1 RES1    0.0000
     34 H10        1.3660    3.8207    1.0526 H         1 RES1    0.0000
     35 H11        2.9290    3.9048    0.9653 H         1 RES1    0.0000
     36 H12        2.0478    5.0669    0.3907 H         1 RES1    0.0000
     37 C17       -0.9197    6.1413    6.8613 C.3       1 RES1    0.0000
     38 H13       -1.5250    6.8805    6.7685 H         1 RES1    0.0000
     39 H14       -0.5532    6.1368    7.7475 H         1 RES1    0.0000
     40 H15       -1.3908    5.3199    6.7064 H         1 RES1    0.0000
     41 C18        4.6393    4.9404    2.6290 C.3       1 RES1    0.0000
     42 H16        5.2908    5.1211    3.3095 H         1 RES1    0.0000
     43 H17        4.8357    5.4672    1.8501 H         1 RES1    0.0000
     44 H18        4.6659    4.0087    2.3994 H         1 RES1    0.0000
@<TRIPOS>BOND
     1    1   23 1
     2    2   15 1
     3    3    7 1
     4    4   16 2
     5    5   12 2
     6    6   10 2
     7    7    8 1
     8    9    7 1
     9   10   14 2
    10   11   23 1
    11   12   17 1
    12   13   16 1
    13   15   17 2
    14   16    3 1
    15   17    3 1
    16   18   12 1
    17   19   18 1
    18   20   18 1
    19   21   18 1
    20   22   10 1
    21   23    2 1
    22   24   11 ar
    23   25   24 1
    24   26   11 ar
    25   27   26 1
    26   28   22 ar
    27   29   28 1
    28   30    1 1
    29   31   22 ar
    30   32   31 1
    31   33   30 1
    32   34   33 1
    33   35   33 1
    34   36   33 1
    35   37   15 1
    36   38   37 1
    37   39   37 1
    38   40   37 1
    39   41   13 1
    40   42   41 1
    41   43   41 1
    42   44   41 1
    43    7   23 1
    44   13   30 2
    45   24   28 ar
    46   26   31 ar
@<TRIPOS>SUBSTRUCTURE
     1 RES1 1

@<TRIPOS>CRYSIN
   8.1140    9.0367   23.1559  90.0000  97.0080  90.0000 231 1

