# MOL2 file generated by ConQuest
# Please check atom types

@<TRIPOS>MOLECULE
JAGMEM
    19    19     1
SMALL
NO_CHARGES
****
Generated from CSD

@<TRIPOS>ATOM
      1 C1        -5.5796    0.5507   -9.1461 C.3       1 RES1    0.0000
      2 H1        -6.1792    0.5761   -9.9323 H         1 RES1    0.0000
      3 C2        -4.2162    0.0560   -9.5772 C.3       1 RES1    0.0000
      4 H2        -3.6557   -0.1018   -8.7760 H         1 RES1    0.0000
      5 O1        -4.2815   -1.1279  -10.3439 O.3       1 RES1    0.0000
      6 H3        -3.9364   -1.7413   -9.9500 H         1 RES1    0.0000
      7 C3        -3.6613    1.2353  -10.3566 C.3       1 RES1    0.0000
      8 H4        -3.8434    1.1324  -11.3150 H         1 RES1    0.0000
      9 H5        -2.6932    1.3110  -10.2265 H         1 RES1    0.0000
     10 C4        -4.3777    2.4694   -9.8022 C.3       1 RES1    0.0000
     11 H6        -3.7282    3.1128   -9.4497 H         1 RES1    0.0000
     12 H7        -4.9003    2.9065  -10.5071 H         1 RES1    0.0000
     13 C5        -5.2969    1.9742   -8.6852 C.3       1 RES1    0.0000
     14 H8        -4.8063    1.9601   -7.8258 H         1 RES1    0.0000
     15 O2        -6.4507    2.7629   -8.5646 O.3       1 RES1    0.0000
     16 H9        -6.7337    2.8098   -7.8081 H         1 RES1    0.0000
     17 N1        -6.2196   -0.2459   -8.0725 N.pl3     1 RES1    0.0000
     18 O3        -5.5042   -0.7807   -7.2402 O.2       1 RES1    0.0000
     19 O4        -7.4241   -0.2731   -8.0250 O.2       1 RES1    0.0000
@<TRIPOS>BOND
     1    1    2 1
     2    3    1 1
     3    4    3 1
     4    5    3 1
     5    6    5 1
     6    7    3 1
     7    8    7 1
     8    9    7 1
     9   10    7 1
    10   11   10 1
    11   12   10 1
    12   13    1 1
    13   14   13 1
    14   15   13 1
    15   16   15 1
    16   17    1 1
    17   18   17 2
    18   19   17 2
    19   10   13 1
@<TRIPOS>SUBSTRUCTURE
     1 RES1 1

@<TRIPOS>CRYSIN
   6.5281    6.5281   13.5558  90.0000  90.0000 120.0000 144 1

