# MOL2 file generated by ConQuest
# Please check atom types

@<TRIPOS>MOLECULE
JAGNOX
    52    54     1
SMALL
NO_CHARGES
****
Generated from CSD

@<TRIPOS>ATOM
      1 O1        -1.4648    7.4448    3.1082 O.3       1 RES1    0.0000
      2 O2        12.1264    3.7304    5.8028 O.2       1 RES1    0.0000
      3 O3        11.8738    4.0256    3.6735 O.2       1 RES1    0.0000
      4 O4         5.2525    4.3031    6.6360 O.3       1 RES1    0.0000
      5 H1         4.5532    4.1331    6.3926 H         1 RES1    0.0000
      6 O5         2.7275    7.4602    0.4725 O.2       1 RES1    0.0000
      7 O6         4.3680    7.5944    1.8782 O.2       1 RES1    0.0000
      8 N1         3.9366    7.0822    4.4231 N.3       1 RES1    0.0000
      9 H2         4.5156    6.9617    3.7992 H         1 RES1    0.0000
     10 N2        11.4228    3.9179    4.8071 N.pl3     1 RES1    0.0000
     11 N3         3.1504    7.4827    1.6322 N.pl3     1 RES1    0.0000
     12 C1        -1.8722    7.1828    1.7593 C.3       1 RES1    0.0000
     13 H3        -1.5068    7.8546    1.1794 H         1 RES1    0.0000
     14 H4        -2.8303    7.1997    1.7061 H         1 RES1    0.0000
     15 H5        -1.5521    6.3186    1.4902 H         1 RES1    0.0000
     16 C2        -0.1127    7.3876    3.3355 C.ar      1 RES1    0.0000
     17 C3         0.2766    7.3147    4.6804 C.ar      1 RES1    0.0000
     18 H6        -0.3743    7.3115    5.3438 H         1 RES1    0.0000
     19 C4         1.5990    7.2486    5.0342 C.ar      1 RES1    0.0000
     20 H7         1.8242    7.1984    5.9358 H         1 RES1    0.0000
     21 C5         2.6385    7.2541    4.0606 C.ar      1 RES1    0.0000
     22 C6         4.4162    7.0892    5.8118 C.3       1 RES1    0.0000
     23 H8         3.8345    6.5146    6.3507 H         1 RES1    0.0000
     24 C7         5.8309    6.4939    5.7992 C.3       1 RES1    0.0000
     25 H9         6.2520    6.6645    6.6568 H         1 RES1    0.0000
     26 H10        6.3552    6.9419    5.1169 H         1 RES1    0.0000
     27 C8         5.8476    4.9782    5.5262 C.3       1 RES1    0.0000
     28 H11        5.3375    4.7853    4.7129 H         1 RES1    0.0000
     29 C9         7.2837    4.5230    5.3461 C.ar      1 RES1    0.0000
     30 C10        8.1199    4.3593    6.4481 C.ar      1 RES1    0.0000
     31 H12        7.7636    4.4105    7.3047 H         1 RES1    0.0000
     32 C11        9.4784    4.1201    6.2862 C.ar      1 RES1    0.0000
     33 H13       10.0383    4.0121    7.0204 H         1 RES1    0.0000
     34 C12        9.9718    4.0481    4.9944 C.ar      1 RES1    0.0000
     35 C13        7.8082    4.3636    4.0624 C.ar      1 RES1    0.0000
     36 H14        7.2436    4.4092    3.3253 H         1 RES1    0.0000
     37 C14        9.1632    4.1370    3.8758 C.ar      1 RES1    0.0000
     38 H15        9.5193    4.0476    3.0207 H         1 RES1    0.0000
     39 C15        0.8500    7.4244    2.3566 C.ar      1 RES1    0.0000
     40 H16        0.6058    7.4758    1.4606 H         1 RES1    0.0000
     41 C16        2.2064    7.3842    2.7193 C.ar      1 RES1    0.0000
     42 C17        4.3916    8.4955    6.3898 C.ar      1 RES1    0.0000
     43 C18        3.7575    8.7772    7.5976 C.ar      1 RES1    0.0000
     44 H17        3.3493    8.0926    8.0770 H         1 RES1    0.0000
     45 C19        3.7317   10.0822    8.0913 C.ar      1 RES1    0.0000
     46 H18        3.2982   10.2650    8.8928 H         1 RES1    0.0000
     47 C20        4.3495   11.1062    7.3914 C.ar      1 RES1    0.0000
     48 H19        4.3333   11.9758    7.7227 H         1 RES1    0.0000
     49 C21        4.9924   10.8271    6.1943 C.ar      1 RES1    0.0000
     50 H20        5.4146   11.5090    5.7245 H         1 RES1    0.0000
     51 C22        5.0058    9.5320    5.6974 C.ar      1 RES1    0.0000
     52 H21        5.4320    9.3550    4.8900 H         1 RES1    0.0000
@<TRIPOS>BOND
     1    1   12 1
     2    2   10 2
     3    3   10 2
     4    4    5 1
     5    6   11 2
     6    7   11 2
     7    8    9 1
     8   10   34 1
     9   11   41 1
    10   12   13 1
    11   14   12 1
    12   15   12 1
    13   16    1 1
    14   17   16 ar
    15   18   17 1
    16   19   17 ar
    17   20   19 1
    18   21    8 1
    19   22    8 1
    20   23   22 1
    21   24   22 1
    22   25   24 1
    23   26   24 1
    24   27    4 1
    25   28   27 1
    26   29   27 1
    27   30   29 ar
    28   31   30 1
    29   32   30 ar
    30   33   32 1
    31   34   32 ar
    32   35   29 ar
    33   36   35 1
    34   37   34 ar
    35   38   37 1
    36   39   16 ar
    37   40   39 1
    38   41   21 ar
    39   42   22 1
    40   43   42 ar
    41   44   43 1
    42   45   43 ar
    43   46   45 1
    44   47   45 ar
    45   48   47 1
    46   49   47 ar
    47   50   49 1
    48   51   42 ar
    49   52   51 1
    50   19   21 ar
    51   24   27 1
    52   35   37 ar
    53   39   41 ar
    54   49   51 ar
@<TRIPOS>SUBSTRUCTURE
     1 RES1 1

@<TRIPOS>CRYSIN
   9.6466   13.1501   15.5387  90.0000  90.0000  90.0000  19 1

