# MOL2 file generated by ConQuest
# Please check atom types

@<TRIPOS>MOLECULE
JAGNUD
    52    54     1
SMALL
NO_CHARGES
****
Generated from CSD

@<TRIPOS>ATOM
      1 O1        10.5265   16.2052    2.8642 O.2       1 RES1    0.0000
      2 O2         4.9443    2.8334    1.0237 O.3       1 RES1    0.0000
      3 O3        12.3106   14.9728    2.9095 O.2       1 RES1    0.0000
      4 O4         6.4354   10.7738    2.5580 O.3       1 RES1    0.0000
      5 H1         6.1192   10.3722    1.9450 H         1 RES1    0.0000
      6 O5         9.2086    6.9931    0.5467 O.2       1 RES1    0.0000
      7 O6         8.8520    5.3021   -0.7598 O.2       1 RES1    0.0000
      8 N1        11.0877   15.1153    2.8982 N.pl3     1 RES1    0.0000
      9 N2         7.6676    7.4210    2.6233 N.pl3     1 RES1    0.0000
     10 H2         8.3726    7.6783    2.2027 H         1 RES1    0.0000
     11 N3         8.5555    5.9723    0.2464 N.pl3     1 RES1    0.0000
     12 C1        10.2480   13.9037    2.8814 C.ar      1 RES1    0.0000
     13 C2         8.8838   14.0321    3.0511 C.ar      1 RES1    0.0000
     14 H3         8.5039   14.8640    3.2233 H         1 RES1    0.0000
     15 C3         8.0899   12.8985    2.9604 C.ar      1 RES1    0.0000
     16 H4         7.1694   12.9674    3.0755 H         1 RES1    0.0000
     17 C4         8.6632   11.6572    2.6972 C.ar      1 RES1    0.0000
     18 C5         7.8049   10.4060    2.5968 C.3       1 RES1    0.0000
     19 H5         8.0330    9.9241    1.7732 H         1 RES1    0.0000
     20 C6         8.0696    9.4973    3.8033 C.3       1 RES1    0.0000
     21 H6         7.8660    9.9871    4.6150 H         1 RES1    0.0000
     22 H7         9.0128    9.2688    3.8246 H         1 RES1    0.0000
     23 C7         7.2451    8.2020    3.7844 C.3       1 RES1    0.0000
     24 H8         6.3004    8.4366    3.6734 H         1 RES1    0.0000
     25 C8         7.0208    6.3132    2.1601 C.ar      1 RES1    0.0000
     26 C9         7.4296    5.5701    1.0275 C.ar      1 RES1    0.0000
     27 C10        6.7640    4.3971    0.6117 C.ar      1 RES1    0.0000
     28 H9         7.0718    3.9232   -0.1271 H         1 RES1    0.0000
     29 C11        5.6633    3.9577    1.2986 C.ar      1 RES1    0.0000
     30 C12        5.4313    2.0159   -0.0412 C.3       1 RES1    0.0000
     31 H10        5.4313    2.5214   -0.8591 H         1 RES1    0.0000
     32 H11        4.8628    1.2488   -0.1409 H         1 RES1    0.0000
     33 H12        6.3253    1.7294    0.1581 H         1 RES1    0.0000
     34 C13       10.0467   11.5632    2.5446 C.ar      1 RES1    0.0000
     35 H13       10.4319   10.7335    2.3745 H         1 RES1    0.0000
     36 C14       10.8581   12.6845    2.6401 C.ar      1 RES1    0.0000
     37 H14       11.7805   12.6192    2.5463 H         1 RES1    0.0000
     38 C15        5.8658    5.8235    2.8281 C.ar      1 RES1    0.0000
     39 H15        5.5441    6.2841    3.5704 H         1 RES1    0.0000
     40 C16        5.2121    4.6908    2.4120 C.ar      1 RES1    0.0000
     41 H16        4.4581    4.4028    2.8728 H         1 RES1    0.0000
     42 C17        7.4113    7.4611    5.1119 C.ar      1 RES1    0.0000
     43 C18        6.6714    7.8823    6.2150 C.ar      1 RES1    0.0000
     44 H17        6.0823    8.5972    6.1339 H         1 RES1    0.0000
     45 C19        6.8114    7.2345    7.4448 C.ar      1 RES1    0.0000
     46 H18        6.3231    7.5253    8.1819 H         1 RES1    0.0000
     47 C20        7.6750    6.1615    7.5706 C.ar      1 RES1    0.0000
     48 H19        7.7553    5.7199    8.3847 H         1 RES1    0.0000
     49 C21        8.4215    5.7438    6.4723 C.ar      1 RES1    0.0000
     50 H20        9.0063    5.0255    6.5531 H         1 RES1    0.0000
     51 C22        8.2953    6.3974    5.2579 C.ar      1 RES1    0.0000
     52 H21        8.8066    6.1224    4.5325 H         1 RES1    0.0000
@<TRIPOS>BOND
     1    1    8 2
     2    2   29 1
     3    3    8 2
     4    4    5 1
     5    6   11 2
     6    7   11 2
     7    8   12 1
     8    9   10 1
     9   11   26 1
    10   12   13 ar
    11   13   14 1
    12   15   13 ar
    13   16   15 1
    14   17   15 ar
    15   18    4 1
    16   19   18 1
    17   20   18 1
    18   21   20 1
    19   22   20 1
    20   23    9 1
    21   24   23 1
    22   25    9 1
    23   26   25 ar
    24   27   26 ar
    25   28   27 1
    26   29   27 ar
    27   30    2 1
    28   31   30 1
    29   32   30 1
    30   33   30 1
    31   34   17 ar
    32   35   34 1
    33   36   12 ar
    34   37   36 1
    35   38   25 ar
    36   39   38 1
    37   40   29 ar
    38   41   40 1
    39   42   23 1
    40   43   42 ar
    41   44   43 1
    42   45   43 ar
    43   46   45 1
    44   47   45 ar
    45   48   47 1
    46   49   47 ar
    47   50   49 1
    48   51   42 ar
    49   52   51 1
    50   17   18 1
    51   20   23 1
    52   34   36 ar
    53   38   40 ar
    54   49   51 ar
@<TRIPOS>SUBSTRUCTURE
     1 RES1 1

@<TRIPOS>CRYSIN
  10.8496   10.8496   34.3634  90.0000  90.0000  90.0000  96 1

