# MOL2 file generated by ConQuest
# Please check atom types

@<TRIPOS>MOLECULE
JAGXEX
    29    30     1
SMALL
NO_CHARGES
****
Generated from CSD

@<TRIPOS>ATOM
      1 N1        -2.1805    0.7761    4.3890 N.pl3     1 RES1    0.0000
      2 O1        -3.3167    1.1608    4.6700 O.2       1 RES1    0.0000
      3 O2        -1.6808    0.9001    3.2769 O.2       1 RES1    0.0000
      4 C1        -1.3621    0.1291    5.4645 C.3       1 RES1    0.0000
      5 H1        -1.1112   -0.7880    5.1895 H         1 RES1    0.0000
      6 H2        -1.8920    0.0679    6.2978 H         1 RES1    0.0000
      7 C2        -0.0934    0.9638    5.7138 C.3       1 RES1    0.0000
      8 H3         0.4444    0.9502    4.8714 H         1 RES1    0.0000
      9 C3         0.7741    0.3278    6.8296 C.3       1 RES1    0.0000
     10 H4         1.6956    0.6878    6.6831 H         1 RES1    0.0000
     11 C4         0.9163   -1.1982    6.7354 C.3       1 RES1    0.0000
     12 H5         1.1741   -1.4470    5.8223 H         1 RES1    0.0000
     13 H6         0.0604   -1.6202    6.9588 H         1 RES1    0.0000
     14 H7         1.6047   -1.5022    7.3636 H         1 RES1    0.0000
     15 C5         0.3764    0.7965    8.2285 C.2       1 RES1    0.0000
     16 O3         0.4129    0.0493    9.1884 O.2       1 RES1    0.0000
     17 C6        -0.4351    2.4371    6.0192 C.3       1 RES1    0.0000
     18 H8        -0.9850    2.8362    5.2850 H         1 RES1    0.0000
     19 C7         0.8515    3.2582    6.2523 C.3       1 RES1    0.0000
     20 H9         0.7177    4.2016    5.9867 H         1 RES1    0.0000
     21 H10        1.6049    2.8829    5.7304 H         1 RES1    0.0000
     22 C8         1.1342    3.1529    7.7756 C.3       1 RES1    0.0000
     23 H11        2.0205    2.7436    7.9398 H         1 RES1    0.0000
     24 H12        1.1133    4.0488    8.1979 H         1 RES1    0.0000
     25 C9         0.0041    2.2554    8.3441 C.3       1 RES1    0.0000
     26 H13       -0.2267    2.5042    9.2849 H         1 RES1    0.0000
     27 C10       -1.1578    2.5543    7.3742 C.3       1 RES1    0.0000
     28 H14       -1.8850    1.8885    7.4590 H         1 RES1    0.0000
     29 H15       -1.5255    3.4629    7.5138 H         1 RES1    0.0000
@<TRIPOS>BOND
     1    1    2 2
     2    3    1 2
     3    4    1 1
     4    5    4 1
     5    6    4 1
     6    7    4 1
     7    8    7 1
     8    9    7 1
     9   10    9 1
    10   11    9 1
    11   12   11 1
    12   13   11 1
    13   14   11 1
    14   15    9 1
    15   16   15 2
    16   17    7 1
    17   18   17 1
    18   19   17 1
    19   20   19 1
    20   21   19 1
    21   22   19 1
    22   23   22 1
    23   24   22 1
    24   25   15 1
    25   26   25 1
    26   27   17 1
    27   28   27 1
    28   29   27 1
    29   22   25 1
    30   25   27 1
@<TRIPOS>SUBSTRUCTURE
     1 RES1 1

@<TRIPOS>CRYSIN
   6.5660    8.4916   17.8392  90.0000  97.7690  90.0000 231 1

