# MOL2 file generated by ConQuest
# Please check atom types

@<TRIPOS>MOLECULE
JAHLIN
    36    37     1
SMALL
NO_CHARGES
****
Generated from CSD

@<TRIPOS>ATOM
      1 O1         2.9501   12.5535    8.8717 O.3       1 RES1    0.0000
      2 O2         1.9735    9.8739    3.9952 O.2       1 RES1    0.0000
      3 O3         0.9047   11.2590    5.3886 O.3       1 RES1    0.0000
      4 O4        -0.3303    8.8589    5.6625 O.3       1 RES1    0.0000
      5 O5        -0.6599   10.9004    8.6111 O.3       1 RES1    0.0000
      6 O6         0.8936    7.0752    6.1373 O.2       1 RES1    0.0000
      7 N1        -0.1563   13.1080    7.9291 N.pl3     1 RES1    0.0000
      8 N2         2.7788   11.6817    7.8446 N.2       1 RES1    0.0000
      9 N3        -1.3342   13.6017    8.3737 N.2       1 RES1    0.0000
     10 C1         0.3592   11.8489    8.4955 C.3       1 RES1    0.0000
     11 C2         1.5289   11.3563    7.6579 C.2       1 RES1    0.0000
     12 C3         1.2804   10.4341    6.5330 C.3       1 RES1    0.0000
     13 C4         0.1361    9.5050    6.8496 C.3       1 RES1    0.0000
     14 C5        -1.0578   10.2944    7.3769 C.3       1 RES1    0.0000
     15 C6         1.2835   10.8099    4.1606 C.2       1 RES1    0.0000
     16 C7         0.6227   11.6382    3.0945 C.3       1 RES1    0.0000
     17 C8         0.1908    7.6583    5.3771 C.2       1 RES1    0.0000
     18 C9        -0.1925    7.1611    4.0388 C.3       1 RES1    0.0000
     19 C10       -1.4139   14.8069    7.8606 C.2       1 RES1    0.0000
     20 C11       -0.2807   15.1139    7.1110 C.2       1 RES1    0.0000
     21 C12        0.4927   14.0050    7.1937 C.2       1 RES1    0.0000
     22 H1         0.6815   11.9830    9.3723 H         1 RES1    0.0000
     23 H2         3.8963   12.8307    8.8210 H         1 RES1    0.0000
     24 H3         2.0709    9.8980    6.3756 H         1 RES1    0.0000
     25 H4         0.4671    8.8784    7.5138 H         1 RES1    0.0000
     26 H5        -1.7967    9.7032    7.5227 H         1 RES1    0.0000
     27 H6        -1.3113   10.9748    6.7491 H         1 RES1    0.0000
     28 H7         0.7683   12.6818    3.3612 H         1 RES1    0.0000
     29 H8         0.9735   11.4331    2.3031 H         1 RES1    0.0000
     30 H9        -0.3080   11.5133    3.0500 H         1 RES1    0.0000
     31 H10        0.4693    7.6412    3.3345 H         1 RES1    0.0000
     32 H11       -1.0727    7.3318    3.8236 H         1 RES1    0.0000
     33 H12       -0.0148    6.2092    3.9837 H         1 RES1    0.0000
     34 H13       -2.1503   15.4083    7.9762 H         1 RES1    0.0000
     35 H14       -0.0736   15.9238    6.6602 H         1 RES1    0.0000
     36 H15        1.3596   13.8732    6.7936 H         1 RES1    0.0000
@<TRIPOS>BOND
     1    1    8 1
     2    2   15 2
     3    3   12 1
     4    4   13 1
     5    5   10 1
     6    6   17 2
     7    7    9 1
     8    8   11 2
     9    9   19 2
    10   10    7 1
    11   11   10 1
    12   12   11 1
    13   13   12 1
    14   14    5 1
    15   15    3 1
    16   16   15 1
    17   17    4 1
    18   18   17 1
    19   19   20 1
    20   20   21 2
    21   21    7 1
    22   22   10 1
    23   23    1 1
    24   24   12 1
    25   25   13 1
    26   26   14 1
    27   27   14 1
    28   28   16 1
    29   29   16 1
    30   30   16 1
    31   31   18 1
    32   32   18 1
    33   33   18 1
    34   34   19 1
    35   35   20 1
    36   36   21 1
    37   13   14 1
@<TRIPOS>SUBSTRUCTURE
     1 RES1 1

@<TRIPOS>CRYSIN
   6.8110   11.4560    9.2440  90.0000 105.8600  90.0000   4 1

