# MOL2 file generated by ConQuest
# Please check atom types

@<TRIPOS>MOLECULE
JAHRES
    44    48     1
SMALL
NO_CHARGES
****
Generated from CSD

@<TRIPOS>ATOM
      1 N1         3.5750    0.3508   -6.3871 N.pl3     1 RES1    0.0000
      2 C1         1.0921    5.4741    2.2561 C.ar      1 RES1    0.0000
      3 O1         1.9550    5.3093   -2.7305 O.2       1 RES1    0.0000
      4 C2         0.6765    6.7586    1.7868 C.ar      1 RES1    0.0000
      5 H1         0.7130    6.9305    0.8739 H         1 RES1    0.0000
      6 O2         3.4901    0.7062   -7.5386 O.2       1 RES1    0.0000
      7 C3         0.2325    7.7387    2.6124 C.ar      1 RES1    0.0000
      8 H2        -0.0273    8.5587    2.2600 H         1 RES1    0.0000
      9 O3         3.9638   -0.7510   -6.0420 O.2       1 RES1    0.0000
     10 C4         0.1603    7.5166    4.0350 C.ar      1 RES1    0.0000
     11 C5         0.5545    6.2737    4.5350 C.ar      1 RES1    0.0000
     12 C6         1.0160    5.2473    3.6515 C.ar      1 RES1    0.0000
     13 C7        -0.2929    8.4991    4.9069 C.ar      1 RES1    0.0000
     14 H3        -0.5550    9.3277    4.5775 H         1 RES1    0.0000
     15 C8        -0.3561    8.2456    6.2652 C.ar      1 RES1    0.0000
     16 H4        -0.6549    8.9118    6.8407 H         1 RES1    0.0000
     17 C9         0.0193    7.0191    6.7802 C.ar      1 RES1    0.0000
     18 H5        -0.0373    6.8614    7.6954 H         1 RES1    0.0000
     19 C10        0.4756    6.0312    5.9380 C.ar      1 RES1    0.0000
     20 C11        0.8796    4.7553    6.4153 C.ar      1 RES1    0.0000
     21 H6         0.8451    4.5881    7.3305 H         1 RES1    0.0000
     22 C12        1.3108    3.7775    5.5933 C.ar      1 RES1    0.0000
     23 H7         1.5518    2.9536    5.9508 H         1 RES1    0.0000
     24 C13        1.4039    3.9808    4.1893 C.ar      1 RES1    0.0000
     25 C14        1.8574    3.0180    3.3026 C.ar      1 RES1    0.0000
     26 H8         2.1231    2.1901    3.6332 H         1 RES1    0.0000
     27 C15        1.9259    3.2502    1.9533 C.ar      1 RES1    0.0000
     28 H9         2.2278    2.5707    1.3957 H         1 RES1    0.0000
     29 C16        1.5622    4.4595    1.3970 C.ar      1 RES1    0.0000
     30 C17        1.7027    4.6650   -0.0317 C.2       1 RES1    0.0000
     31 H10        1.5418    5.5314   -0.3297 H         1 RES1    0.0000
     32 C18        2.0309    3.7862   -0.9744 C.2       1 RES1    0.0000
     33 H11        2.1844    2.9018   -0.7298 H         1 RES1    0.0000
     34 C19        2.1570    4.1675   -2.3867 C.2       1 RES1    0.0000
     35 C20        2.5252    3.1341   -3.3957 C.ar      1 RES1    0.0000
     36 C21        2.8992    1.8621   -3.0602 C.ar      1 RES1    0.0000
     37 H12        2.9207    1.6133   -2.1639 H         1 RES1    0.0000
     38 C22        3.2484    0.9307   -4.0404 C.ar      1 RES1    0.0000
     39 H13        3.4886    0.0620   -3.8093 H         1 RES1    0.0000
     40 C23        3.2273    1.3277   -5.3333 C.ar      1 RES1    0.0000
     41 C24        2.8770    2.5817   -5.7114 C.ar      1 RES1    0.0000
     42 H14        2.8793    2.8234   -6.6102 H         1 RES1    0.0000
     43 C25        2.5147    3.4966   -4.7357 C.ar      1 RES1    0.0000
     44 H15        2.2645    4.3582   -4.9809 H         1 RES1    0.0000
@<TRIPOS>BOND
     1    1    6 2
     2    2    4 ar
     3    3   34 2
     4    4    5 1
     5    7    4 ar
     6    8    7 1
     7    9    1 2
     8   10    7 ar
     9   11   10 ar
    10   12    2 ar
    11   13   10 ar
    12   14   13 1
    13   15   13 ar
    14   16   15 1
    15   17   15 ar
    16   18   17 1
    17   19   11 ar
    18   20   19 ar
    19   21   20 1
    20   22   20 ar
    21   23   22 1
    22   24   12 ar
    23   25   24 ar
    24   26   25 1
    25   27   25 ar
    26   28   27 1
    27   29    2 ar
    28   30   29 1
    29   31   30 1
    30   32   30 2
    31   33   32 1
    32   34   32 1
    33   35   34 1
    34   36   35 ar
    35   37   36 1
    36   38   36 ar
    37   39   38 1
    38   40    1 1
    39   41   40 ar
    40   42   41 1
    41   43   35 ar
    42   44   43 1
    43   11   12 ar
    44   17   19 ar
    45   22   24 ar
    46   27   29 ar
    47   38   40 ar
    48   41   43 ar
@<TRIPOS>SUBSTRUCTURE
     1 RES1 1

@<TRIPOS>CRYSIN
   7.3870    7.8470   32.0890  90.0000  94.0000  90.0000 231 1

