# MOL2 file generated by ConQuest
# Please check atom types

@<TRIPOS>MOLECULE
JAJSOF
    31    33     1
SMALL
NO_CHARGES
****
Generated from CSD

@<TRIPOS>ATOM
      1 C1         0.4359    5.1662    6.9879 C.3       1 RES1    0.0000
      2 H1        -0.1165    4.5994    6.4102 H         1 RES1    0.0000
      3 H2        -0.1121    5.5182    7.7191 H         1 RES1    0.0000
      4 H3         1.1728    4.6358    7.3577 H         1 RES1    0.0000
      5 C2         0.9943    6.3086    6.1841 C.ar      1 RES1    0.0000
      6 C3         0.9927    6.2992    4.8095 C.ar      1 RES1    0.0000
      7 H4         0.6063    5.5613    4.3520 H         1 RES1    0.0000
      8 C4         1.5520    7.3591    4.0578 C.ar      1 RES1    0.0000
      9 H5         1.5241    7.3235    3.1084 H         1 RES1    0.0000
     10 C5         2.1329    8.4360    4.6741 C.ar      1 RES1    0.0000
     11 H6         2.5083    9.1395    4.1587 H         1 RES1    0.0000
     12 C6         2.1668    8.4882    6.0901 C.ar      1 RES1    0.0000
     13 N1         2.7766    9.5477    6.7084 N.ar      1 RES1    0.0000
     14 C7         2.7716    9.5364    8.0220 C.ar      1 RES1    0.0000
     15 H7         3.2111   10.2402    8.4841 H         1 RES1    0.0000
     16 C8         2.1366    8.5158    8.7841 C.ar      1 RES1    0.0000
     17 N2         1.5516    7.4810    8.2108 N.ar      1 RES1    0.0000
     18 C9         1.5725    7.4345    6.8441 C.ar      1 RES1    0.0000
     19 C10        2.1198    8.5573   10.2698 C.ar      1 RES1    0.0000
     20 C11        3.3083    8.6672   10.9932 C.ar      1 RES1    0.0000
     21 H8         4.1266    8.8095   10.5314 H         1 RES1    0.0000
     22 C12        3.3111    8.5713   12.3796 C.ar      1 RES1    0.0000
     23 H9         4.1303    8.6465   12.8543 H         1 RES1    0.0000
     24 C13        2.1293    8.3677   13.0775 C.ar      1 RES1    0.0000
     25 H10        2.1404    8.3056   14.0254 H         1 RES1    0.0000
     26 C14        0.9291    8.2554   12.3848 C.ar      1 RES1    0.0000
     27 H11        0.1127    8.1103   12.8483 H         1 RES1    0.0000
     28 C15        0.9483    8.3599   11.0053 C.ar      1 RES1    0.0000
     29 N3        -0.3490    8.3040   10.3156 N.pl3     1 RES1    0.0000
     30 O1        -0.5854    9.1534    9.4578 O.2       1 RES1    0.0000
     31 O2        -1.1414    7.4381   10.6562 O.2       1 RES1    0.0000
@<TRIPOS>BOND
     1    1    2 1
     2    3    1 1
     3    4    1 1
     4    5    1 1
     5    6    5 ar
     6    7    6 1
     7    8    6 ar
     8    9    8 1
     9   10    8 ar
    10   11   10 1
    11   12   10 ar
    12   13   12 ar
    13   14   13 ar
    14   15   14 1
    15   16   14 ar
    16   17   16 ar
    17   18    5 ar
    18   19   16 1
    19   20   19 ar
    20   21   20 1
    21   22   20 ar
    22   23   22 1
    23   24   22 ar
    24   25   24 1
    25   26   24 ar
    26   27   26 1
    27   28   19 ar
    28   29   28 1
    29   30   29 2
    30   31   29 2
    31   12   18 ar
    32   17   18 ar
    33   26   28 ar
@<TRIPOS>SUBSTRUCTURE
     1 RES1 1

@<TRIPOS>CRYSIN
   7.7038   13.4722   12.1711  90.0000  96.7930  90.0000 231 1

