# MOL2 file generated by ConQuest
# Please check atom types

@<TRIPOS>MOLECULE
JAJTEW
    27    29     1
SMALL
NO_CHARGES
****
Generated from CSD

@<TRIPOS>ATOM
      1 C1         1.2848   -0.5276    6.7868 C.ar      1 RES1    0.0000
      2 H1         1.6309    0.2350    7.2359 H         1 RES1    0.0000
      3 N1         1.3597   -0.5674    5.4826 N.ar      1 RES1    0.0000
      4 C2         0.8657   -1.6993    4.8901 C.ar      1 RES1    0.0000
      5 C3         0.9084   -1.8485    3.4880 C.ar      1 RES1    0.0000
      6 H2         1.2735   -1.1653    2.9372 H         1 RES1    0.0000
      7 C4         0.4132   -2.9966    2.9402 C.ar      1 RES1    0.0000
      8 H3         0.4265   -3.1256    1.9987 H         1 RES1    0.0000
      9 C5        -0.1189   -3.9899    3.7909 C.ar      1 RES1    0.0000
     10 H4        -0.4544   -4.7831    3.3904 H         1 RES1    0.0000
     11 N2        -0.1816   -3.8908    5.1064 N.ar      1 RES1    0.0000
     12 C6         0.3056   -2.7450    5.6597 C.ar      1 RES1    0.0000
     13 N3         0.2211   -2.6651    7.0210 N.ar      1 RES1    0.0000
     14 C7         0.7077   -1.5750    7.5698 C.ar      1 RES1    0.0000
     15 C8         0.5366   -1.4378    9.0435 C.ar      1 RES1    0.0000
     16 C9        -0.7387   -1.6517    9.5747 C.ar      1 RES1    0.0000
     17 H5        -1.4556   -1.8670    8.9901 H         1 RES1    0.0000
     18 C10       -0.9780   -1.5555   10.9366 C.ar      1 RES1    0.0000
     19 H6        -1.8517   -1.7129   11.2754 H         1 RES1    0.0000
     20 C11        0.0510   -1.2309   11.8063 C.ar      1 RES1    0.0000
     21 H7        -0.1145   -1.1798   12.7404 H         1 RES1    0.0000
     22 C12        1.3221   -0.9807   11.3125 C.ar      1 RES1    0.0000
     23 H8         2.0298   -0.7365   11.8971 H         1 RES1    0.0000
     24 C13        1.5396   -1.0945    9.9451 C.ar      1 RES1    0.0000
     25 N4         2.9213   -0.8859    9.4782 N.pl3     1 RES1    0.0000
     26 O1         3.3224   -1.5648    8.5391 O.2       1 RES1    0.0000
     27 O2         3.5999   -0.0450   10.0582 O.2       1 RES1    0.0000
@<TRIPOS>BOND
     1    1    2 1
     2    3    1 ar
     3    4    3 ar
     4    5    4 ar
     5    6    5 1
     6    7    5 ar
     7    8    7 1
     8    9    7 ar
     9   10    9 1
    10   11    9 ar
    11   12    4 ar
    12   13   12 ar
    13   14    1 ar
    14   15   14 1
    15   16   15 ar
    16   17   16 1
    17   18   16 ar
    18   19   18 1
    19   20   18 ar
    20   21   20 1
    21   22   20 ar
    22   23   22 1
    23   24   15 ar
    24   25   24 1
    25   26   25 2
    26   27   25 2
    27   11   12 ar
    28   13   14 ar
    29   22   24 ar
@<TRIPOS>SUBSTRUCTURE
     1 RES1 1

@<TRIPOS>CRYSIN
   7.4757    8.1279    9.8407 107.3830 101.0060  94.0120   2 1

