# MOL2 file generated by ConQuest
# Please check atom types

@<TRIPOS>MOLECULE
JAJXUQ
    34    36     1
SMALL
NO_CHARGES
****
Generated from CSD

@<TRIPOS>ATOM
      1 O1         8.7584    4.6554    6.5363 O.2       1 RES1    0.0000
      2 O2         8.8171    4.9790    8.6793 O.2       1 RES1    0.0000
      3 N1         9.2698    5.1397    7.5437 N.pl3     1 RES1    0.0000
      4 C1        10.6837    5.2698    4.1166 C.3       1 RES1    0.0000
      5 C2        10.0838    6.5099    4.9062 C.3       1 RES1    0.0000
      6 C3        10.7372    6.6861    6.2568 C.ar      1 RES1    0.0000
      7 C4        10.4868    5.9306    7.4115 C.ar      1 RES1    0.0000
      8 C5        11.4411    5.7276    8.4032 C.ar      1 RES1    0.0000
      9 C6        12.7057    6.2896    8.2718 C.ar      1 RES1    0.0000
     10 C7        12.8521    7.2929    7.3048 C.ar      1 RES1    0.0000
     11 C8        11.8809    7.4871    6.3320 C.ar      1 RES1    0.0000
     12 C9        13.9052    5.6662    8.9420 C.3       1 RES1    0.0000
     13 C10       14.7217    4.7138    7.9616 C.3       1 RES1    0.0000
     14 C11       13.9645    4.4103    6.6877 C.ar      1 RES1    0.0000
     15 C12       12.8407    3.5839    6.7095 C.ar      1 RES1    0.0000
     16 C13       11.8359    3.7337    5.7561 C.ar      1 RES1    0.0000
     17 C14       11.9332    4.7134    4.7577 C.ar      1 RES1    0.0000
     18 C15       13.1794    5.3078    4.5721 C.ar      1 RES1    0.0000
     19 C16       14.1877    5.1576    5.5273 C.ar      1 RES1    0.0000
     20 H1        10.8726    5.6714    3.1636 H         1 RES1    0.0000
     21 H2         9.9619    4.6657    4.0675 H         1 RES1    0.0000
     22 H3         9.1373    6.4403    4.9714 H         1 RES1    0.0000
     23 H4        10.2914    7.3129    4.3920 H         1 RES1    0.0000
     24 H5        11.2726    5.0872    9.0506 H         1 RES1    0.0000
     25 H6        13.6816    7.6826    7.2080 H         1 RES1    0.0000
     26 H7        12.1340    8.0893    5.5393 H         1 RES1    0.0000
     27 H8        14.4594    6.3368    9.2823 H         1 RES1    0.0000
     28 H9        13.6172    5.1833    9.7111 H         1 RES1    0.0000
     29 H10       14.8993    3.8967    8.4480 H         1 RES1    0.0000
     30 H11       15.5431    5.1981    7.7295 H         1 RES1    0.0000
     31 H12       12.7530    2.9947    7.4050 H         1 RES1    0.0000
     32 H13       10.9536    3.2904    5.8290 H         1 RES1    0.0000
     33 H14       13.2864    5.9080    3.8705 H         1 RES1    0.0000
     34 H15       14.9934    5.6122    5.4118 H         1 RES1    0.0000
@<TRIPOS>BOND
     1    1    3 2
     2    2    3 2
     3    3    7 1
     4    4    5 1
     5    5    6 1
     6    6    7 ar
     7    7    8 ar
     8    8    9 ar
     9    9   10 ar
    10   10   11 ar
    11   11    6 ar
    12   12    9 1
    13   13   12 1
    14   14   13 1
    15   15   14 ar
    16   16   15 ar
    17   17    4 1
    18   18   17 ar
    19   19   14 ar
    20   20    4 1
    21   21    4 1
    22   22    5 1
    23   23    5 1
    24   24    8 1
    25   25   10 1
    26   26   11 1
    27   27   12 1
    28   28   12 1
    29   29   13 1
    30   30   13 1
    31   31   15 1
    32   32   16 1
    33   33   18 1
    34   34   19 1
    35   16   17 ar
    36   18   19 ar
@<TRIPOS>SUBSTRUCTURE
     1 RES1 1

@<TRIPOS>CRYSIN
  14.3470    7.3942   11.5916  90.0000  91.3430  90.0000   9 1

