# MOL2 file generated by ConQuest
# Please check atom types

@<TRIPOS>MOLECULE
JAKQUI
    67    71     1
SMALL
NO_CHARGES
****
Generated from CSD

@<TRIPOS>ATOM
      1 O1         4.7124    3.3925    2.3476 O.3       1 RES1    0.0000
      2 N1         5.6331    2.3692    2.8499 N.3       1 RES1    0.0000
      3 C1         5.3677    1.1432    2.1841 C.ar      1 RES1    0.0000
      4 C2         6.3757    0.2003    1.9568 C.ar      1 RES1    0.0000
      5 C3         6.0702   -1.0370    1.3975 C.ar      1 RES1    0.0000
      6 C4         4.7707   -1.3548    1.0495 C.ar      1 RES1    0.0000
      7 C5         3.7624   -0.4207    1.2617 C.ar      1 RES1    0.0000
      8 C6         4.0475    0.8133    1.8379 C.ar      1 RES1    0.0000
      9 C7         2.9542    1.8230    2.0485 C.3       1 RES1    0.0000
     10 C8         2.4559    2.4392    0.7332 C.3       1 RES1    0.0000
     11 C9         1.8703    3.8117    1.1268 C.3       1 RES1    0.0000
     12 N2         2.5070    4.0804    2.4214 N.am      1 RES1    0.0000
     13 C10        3.4147    3.0418    2.8348 C.3       1 RES1    0.0000
     14 C11        6.9540    2.9726    2.6694 C.3       1 RES1    0.0000
     15 O2         1.7606    1.2574    2.6579 O.3       1 RES1    0.0000
     16 C12        1.8204    0.7610    3.9107 C.2       1 RES1    0.0000
     17 O3         2.8169    0.6806    4.5829 O.2       1 RES1    0.0000
     18 C13        0.4600    0.3323    4.3567 C.ar      1 RES1    0.0000
     19 C14        0.1997    0.2301    5.7168 C.ar      1 RES1    0.0000
     20 C15       -1.0434   -0.2413    6.1050 C.ar      1 RES1    0.0000
     21 C16       -2.0121   -0.6549    5.2237 C.ar      1 RES1    0.0000
     22 C17       -1.7201   -0.4746    3.8844 C.ar      1 RES1    0.0000
     23 C18       -0.5246    0.0290    3.4205 C.ar      1 RES1    0.0000
     24 N3        -1.3719   -0.2631    7.5494 N.pl3     1 RES1    0.0000
     25 O4        -2.4043   -0.8278    7.8921 O.2       1 RES1    0.0000
     26 O5        -0.6050    0.2985    8.3101 O.2       1 RES1    0.0000
     27 N4        -2.7598   -0.7892    2.9023 N.pl3     1 RES1    0.0000
     28 O6        -2.8118   -0.0829    1.8944 O.2       1 RES1    0.0000
     29 O7        -3.5240   -1.7160    3.1357 O.2       1 RES1    0.0000
     30 C19        0.3516    3.7843    1.1625 C.2       1 RES1    0.0000
     31 O8        -0.3007    3.9774    0.1657 O.2       1 RES1    0.0000
     32 O9        -0.1617    3.4762    2.3472 O.3       1 RES1    0.0000
     33 C20       -1.6118    3.3821    2.3929 C.3       1 RES1    0.0000
     34 C21        2.2004    5.2018    3.1180 C.2       1 RES1    0.0000
     35 O10        1.3910    6.0136    2.7015 O.2       1 RES1    0.0000
     36 C22        2.8413    5.3668    4.4712 C.ar      1 RES1    0.0000
     37 C23        4.2134    5.5663    4.6375 C.ar      1 RES1    0.0000
     38 C24        4.6824    5.7344    5.9299 C.ar      1 RES1    0.0000
     39 C25        3.8960    5.6676    7.0551 C.ar      1 RES1    0.0000
     40 C26        2.5485    5.4649    6.8287 C.ar      1 RES1    0.0000
     41 C27        1.9914    5.3418    5.5705 C.ar      1 RES1    0.0000
     42 N5         6.1283    5.9572    6.1136 N.pl3     1 RES1    0.0000
     43 O11        6.4938    6.5453    7.1191 O.2       1 RES1    0.0000
     44 O12        6.8799    5.5590    5.2592 O.2       1 RES1    0.0000
     45 N6         1.6580    5.2903    7.9836 N.pl3     1 RES1    0.0000
     46 O13        0.4891    5.6427    7.8646 O.2       1 RES1    0.0000
     47 O14        2.1278    4.7763    8.9892 O.2       1 RES1    0.0000
     48 H1         7.3220    0.4167    2.1975 H         1 RES1    0.0000
     49 H2         6.8000   -1.7039    1.2453 H         1 RES1    0.0000
     50 H3         4.5584   -2.2461    0.6492 H         1 RES1    0.0000
     51 H4         2.8228   -0.6388    0.9982 H         1 RES1    0.0000
     52 H5         3.2127    2.5526    0.0894 H         1 RES1    0.0000
     53 H6         1.7514    1.8624    0.3197 H         1 RES1    0.0000
     54 H7         2.0585    4.5422    0.4705 H         1 RES1    0.0000
     55 H8         3.4366    2.8994    3.8240 H         1 RES1    0.0000
     56 H9         7.6577    2.3378    2.9891 H         1 RES1    0.0000
     57 H10        7.0080    3.8221    3.1943 H         1 RES1    0.0000
     58 H11        7.1011    3.1705    1.6991 H         1 RES1    0.0000
     59 H12        0.8884    0.4891    6.3942 H         1 RES1    0.0000
     60 H13       -2.8737   -1.0587    5.5314 H         1 RES1    0.0000
     61 H14       -0.3698    0.1730    2.4432 H         1 RES1    0.0000
     62 H15       -1.9014    3.1472    3.3214 H         1 RES1    0.0000
     63 H16       -2.0108    4.2606    2.1319 H         1 RES1    0.0000
     64 H17       -1.9198    2.6733    1.7577 H         1 RES1    0.0000
     65 H18        4.8344    5.5872    3.8533 H         1 RES1    0.0000
     66 H19        4.2743    5.7601    7.9760 H         1 RES1    0.0000
     67 H20        1.0034    5.2372    5.4546 H         1 RES1    0.0000
@<TRIPOS>BOND
     1    1    2 1
     2    2    3 1
     3    3    4 ar
     4    4    5 ar
     5    5    6 ar
     6    6    7 ar
     7    7    8 ar
     8    8    3 ar
     9    9    8 1
    10   10    9 1
    11   11   10 1
    12   12   11 1
    13   13    1 1
    14   14    2 1
    15   15    9 1
    16   16   15 1
    17   17   16 2
    18   18   16 1
    19   19   18 ar
    20   20   19 ar
    21   21   20 ar
    22   22   21 ar
    23   23   18 ar
    24   24   20 1
    25   25   24 2
    26   26   24 2
    27   27   22 1
    28   28   27 2
    29   29   27 2
    30   30   11 1
    31   31   30 2
    32   32   30 1
    33   33   32 1
    34   34   12 1
    35   35   34 2
    36   36   34 1
    37   37   36 ar
    38   38   37 ar
    39   39   38 ar
    40   40   39 ar
    41   41   36 ar
    42   42   38 1
    43   43   42 2
    44   44   42 2
    45   45   40 1
    46   46   45 2
    47   47   45 2
    48   48    4 1
    49   49    5 1
    50   50    6 1
    51   51    7 1
    52   52   10 1
    53   53   10 1
    54   54   11 1
    55   55   13 1
    56   56   14 1
    57   57   14 1
    58   58   14 1
    59   59   19 1
    60   60   21 1
    61   61   23 1
    62   62   33 1
    63   63   33 1
    64   64   33 1
    65   65   37 1
    66   66   39 1
    67   67   41 1
    68    9   13 1
    69   12   13 1
    70   22   23 ar
    71   40   41 ar
@<TRIPOS>SUBSTRUCTURE
     1 RES1 1

@<TRIPOS>CRYSIN
  12.4739    8.0449   14.3256  90.0000 102.9509  90.0000   4 1

