# MOL2 file generated by ConQuest
# Please check atom types

@<TRIPOS>MOLECULE
JALJOY
    21    21     1
SMALL
NO_CHARGES
****
Generated from CSD

@<TRIPOS>ATOM
      1 O1         6.6414    5.9935    4.8093 O.2       1 RES1    0.0000
      2 O2         8.3642    5.2752    5.9245 O.2       1 RES1    0.0000
      3 O3         6.3559   -0.7256    4.4898 O.2       1 RES1    0.0000
      4 O4         8.1361   -0.2270    5.7843 O.3       1 RES1    0.0000
      5 N1         7.3396    5.0784    5.2591 N.pl3     1 RES1    0.0000
      6 N2         5.7818    2.0280    4.2884 N.3       1 RES1    0.0000
      7 C1         5.8069    3.3585    4.3183 C.2       1 RES1    0.0000
      8 H1         5.1638    3.9436    3.9354 H         1 RES1    0.0000
      9 C2         6.9442    3.7312    5.0107 C.2       1 RES1    0.0000
     10 C3         7.6323    2.5735    5.4149 C.2       1 RES1    0.0000
     11 H2         8.4446    2.5277    5.9067 H         1 RES1    0.0000
     12 C4         6.8831    1.5252    4.9488 C.2       1 RES1    0.0000
     13 C5         7.0870    0.0875    5.0441 C.2       1 RES1    0.0000
     14 C6         8.4082   -1.6616    5.8789 C.3       1 RES1    0.0000
     15 H3         8.4741   -2.0593    4.9751 H         1 RES1    0.0000
     16 H4         7.6814   -2.1176    6.3721 H         1 RES1    0.0000
     17 C7         9.7116   -1.8104    6.6119 C.3       1 RES1    0.0000
     18 H5        10.4202   -1.3513    6.1145 H         1 RES1    0.0000
     19 H6         9.9325   -2.7620    6.6937 H         1 RES1    0.0000
     20 H7         9.6305   -1.4159    7.5050 H         1 RES1    0.0000
     21 H8         5.2005    1.4887    3.8856 H         1 RES1    0.0000
@<TRIPOS>BOND
     1    1    5 2
     2    2    5 2
     3    3   13 2
     4    4   13 1
     5    5    9 1
     6    6    7 1
     7    7    8 1
     8    9    7 2
     9   10    9 1
    10   11   10 1
    11   12    6 1
    12   13   12 1
    13   14    4 1
    14   15   14 1
    15   16   14 1
    16   17   14 1
    17   18   17 1
    18   19   17 1
    19   20   17 1
    20   21    6 1
    21   10   12 2
@<TRIPOS>SUBSTRUCTURE
     1 RES1 1

@<TRIPOS>CRYSIN
  11.0318   10.4108    7.1659  90.0000  96.7340  90.0000  14 1

