# MOL2 file generated by ConQuest
# Please check atom types

@<TRIPOS>MOLECULE
JALJUE
    32    32     1
SMALL
NO_CHARGES
****
Generated from CSD

@<TRIPOS>ATOM
      1 O1         4.5477   -1.4291    2.9178 O.2       1 RES1    0.0000
      2 O2         3.9207   -1.6457    5.0686 O.3       1 RES1    0.0000
      3 O3         5.0665    2.9176    7.7058 O.2       1 RES1    0.0000
      4 O4         6.2997    4.1262    6.4091 O.2       1 RES1    0.0000
      5 N1         5.7397    1.1469    3.6731 N.3       1 RES1    0.0000
      6 N2         5.6299    3.1158    6.6379 N.pl3     1 RES1    0.0000
      7 C1         4.9662    0.3179    4.4817 C.2       1 RES1    0.0000
      8 C2         4.8097    0.9235    5.7029 C.2       1 RES1    0.0000
      9 H1         4.3326    0.5893    6.4529 H         1 RES1    0.0000
     10 C3         5.5004    2.1386    5.6128 C.2       1 RES1    0.0000
     11 C4         6.0597    2.2536    4.3614 C.2       1 RES1    0.0000
     12 H2         6.5780    2.9835    4.0427 H         1 RES1    0.0000
     13 C5         4.4708   -0.9887    4.0384 C.2       1 RES1    0.0000
     14 C6         3.4323   -2.9793    4.7697 C.3       1 RES1    0.0000
     15 H3         4.1721   -3.5534    4.4479 H         1 RES1    0.0000
     16 H4         2.7342   -2.9415    4.0684 H         1 RES1    0.0000
     17 C7         2.8623   -3.5287    6.0466 C.3       1 RES1    0.0000
     18 H5         3.5632   -3.5598    6.7306 H         1 RES1    0.0000
     19 H6         2.5191   -4.4332    5.8887 H         1 RES1    0.0000
     20 H7         2.1325   -2.9512    6.3541 H         1 RES1    0.0000
     21 C8         6.1954    0.9055    2.2958 C.3       1 RES1    0.0000
     22 H8         6.3849   -0.0597    2.1790 H         1 RES1    0.0000
     23 H9         7.0371    1.4029    2.1385 H         1 RES1    0.0000
     24 C9         5.1617    1.3382    1.2758 C.3       1 RES1    0.0000
     25 H10        4.9532    2.2973    1.4062 H         1 RES1    0.0000
     26 H11        4.3283    0.8217    1.4141 H         1 RES1    0.0000
     27 C10        5.6654    1.1170   -0.1559 C.3       1 RES1    0.0000
     28 H12        4.9520    1.3755   -0.7915 H         1 RES1    0.0000
     29 H13        6.4439    1.7065   -0.3192 H         1 RES1    0.0000
     30 C11        6.0551   -0.2706   -0.4150 C.1       1 RES1    0.0000
     31 C12        6.3688   -1.3926   -0.5781 C.1       1 RES1    0.0000
     32 H14        6.6219   -2.2989   -0.7095 H         1 RES1    0.0000
@<TRIPOS>BOND
     1    1   13 2
     2    2   13 1
     3    3    6 2
     4    4    6 2
     5    5    7 1
     6    6   10 1
     7    7    8 2
     8    8    9 1
     9   10    8 1
    10   11    5 1
    11   12   11 1
    12   13    7 1
    13   14    2 1
    14   15   14 1
    15   16   14 1
    16   17   14 1
    17   18   17 1
    18   19   17 1
    19   20   17 1
    20   21    5 1
    21   22   21 1
    22   23   21 1
    23   24   21 1
    24   25   24 1
    25   26   24 1
    26   27   24 1
    27   28   27 1
    28   29   27 1
    29   30   27 1
    30   31   30 3
    31   32   31 1
    32   10   11 2
@<TRIPOS>SUBSTRUCTURE
     1 RES1 1

@<TRIPOS>CRYSIN
   7.8839   16.1443   10.2058  90.0000 104.4720  90.0000  14 1

