# MOL2 file generated by ConQuest
# Please check atom types

@<TRIPOS>MOLECULE
JALKAL
    48    48     1
SMALL
NO_CHARGES
****
Generated from CSD

@<TRIPOS>ATOM
      1 O1         7.5538   11.5500    3.3658 O.2       1 RES1    0.0000
      2 O2         7.5598    9.3787    3.2634 O.2       1 RES1    0.0000
      3 O3        11.9451    9.6609   -1.4242 O.2       1 RES1    0.0000
      4 N1        10.5842   11.3062    0.6117 N.3       1 RES1    0.0000
      5 N2         7.9952   10.4867    2.9257 N.pl3     1 RES1    0.0000
      6 N3        11.8966    7.9791    0.1043 N.am      1 RES1    0.0000
      7 H1        11.6975    7.7908    0.9693 H         1 RES1    0.0000
      8 N4        16.0657    6.4154    0.8236 N.3       1 RES1    0.0000
      9 C1         9.6415   11.6783    1.5032 C.2       1 RES1    0.0000
     10 H2         9.4196   12.5681    1.7518 H         1 RES1    0.0000
     11 C2         9.0619   10.5238    1.9835 C.2       1 RES1    0.0000
     12 C3         9.6674    9.4123    1.3754 C.2       1 RES1    0.0000
     13 H3         9.4563    8.4970    1.5163 H         1 RES1    0.0000
     14 C4        10.6237    9.9212    0.5379 C.2       1 RES1    0.0000
     15 C5        11.5202   12.2456   -0.0236 C.3       1 RES1    0.0000
     16 H4        11.1419   13.1606    0.0070 H         1 RES1    0.0000
     17 H5        11.6449   11.9961   -0.9736 H         1 RES1    0.0000
     18 C6        12.8653   12.2260    0.6892 C.3       1 RES1    0.0000
     19 H6        13.2196   11.3024    0.6761 H         1 RES1    0.0000
     20 H7        12.7278   12.4817    1.6358 H         1 RES1    0.0000
     21 C7        13.9008   13.1590    0.0742 C.3       1 RES1    0.0000
     22 H8        14.0213   12.9013   -0.8846 H         1 RES1    0.0000
     23 C8        13.4634   14.6139    0.1213 C.3       1 RES1    0.0000
     24 H9        12.6695   14.7344   -0.4397 H         1 RES1    0.0000
     25 H10       14.1884   15.1836   -0.2111 H         1 RES1    0.0000
     26 H11       13.2519   14.8607    1.0452 H         1 RES1    0.0000
     27 C9        15.2451   12.9764    0.7913 C.3       1 RES1    0.0000
     28 H12       15.9292   13.5211    0.3472 H         1 RES1    0.0000
     29 H13       15.5065   12.0325    0.7581 H         1 RES1    0.0000
     30 H14       15.1586   13.2584    1.7256 H         1 RES1    0.0000
     31 C10       11.5547    9.1903   -0.3504 C.2       1 RES1    0.0000
     32 C11       12.6446    7.0302   -0.7075 C.3       1 RES1    0.0000
     33 H15       12.4114    7.1745   -1.6585 H         1 RES1    0.0000
     34 H16       12.3594    6.1135   -0.4659 H         1 RES1    0.0000
     35 C12       14.1497    7.1242   -0.5575 C.3       1 RES1    0.0000
     36 H17       14.5744    6.5138   -1.2118 H         1 RES1    0.0000
     37 H18       14.4357    8.0467   -0.7773 H         1 RES1    0.0000
     38 C13       14.6484    6.7773    0.8262 C.3       1 RES1    0.0000
     39 H19       14.5105    7.5531    1.4255 H         1 RES1    0.0000
     40 H20       14.1204    6.0202    1.1821 H         1 RES1    0.0000
     41 C14       16.4499    5.8224    2.0929 C.3       1 RES1    0.0000
     42 H21       16.2878    6.4637    2.8162 H         1 RES1    0.0000
     43 H22       17.4009    5.5904    2.0702 H         1 RES1    0.0000
     44 H23       15.9200    5.0127    2.2491 H         1 RES1    0.0000
     45 C15       16.9221    7.5384    0.5269 C.3       1 RES1    0.0000
     46 H24       16.7179    7.8772   -0.3699 H         1 RES1    0.0000
     47 H25       17.8598    7.2529    0.5627 H         1 RES1    0.0000
     48 H26       16.7705    8.2480    1.1856 H         1 RES1    0.0000
@<TRIPOS>BOND
     1    1    5 2
     2    2    5 2
     3    3   31 2
     4    4    9 1
     5    5   11 1
     6    6    7 1
     7    8   38 1
     8    9   10 1
     9   11    9 2
    10   12   11 1
    11   13   12 1
    12   14    4 1
    13   15    4 1
    14   16   15 1
    15   17   15 1
    16   18   15 1
    17   19   18 1
    18   20   18 1
    19   21   18 1
    20   22   21 1
    21   23   21 1
    22   24   23 1
    23   25   23 1
    24   26   23 1
    25   27   21 1
    26   28   27 1
    27   29   27 1
    28   30   27 1
    29   31    6 1
    30   32    6 1
    31   33   32 1
    32   34   32 1
    33   35   32 1
    34   36   35 1
    35   37   35 1
    36   38   35 1
    37   39   38 1
    38   40   38 1
    39   41    8 1
    40   42   41 1
    41   43   41 1
    42   44   41 1
    43   45    8 1
    44   46   45 1
    45   47   45 1
    46   48   45 1
    47   12   14 2
    48   14   31 1
@<TRIPOS>SUBSTRUCTURE
     1 RES1 1

@<TRIPOS>CRYSIN
  17.5744   11.3718    8.7299  90.0000  92.0760  90.0000  14 1

