# MOL2 file generated by ConQuest
# Please check atom types

@<TRIPOS>MOLECULE
JAMGEJ
    35    36     1
SMALL
NO_CHARGES
****
Generated from CSD

@<TRIPOS>ATOM
      1 O1         1.6528    1.0267    6.5044 O.3       1 RES1    0.0000
      2 O2         5.1938   -1.7789    7.5554 O.2       1 RES1    0.0000
      3 O3         5.3326    0.4070    7.9053 O.3       1 RES1    0.0000
      4 N1         2.9609    0.7545    6.9479 N.2       1 RES1    0.0000
      5 C1         3.2871   -0.4707    7.0772 C.2       1 RES1    0.0000
      6 C2         2.4901   -1.6971    6.7703 C.3       1 RES1    0.0000
      7 C3         1.2431   -1.2737    5.9747 C.3       1 RES1    0.0000
      8 C4         0.6508   -0.0234    6.6169 C.3       1 RES1    0.0000
      9 C5         0.2606   -0.2026    8.0830 C.ar      1 RES1    0.0000
     10 C6        -0.4693   -1.3146    8.4750 C.ar      1 RES1    0.0000
     11 C7        -0.8751   -1.4436    9.8107 C.ar      1 RES1    0.0000
     12 C8        -0.5679   -0.4789   10.7430 C.ar      1 RES1    0.0000
     13 C9         0.1588    0.5974   10.3541 C.ar      1 RES1    0.0000
     14 C10        0.5750    0.7516    9.0246 C.ar      1 RES1    0.0000
     15 C11       -0.5071    0.5256    5.8003 C.3       1 RES1    0.0000
     16 C12        4.6889   -0.6751    7.5312 C.2       1 RES1    0.0000
     17 C13        6.7119    0.2429    8.3068 C.3       1 RES1    0.0000
     18 C14        7.2366    1.5254    8.7114 C.3       1 RES1    0.0000
     19 H1         3.0839   -2.3810    6.1828 H         1 RES1    0.0000
     20 H2         2.1908   -2.1783    7.6899 H         1 RES1    0.0000
     21 H3         0.5141   -2.0697    5.9905 H         1 RES1    0.0000
     22 H4         1.5201   -1.0605    4.9521 H         1 RES1    0.0000
     23 H5        -0.7259   -2.0767    7.7551 H         1 RES1    0.0000
     24 H6        -1.4362   -2.3138   10.1134 H         1 RES1    0.0000
     25 H7        -0.9000   -0.5776   11.7655 H         1 RES1    0.0000
     26 H8         0.4219    1.3496   11.0824 H         1 RES1    0.0000
     27 H9         1.1446    1.6229    8.7367 H         1 RES1    0.0000
     28 H10       -1.2346   -0.2716    5.7824 H         1 RES1    0.0000
     29 H11       -0.2222    0.7756    4.7882 H         1 RES1    0.0000
     30 H12       -0.9363    1.3934    6.2774 H         1 RES1    0.0000
     31 H13        7.2883   -0.1384    7.4766 H         1 RES1    0.0000
     32 H14        6.7703   -0.4497    9.1329 H         1 RES1    0.0000
     33 H15        8.2356    1.3403    9.0751 H         1 RES1    0.0000
     34 H16        6.6953    2.1205    9.4324 H         1 RES1    0.0000
     35 H17        7.2868    2.0551    7.7719 H         1 RES1    0.0000
@<TRIPOS>BOND
     1    1    4 1
     2    2   16 2
     3    3   16 1
     4    4    5 2
     5    5    6 1
     6    6    7 1
     7    7    8 1
     8    8    1 1
     9    9    8 1
    10   10    9 ar
    11   11   10 ar
    12   12   11 ar
    13   13   12 ar
    14   14    9 ar
    15   15    8 1
    16   16    5 1
    17   17    3 1
    18   18   17 1
    19   19    6 1
    20   20    6 1
    21   21    7 1
    22   22    7 1
    23   23   10 1
    24   24   11 1
    25   25   12 1
    26   26   13 1
    27   27   14 1
    28   28   15 1
    29   29   15 1
    30   30   15 1
    31   31   17 1
    32   32   17 1
    33   33   18 1
    34   34   18 1
    35   35   18 1
    36   13   14 ar
@<TRIPOS>SUBSTRUCTURE
     1 RES1 1

@<TRIPOS>CRYSIN
  10.5900    5.8400   11.1700  90.0000 109.8000  90.0000   4 1

