# MOL2 file generated by ConQuest
# Please check atom types

@<TRIPOS>MOLECULE
JAPNEU
    33    33     1
SMALL
NO_CHARGES
****
Generated from CSD

@<TRIPOS>ATOM
      1 O1        12.0870    3.3792    2.6850 O.2       1 RES1    0.0000
      2 O2        10.7939    4.0466    1.1044 O.2       1 RES1    0.0000
      3 O3         8.4230   -0.4185    8.6750 O.2       1 RES1    0.0000
      4 O4         7.6909    1.6629    8.3579 O.3       1 RES1    0.0000
      5 O5         3.9163    1.6336    6.4346 O.2       1 RES1    0.0000
      6 O6         4.9265    0.2511    7.8694 O.3       1 RES1    0.0000
      7 N1        10.9758    3.5413    2.1965 N.pl3     1 RES1    0.0000
      8 C1         6.2440    1.0881    6.1440 C.2       1 RES1    0.0000
      9 C2         6.3867    2.0057    5.1885 C.2       1 RES1    0.0000
     10 C3         7.5976    2.3740    4.4390 C.ar      1 RES1    0.0000
     11 C4         7.4487    2.8525    3.1337 C.ar      1 RES1    0.0000
     12 C5         8.5451    3.2303    2.3862 C.ar      1 RES1    0.0000
     13 C6         9.7959    3.1375    2.9665 C.ar      1 RES1    0.0000
     14 C7         9.9822    2.7152    4.2636 C.ar      1 RES1    0.0000
     15 C8         8.8796    2.3374    5.0009 C.ar      1 RES1    0.0000
     16 C9         7.2842    0.1107    6.6396 C.3       1 RES1    0.0000
     17 C10        7.8634    0.3957    8.0030 C.2       1 RES1    0.0000
     18 C11        8.1713    2.0221    9.6724 C.3       1 RES1    0.0000
     19 C12        4.8975    1.0343    6.7997 C.2       1 RES1    0.0000
     20 C13        3.7186    0.2354    8.6720 C.3       1 RES1    0.0000
     21 H1         9.1200    1.8832    9.7172 H         1 RES1    0.0000
     22 H2         5.5745    2.5019    4.9529 H         1 RES1    0.0000
     23 H3         2.9676    0.0138    8.1162 H         1 RES1    0.0000
     24 H4         6.5526    2.9197    2.7442 H         1 RES1    0.0000
     25 H5         8.4399    3.5560    1.4674 H         1 RES1    0.0000
     26 H6        10.8799    2.6830    4.6552 H         1 RES1    0.0000
     27 H7         8.9943    2.0412    5.9278 H         1 RES1    0.0000
     28 H8         6.8760   -0.7681    6.6682 H         1 RES1    0.0000
     29 H9         8.0159    0.1075    6.0023 H         1 RES1    0.0000
     30 H10        7.9768    2.9463    9.8467 H         1 RES1    0.0000
     31 H11        7.7327    1.4806   10.3332 H         1 RES1    0.0000
     32 H12        3.8005   -0.4184    9.3705 H         1 RES1    0.0000
     33 H13        3.5824    1.1034    9.0585 H         1 RES1    0.0000
@<TRIPOS>BOND
     1    1    7 2
     2    2    7 2
     3    3   17 2
     4    4   17 1
     5    5   19 2
     6    6   19 1
     7    7   13 1
     8    8    9 2
     9    9   10 1
    10   10   11 ar
    11   11   12 ar
    12   12   13 ar
    13   13   14 ar
    14   14   15 ar
    15   15   10 ar
    16   16    8 1
    17   17   16 1
    18   18    4 1
    19   19    8 1
    20   20    6 1
    21   21   18 1
    22   22    9 1
    23   23   20 1
    24   24   11 1
    25   25   12 1
    26   26   14 1
    27   27   15 1
    28   28   16 1
    29   29   16 1
    30   30   18 1
    31   31   18 1
    32   32   20 1
    33   33   20 1
@<TRIPOS>SUBSTRUCTURE
     1 RES1 1

@<TRIPOS>CRYSIN
   8.1360    8.5420   10.6270  84.9590  73.6710  69.3470   2 1

