# MOL2 file generated by ConQuest
# Please check atom types

@<TRIPOS>MOLECULE
JAPPAR
    31    32     1
SMALL
NO_CHARGES
****
Generated from CSD

@<TRIPOS>ATOM
      1 O1        -0.9576   -0.3317    4.2550 O.3       1 RES1    0.0000
      2 O2         1.2435   -4.2575   -0.9039 O.2       1 RES1    0.0000
      3 O3        -0.5302   -3.6077   -1.9391 O.2       1 RES1    0.0000
      4 O4        -1.8119    1.1500    2.6806 O.3       1 RES1    0.0000
      5 N1         0.2542   -3.5588   -1.0029 N.pl3     1 RES1    0.0000
      6 N2        -1.0618    0.6706    5.3368 N.3       1 RES1    0.0000
      7 C1        -0.4724   -0.6843    1.9946 C.ar      1 RES1    0.0000
      8 C2        -1.3406   -0.8293    0.9406 C.ar      1 RES1    0.0000
      9 C3        -2.3053    1.3957    5.0366 C.3       1 RES1    0.0000
     10 C4        -1.1181   -1.7745   -0.0434 C.ar      1 RES1    0.0000
     11 C5        -2.1181    2.0966    3.7147 C.3       1 RES1    0.0000
     12 C6        -0.0092   -2.5744    0.0723 C.ar      1 RES1    0.0000
     13 C7         0.8722   -2.4792    1.1218 C.ar      1 RES1    0.0000
     14 C8        -0.6902    0.3593    3.0542 C.3       1 RES1    0.0000
     15 C9         0.6363   -1.5212    2.0925 C.ar      1 RES1    0.0000
     16 C10       -1.1879   -0.1462    6.5499 C.3       1 RES1    0.0000
     17 C11        0.1433   -0.6938    6.9935 C.3       1 RES1    0.0000
     18 H1        -2.1575   -0.2376    0.9117 H         1 RES1    0.0000
     19 H2        -1.7353   -1.8376   -0.8339 H         1 RES1    0.0000
     20 H3         1.6366   -3.1085    1.1452 H         1 RES1    0.0000
     21 H4         1.2364   -1.4351    2.9019 H         1 RES1    0.0000
     22 H5         0.2188    0.9932    3.2243 H         1 RES1    0.0000
     23 H6        -2.3650    2.1493    5.8372 H         1 RES1    0.0000
     24 H7        -2.9105    2.5698    3.4912 H         1 RES1    0.0000
     25 H8        -1.8882   -0.8517    6.4153 H         1 RES1    0.0000
     26 H9         0.0326   -1.0785    7.7607 H         1 RES1    0.0000
     27 H10       -3.1782    0.7700    5.0478 H         1 RES1    0.0000
     28 H11       -1.3930    2.7182    3.7914 H         1 RES1    0.0000
     29 H12       -1.5377    0.5538    7.2381 H         1 RES1    0.0000
     30 H13        0.5775   -1.2803    6.2152 H         1 RES1    0.0000
     31 H14        0.7682   -0.0638    7.2047 H         1 RES1    0.0000
@<TRIPOS>BOND
     1    1    6 1
     2    2    5 2
     3    3    5 2
     4    4   11 1
     5    5   12 1
     6    6    9 1
     7    7    8 ar
     8    8   10 ar
     9    9   11 1
    10   10   12 ar
    11   11   24 1
    12   12   13 ar
    13   13   15 ar
    14   14    1 1
    15   15    7 ar
    16   16    6 1
    17   17   16 1
    18   18    8 1
    19   19   10 1
    20   20   13 1
    21   21   15 1
    22   22   14 1
    23   23    9 1
    24   25   16 1
    25   26   17 1
    26   27    9 1
    27   28   11 1
    28   29   16 1
    29   30   17 1
    30   31   17 1
    31    4   14 1
    32    7   14 1
@<TRIPOS>SUBSTRUCTURE
     1 RES1 1

@<TRIPOS>CRYSIN
   5.3830   10.9400   12.0740 103.0900 100.1600 117.5900   2 1

