# MOL2 file generated by ConQuest
# Please check atom types

@<TRIPOS>MOLECULE
JAPXIK
    37    39     1
SMALL
NO_CHARGES
****
Generated from CSD

@<TRIPOS>ATOM
      1 C1         7.2036    3.4909    6.0733 C.ar      1 RES1    0.0000
      2 C2         7.7699    2.4681    5.3436 C.ar      1 RES1    0.0000
      3 H1         7.2956    1.6807    5.2043 H         1 RES1    0.0000
      4 C3         9.0214    2.6077    4.8260 C.ar      1 RES1    0.0000
      5 H2         9.3948    1.9107    4.3352 H         1 RES1    0.0000
      6 C4         9.7449    3.7658    5.0180 C.ar      1 RES1    0.0000
      7 H3        10.6000    3.8515    4.6647 H         1 RES1    0.0000
      8 C5         9.1916    4.7772    5.7285 C.ar      1 RES1    0.0000
      9 H4         9.6749    5.5588    5.8705 H         1 RES1    0.0000
     10 C6         7.9236    4.6578    6.2400 C.ar      1 RES1    0.0000
     11 H5         7.5460    5.3702    6.7040 H         1 RES1    0.0000
     12 N1         5.9260    3.3460    6.5991 N.3       1 RES1    0.0000
     13 N2         5.3562    4.3546    7.3158 N.2       1 RES1    0.0000
     14 C7         4.1487    4.0347    7.6065 C.2       1 RES1    0.0000
     15 C8         3.7710    2.6697    7.0854 C.3       1 RES1    0.0000
     16 H6         3.0523    2.7259    6.4369 H         1 RES1    0.0000
     17 H7         3.5054    2.0774    7.8065 H         1 RES1    0.0000
     18 C9         5.0593    2.2110    6.4417 C.3       1 RES1    0.0000
     19 H8         5.4178    1.4318    6.8946 H         1 RES1    0.0000
     20 H9         4.9265    2.0005    5.5036 H         1 RES1    0.0000
     21 C10        3.3574    4.9457    8.3975 C.2       1 RES1    0.0000
     22 H10        3.8144    5.6687    8.7630 H         1 RES1    0.0000
     23 C11        2.0647    4.8837    8.6698 C.2       1 RES1    0.0000
     24 H11        1.7388    5.5257    9.2581 H         1 RES1    0.0000
     25 C12        1.0838    3.9224    8.1545 C.ar      1 RES1    0.0000
     26 C13        0.5332    2.9499    8.9619 C.ar      1 RES1    0.0000
     27 H12        0.7952    2.8991    9.8530 H         1 RES1    0.0000
     28 C14       -0.3823    2.0632    8.4890 C.ar      1 RES1    0.0000
     29 H13       -0.7412    1.4123    9.0479 H         1 RES1    0.0000
     30 C15       -0.7672    2.1412    7.1806 C.ar      1 RES1    0.0000
     31 C16       -0.2901    3.0835    6.3635 C.ar      1 RES1    0.0000
     32 H14       -0.5767    3.1344    5.4804 H         1 RES1    0.0000
     33 C17        0.6400    3.9833    6.8595 C.ar      1 RES1    0.0000
     34 H15        0.9714    4.6460    6.2979 H         1 RES1    0.0000
     35 N3        -1.7317    1.1770    6.6579 N.pl3     1 RES1    0.0000
     36 O1        -2.0106    1.1942    5.4991 O.2       1 RES1    0.0000
     37 O2        -2.3114    0.4410    7.4460 O.2       1 RES1    0.0000
@<TRIPOS>BOND
     1    1    2 ar
     2    2    3 1
     3    4    2 ar
     4    5    4 1
     5    6    4 ar
     6    7    6 1
     7    8    6 ar
     8    9    8 1
     9   10    1 ar
    10   11   10 1
    11   12    1 1
    12   13   12 1
    13   14   13 2
    14   15   14 1
    15   16   15 1
    16   17   15 1
    17   18   12 1
    18   19   18 1
    19   20   18 1
    20   21   14 1
    21   22   21 1
    22   23   21 2
    23   24   23 1
    24   25   23 1
    25   26   25 ar
    26   27   26 1
    27   28   26 ar
    28   29   28 1
    29   30   28 ar
    30   31   30 ar
    31   32   31 1
    32   33   25 ar
    33   34   33 1
    34   35   30 1
    35   36   35 2
    36   37   35 2
    37    8   10 ar
    38   15   18 1
    39   31   33 ar
@<TRIPOS>SUBSTRUCTURE
     1 RES1 1

@<TRIPOS>CRYSIN
  14.1516    5.9117   18.1609  90.0000 101.2670  90.0000  14 1

