# MOL2 file generated by ConQuest
# Please check atom types

@<TRIPOS>MOLECULE
JAQTOK
    32    35     1
SMALL
NO_CHARGES
****
Generated from CSD

@<TRIPOS>ATOM
      1 O1         0.5378   -4.3168   12.2970 O.2       1 RES1    0.0000
      2 N1        -1.7208   -0.8113   10.0094 N.ar      1 RES1    0.0000
      3 N2        -0.7325   -0.4610    9.1387 N.ar      1 RES1    0.0000
      4 C1         0.4207   -1.1523    9.0950 C.ar      1 RES1    0.0000
      5 C2         0.7209   -2.1852    9.9807 C.ar      1 RES1    0.0000
      6 C3        -0.2567   -2.4975   10.8834 C.ar      1 RES1    0.0000
      7 C4        -0.3387   -3.5611   11.9457 C.2       1 RES1    0.0000
      8 C5        -1.7347   -3.4392   12.4790 C.ar      1 RES1    0.0000
      9 C6        -2.3270   -4.1886   13.4818 C.ar      1 RES1    0.0000
     10 C7        -3.6551   -3.9145   13.7692 C.ar      1 RES1    0.0000
     11 C8        -4.3344   -2.9110   13.0996 C.ar      1 RES1    0.0000
     12 C9        -3.7161   -2.1599   12.1288 C.ar      1 RES1    0.0000
     13 C10       -2.3954   -2.4081   11.8127 C.ar      1 RES1    0.0000
     14 C11       -1.4616   -1.8365   10.8536 C.ar      1 RES1    0.0000
     15 C12        1.3753   -0.6969    8.0752 C.ar      1 RES1    0.0000
     16 C13        1.0230   -0.0815    6.8479 C.ar      1 RES1    0.0000
     17 C14        1.9311    0.3720    5.9814 C.ar      1 RES1    0.0000
     18 C15        3.2779    0.1784    6.2017 C.ar      1 RES1    0.0000
     19 C16        3.6795   -0.4426    7.3365 C.ar      1 RES1    0.0000
     20 C17        2.7541   -0.8918    8.2775 C.ar      1 RES1    0.0000
     21 N3        -0.4065    0.0576    6.4838 N.pl3     1 RES1    0.0000
     22 O2        -1.0539   -0.9540    6.3412 O.2       1 RES1    0.0000
     23 O3        -0.8242    1.1675    6.3039 O.2       1 RES1    0.0000
     24 H1         1.5353   -2.6339    9.9583 H         1 RES1    0.0000
     25 H2        -1.8561   -4.8449   13.9417 H         1 RES1    0.0000
     26 H3        -4.0957   -4.4112   14.4196 H         1 RES1    0.0000
     27 H4        -5.2244   -2.7432   13.3115 H         1 RES1    0.0000
     28 H5        -4.1850   -1.4887   11.6881 H         1 RES1    0.0000
     29 H6         1.6502    0.8250    5.2192 H         1 RES1    0.0000
     30 H7         3.9037    0.4709    5.5779 H         1 RES1    0.0000
     31 H8         4.5868   -0.5713    7.4908 H         1 RES1    0.0000
     32 H9         3.0513   -1.3246    9.0450 H         1 RES1    0.0000
@<TRIPOS>BOND
     1    1    7 2
     2    2    3 ar
     3    3    4 ar
     4    4    5 ar
     5    5    6 ar
     6    6    7 1
     7    7    8 1
     8    8    9 ar
     9    9   10 ar
    10   10   11 ar
    11   11   12 ar
    12   12   13 ar
    13   13    8 ar
    14   14    2 ar
    15   15    4 1
    16   16   15 ar
    17   17   16 ar
    18   18   17 ar
    19   19   18 ar
    20   20   15 ar
    21   21   16 1
    22   22   21 2
    23   23   21 2
    24   24    5 1
    25   25    9 1
    26   26   10 1
    27   27   11 1
    28   28   12 1
    29   29   17 1
    30   30   18 1
    31   31   19 1
    32   32   20 1
    33    6   14 ar
    34   13   14 1
    35   19   20 ar
@<TRIPOS>SUBSTRUCTURE
     1 RES1 1

@<TRIPOS>CRYSIN
   7.8880    8.9730   11.5650 105.0800  99.5700 113.1000   2 1

