# MOL2 file generated by ConQuest
# Please check atom types

@<TRIPOS>MOLECULE
JAQWUT
    38    39     1
SMALL
NO_CHARGES
****
Generated from CSD

@<TRIPOS>ATOM
      1 O1         3.9034    0.8950    2.8699 O.2       1 RES1    0.0000
      2 O2         5.8730   -3.3718    6.0668 O.2       1 RES1    0.0000
      3 O3         3.7162   -3.3807    5.5827 O.3       1 RES1    0.0000
      4 O4         5.1512   -1.0201    8.0649 O.2       1 RES1    0.0000
      5 O5         7.2698   -0.7737    7.9144 O.2       1 RES1    0.0000
      6 O6         4.9242    1.4350    6.3549 O.3       1 RES1    0.0000
      7 O7         7.1834    1.4937    6.1286 O.3       1 RES1    0.0000
      8 N1         6.1604   -0.8401    7.4335 N.pl3     1 RES1    0.0000
      9 C1         4.7339    0.3575    3.5597 C.2       1 RES1    0.0000
     10 C2         4.6629   -1.1171    3.8532 C.3       1 RES1    0.0000
     11 C3         4.8202   -1.3329    5.3813 C.3       1 RES1    0.0000
     12 C4         6.0600   -0.6243    5.9434 C.3       1 RES1    0.0000
     13 C5         5.9970    0.8720    5.6564 C.3       1 RES1    0.0000
     14 C6         5.8925    1.1056    4.1510 C.3       1 RES1    0.0000
     15 C7         5.7578   -1.8691    3.0572 C.3       1 RES1    0.0000
     16 C8         5.7331   -1.5142    1.5898 C.2       1 RES1    0.0000
     17 C9         6.6781   -0.9116    0.9433 C.2       1 RES1    0.0000
     18 C10        4.8936   -2.8126    5.7192 C.2       1 RES1    0.0000
     19 C11        3.6855   -4.7966    5.8383 C.3       1 RES1    0.0000
     20 C12        5.3387    2.7551    6.7220 C.3       1 RES1    0.0000
     21 C13        6.8267    2.6045    6.9549 C.3       1 RES1    0.0000
     22 H1         3.8194   -1.4657    3.5836 H         1 RES1    0.0000
     23 H2         4.0593   -0.9333    5.7874 H         1 RES1    0.0000
     24 H3         6.8216   -1.0048    5.5232 H         1 RES1    0.0000
     25 H4         5.7702    2.0363    4.0016 H         1 RES1    0.0000
     26 H5         6.6970    0.8209    3.7319 H         1 RES1    0.0000
     27 H6         5.5907   -2.8024    3.1244 H         1 RES1    0.0000
     28 H7         6.6111   -1.6712    3.4298 H         1 RES1    0.0000
     29 H8         4.9473   -1.7363    1.1025 H         1 RES1    0.0000
     30 H9         6.5445   -0.7290    0.0195 H         1 RES1    0.0000
     31 H10        7.4924   -0.6588    1.3656 H         1 RES1    0.0000
     32 H11        2.8026   -5.1298    5.7235 H         1 RES1    0.0000
     33 H12        4.2721   -5.2370    5.2351 H         1 RES1    0.0000
     34 H13        3.9717   -4.9549    6.7307 H         1 RES1    0.0000
     35 H14        4.8989    3.0347    7.5158 H         1 RES1    0.0000
     36 H15        5.1636    3.3794    6.0268 H         1 RES1    0.0000
     37 H16        7.2943    3.3845    6.6841 H         1 RES1    0.0000
     38 H17        7.0135    2.4257    7.8700 H         1 RES1    0.0000
@<TRIPOS>BOND
     1    1    9 2
     2    2   18 2
     3    3   18 1
     4    4    8 2
     5    5    8 2
     6    6   13 1
     7    7   13 1
     8    8   12 1
     9    9   10 1
    10   10   11 1
    11   11   12 1
    12   12   13 1
    13   13   14 1
    14   14    9 1
    15   15   10 1
    16   16   15 1
    17   17   16 2
    18   18   11 1
    19   19    3 1
    20   20    6 1
    21   21    7 1
    22   22   10 1
    23   23   11 1
    24   24   12 1
    25   25   14 1
    26   26   14 1
    27   27   15 1
    28   28   15 1
    29   29   16 1
    30   30   17 1
    31   31   17 1
    32   32   19 1
    33   33   19 1
    34   34   19 1
    35   35   20 1
    36   36   20 1
    37   37   21 1
    38   38   21 1
    39   20   21 1
@<TRIPOS>SUBSTRUCTURE
     1 RES1 1

@<TRIPOS>CRYSIN
  10.3530   12.7670   11.6960  90.0000 112.1900  90.0000 231 1

