# MOL2 file generated by ConQuest
# Please check atom types

@<TRIPOS>MOLECULE
JARDUE
    38    40     1
SMALL
NO_CHARGES
****
Generated from CSD

@<TRIPOS>ATOM
      1 O1        11.8770    0.4319   -0.3144 O.3       1 RES1    0.0000
      2 O2        11.9370    2.1410   -1.7729 O.2       1 RES1    0.0000
      3 N1        10.5406    0.8454    0.0431 N.2       1 RES1    0.0000
      4 C1        10.1932    0.2349    1.1173 C.2       1 RES1    0.0000
      5 C2        12.4447    1.1801   -1.2768 C.2       1 RES1    0.0000
      6 C3        11.0316   -0.7428    1.8606 C.ar      1 RES1    0.0000
      7 C4        11.4619   -1.9187    1.2701 C.ar      1 RES1    0.0000
      8 H1        11.2489   -2.0991    0.3825 H         1 RES1    0.0000
      9 C5        12.2060   -2.8205    1.9980 C.ar      1 RES1    0.0000
     10 H2        12.4854   -3.6150    1.6023 H         1 RES1    0.0000
     11 C6        12.5389   -2.5559    3.3053 C.ar      1 RES1    0.0000
     12 H3        13.0420   -3.1688    3.7910 H         1 RES1    0.0000
     13 C7        12.1293   -1.3895    3.8900 C.ar      1 RES1    0.0000
     14 H4        12.3647   -1.2050    4.7700 H         1 RES1    0.0000
     15 C8        11.3707   -0.4895    3.1801 C.ar      1 RES1    0.0000
     16 H5        11.0831    0.2949    3.5889 H         1 RES1    0.0000
     17 C9         8.8549    0.5832    1.6472 C.ar      1 RES1    0.0000
     18 C10        8.1715   -0.3091    2.4436 C.ar      1 RES1    0.0000
     19 H6         8.5624   -1.1237    2.6655 H         1 RES1    0.0000
     20 C11        6.9077   -0.0018    2.9156 C.ar      1 RES1    0.0000
     21 H7         6.4524   -0.6058    3.4574 H         1 RES1    0.0000
     22 C12        6.3293    1.1925    2.5831 C.ar      1 RES1    0.0000
     23 H8         5.4732    1.3907    2.8879 H         1 RES1    0.0000
     24 C13        6.9996    2.0967    1.8079 C.ar      1 RES1    0.0000
     25 H9         6.6077    2.9131    1.5956 H         1 RES1    0.0000
     26 C14        8.2513    1.7924    1.3469 C.ar      1 RES1    0.0000
     27 H10        8.7056    2.4100    0.8206 H         1 RES1    0.0000
     28 C15       13.7975    0.6681   -1.6042 C.ar      1 RES1    0.0000
     29 C16       14.6274    1.4583   -2.3698 C.ar      1 RES1    0.0000
     30 H11       14.3248    2.2848   -2.6706 H         1 RES1    0.0000
     31 C17       15.8917    1.0424   -2.6943 C.ar      1 RES1    0.0000
     32 H12       16.4377    1.5806   -3.2199 H         1 RES1    0.0000
     33 C18       16.3480   -0.1638   -2.2440 C.ar      1 RES1    0.0000
     34 H13       17.2133   -0.4355   -2.4482 H         1 RES1    0.0000
     35 C19       15.5401   -0.9736   -1.4964 C.ar      1 RES1    0.0000
     36 H14       15.8495   -1.8036   -1.2131 H         1 RES1    0.0000
     37 C20       14.2620   -0.5601   -1.1589 C.ar      1 RES1    0.0000
     38 H15       13.7175   -1.1041   -0.6369 H         1 RES1    0.0000
@<TRIPOS>BOND
     1    1    3 1
     2    2    5 2
     3    3    4 2
     4    4    6 1
     5    5    1 1
     6    6    7 ar
     7    7    8 1
     8    9    7 ar
     9   10    9 1
    10   11    9 ar
    11   12   11 1
    12   13   11 ar
    13   14   13 1
    14   15    6 ar
    15   16   15 1
    16   17    4 1
    17   18   17 ar
    18   19   18 1
    19   20   18 ar
    20   21   20 1
    21   22   20 ar
    22   23   22 1
    23   24   22 ar
    24   25   24 1
    25   26   17 ar
    26   27   26 1
    27   28    5 1
    28   29   28 ar
    29   30   29 1
    30   31   29 ar
    31   32   31 1
    32   33   31 ar
    33   34   33 1
    34   35   33 ar
    35   36   35 1
    36   37   28 ar
    37   38   37 1
    38   13   15 ar
    39   24   26 ar
    40   35   37 ar
@<TRIPOS>SUBSTRUCTURE
     1 RES1 1

@<TRIPOS>CRYSIN
  15.8310    5.9330   16.8790  90.0000  93.4110  90.0000  14 1

