# MOL2 file generated by ConQuest
# Please check atom types

@<TRIPOS>MOLECULE
JASHAN
    32    33     1
SMALL
NO_CHARGES
****
Generated from CSD

@<TRIPOS>ATOM
      1 O1         1.9902    4.9348    2.0055 O.2       1 RES1    0.0000
      2 O2         1.6860    2.9888    1.0753 O.3       1 RES1    0.0000
      3 O3         1.6357    3.1528    5.6813 O.3       1 RES1    0.0000
      4 N1         1.7816    3.8536    4.4869 N.2       1 RES1    0.0000
      5 C1         1.3849    1.5337    1.1708 C.3       1 RES1    0.0000
      6 C2         1.7933    3.7569    2.1540 C.2       1 RES1    0.0000
      7 C3         1.6598    3.0852    3.4718 C.2       1 RES1    0.0000
      8 C4         1.3586    1.6191    3.4786 C.3       1 RES1    0.0000
      9 C5        -0.1232    1.4602    3.0540 C.3       1 RES1    0.0000
     10 C6        -0.0795    1.4069    1.5501 C.3       1 RES1    0.0000
     11 C7         2.1520    0.9494    2.3483 C.3       1 RES1    0.0000
     12 C8         1.7203    1.0181   -0.2101 C.3       1 RES1    0.0000
     13 C9         1.9872   -0.5808    2.4197 C.3       1 RES1    0.0000
     14 C10        3.6514    1.2730    2.3655 C.3       1 RES1    0.0000
     15 C11        1.8144    4.0240    6.7859 C.3       1 RES1    0.0000
     16 H1         1.5225    1.2142    4.4367 H         1 RES1    0.0000
     17 H2        -0.6953    2.2653    3.3940 H         1 RES1    0.0000
     18 H3        -0.5413    0.5756    3.4670 H         1 RES1    0.0000
     19 H4        -0.6302    2.1896    1.1444 H         1 RES1    0.0000
     20 H5        -0.4649    0.5008    1.2119 H         1 RES1    0.0000
     21 H6         1.1678    1.5308   -0.9261 H         1 RES1    0.0000
     22 H7         1.5277   -0.0018   -0.2889 H         1 RES1    0.0000
     23 H8         2.7457    1.1757   -0.4078 H         1 RES1    0.0000
     24 H9         0.9702   -0.8297    2.4185 H         1 RES1    0.0000
     25 H10        2.4284   -0.9624    3.2792 H         1 RES1    0.0000
     26 H11        2.4345   -1.0312    1.5822 H         1 RES1    0.0000
     27 H12        3.7840    2.3038    2.3903 H         1 RES1    0.0000
     28 H13        4.1008    0.8850    1.5122 H         1 RES1    0.0000
     29 H14        4.0881    0.8479    3.2101 H         1 RES1    0.0000
     30 H15        1.7004    3.5416    7.6841 H         1 RES1    0.0000
     31 H16        1.0991    4.8122    6.7312 H         1 RES1    0.0000
     32 H17        2.7632    4.4733    6.7426 H         1 RES1    0.0000
@<TRIPOS>BOND
     1    1    6 2
     2    2    5 1
     3    3    4 1
     4    4    7 2
     5    5   10 1
     6    6    2 1
     7    7    6 1
     8    8    7 1
     9    9    8 1
    10   10    9 1
    11   11    5 1
    12   12    5 1
    13   13   11 1
    14   14   11 1
    15   15    3 1
    16   16    8 1
    17   17    9 1
    18   18    9 1
    19   19   10 1
    20   20   10 1
    21   21   12 1
    22   22   12 1
    23   23   12 1
    24   24   13 1
    25   25   13 1
    26   26   13 1
    27   27   14 1
    28   28   14 1
    29   29   14 1
    30   30   15 1
    31   31   15 1
    32   32   15 1
    33    8   11 1
@<TRIPOS>SUBSTRUCTURE
     1 RES1 1

@<TRIPOS>CRYSIN
   7.2926   11.8526   13.2150  90.0000  90.0000  90.0000  19 1

