# MOL2 file generated by ConQuest
# Please check atom types

@<TRIPOS>MOLECULE
JASLEV
    19    18     1
SMALL
NO_CHARGES
****
Generated from CSD

@<TRIPOS>ATOM
      1 O1         2.9405   -1.9432  -14.4433 O.2       1 RES1    0.0000
      2 O2         2.6282   -0.9001  -12.5793 O.2       1 RES1    0.0000
      3 O3         5.4177   -2.6261  -14.4823 O.2       1 RES1    0.0000
      4 O4         5.6804   -4.2391  -13.0860 O.2       1 RES1    0.0000
      5 O5         3.2982   -3.5603   -8.5228 O.2       1 RES1    0.0000
      6 N1         3.1932   -1.7795  -13.2482 N.pl3     1 RES1    0.0000
      7 N2         5.1055   -3.2039  -13.4484 N.pl3     1 RES1    0.0000
      8 N3         4.8019   -3.8554  -10.6659 N.pl3     1 RES1    0.0000
      9 H1         4.7062   -4.0459   -9.8327 H         1 RES1    0.0000
     10 H2         5.4242   -4.2317  -11.1247 H         1 RES1    0.0000
     11 N4         3.0260   -2.4200  -10.4723 N.am      1 RES1    0.0000
     12 H3         2.5796   -1.7850  -10.8430 H         1 RES1    0.0000
     13 C1         4.1045   -2.6459  -12.6104 C.2       1 RES1    0.0000
     14 C2         4.0037   -2.9941  -11.2316 C.2       1 RES1    0.0000
     15 C3         2.6688   -2.7464   -9.1650 C.2       1 RES1    0.0000
     16 C4         1.4816   -2.0322   -8.6486 C.3       1 RES1    0.0000
     17 H4         1.2735   -2.3582   -7.7701 H         1 RES1    0.0000
     18 H5         0.7349   -2.1843   -9.2323 H         1 RES1    0.0000
     19 H6         1.6673   -1.0910   -8.6049 H         1 RES1    0.0000
@<TRIPOS>BOND
     1    1    6 2
     2    2    6 2
     3    3    7 2
     4    4    7 2
     5    5   15 2
     6    6   13 1
     7    7   13 1
     8    8    9 1
     9   10    8 1
    10   11   12 1
    11   13   14 2
    12   14    8 1
    13   15   11 1
    14   16   15 1
    15   17   16 1
    16   18   16 1
    17   19   16 1
    18   11   14 1
@<TRIPOS>SUBSTRUCTURE
     1 RES1 1

@<TRIPOS>CRYSIN
   9.7808    4.6112   18.9990  90.0000 117.4120  90.0000  14 1

