# MOL2 file generated by ConQuest
# Please check atom types

@<TRIPOS>MOLECULE
JATYEL
    34    36     1
SMALL
NO_CHARGES
****
Generated from CSD

@<TRIPOS>ATOM
      1 C1         7.8644    7.1604    2.5156 C.2       1 RES1    0.0000
      2 C2         7.1076    7.9212    3.3972 C.2       1 RES1    0.0000
      3 C3         6.9694    9.3299    2.9145 C.3       1 RES1    0.0000
      4 H1         7.5418    9.9462    3.4367 H         1 RES1    0.0000
      5 H2         6.0295    9.6371    2.9655 H         1 RES1    0.0000
      6 C4         7.4419    9.2283    1.4635 C.3       1 RES1    0.0000
      7 H3         6.6670    9.1316    0.8546 H         1 RES1    0.0000
      8 H4         7.9461   10.0408    1.2072 H         1 RES1    0.0000
      9 O1         9.1246    1.2922    3.3442 O.2       1 RES1    0.0000
     10 O2         7.2341    5.8450    4.1781 O.3       1 RES1    0.0000
     11 O3         3.1601    8.6006    9.2938 O.2       1 RES1    0.0000
     12 O4         3.5346    6.5175    9.7271 O.2       1 RES1    0.0000
     13 N1         3.6604    7.5199    9.0296 N.pl3     1 RES1    0.0000
     14 C5         8.3428    7.9931    1.3787 C.3       1 RES1    0.0000
     15 H5         8.2254    7.5224    0.5155 H         1 RES1    0.0000
     16 H6         9.2959    8.2369    1.4886 H         1 RES1    0.0000
     17 C6         7.9277    5.8957    3.0050 C.2       1 RES1    0.0000
     18 C7         8.5032    4.6801    2.5898 C.2       1 RES1    0.0000
     19 H7         8.9912    4.6838    1.7747 H         1 RES1    0.0000
     20 C8         8.4181    3.5232    3.2507 C.2       1 RES1    0.0000
     21 H8         7.9019    3.4744    4.0475 H         1 RES1    0.0000
     22 C9         6.7316    7.0949    4.4030 C.2       1 RES1    0.0000
     23 C10        9.0895    2.3650    2.7767 C.2       1 RES1    0.0000
     24 H9         9.5489    2.4349    1.9481 H         1 RES1    0.0000
     25 C11        5.9529    7.2202    5.5833 C.ar      1 RES1    0.0000
     26 C12        5.3245    8.4129    5.8906 C.ar      1 RES1    0.0000
     27 H10        5.4157    9.1595    5.3106 H         1 RES1    0.0000
     28 C13        4.5786    8.5177    7.0188 C.ar      1 RES1    0.0000
     29 H11        4.1427    9.3325    7.2375 H         1 RES1    0.0000
     30 C14        4.4669    7.4178    7.8397 C.ar      1 RES1    0.0000
     31 C15        5.0580    6.2263    7.5642 C.ar      1 RES1    0.0000
     32 H12        4.9484    5.4814    8.1442 H         1 RES1    0.0000
     33 C16        5.8109    6.1258    6.4340 C.ar      1 RES1    0.0000
     34 H13        6.2423    5.3059    6.2249 H         1 RES1    0.0000
@<TRIPOS>BOND
     1    1    2 1
     2    2    3 1
     3    3    4 1
     4    5    3 1
     5    6    3 1
     6    7    6 1
     7    8    6 1
     8    9   23 2
     9   10   17 1
    10   11   13 2
    11   12   13 2
    12   13   30 1
    13   14    1 1
    14   15   14 1
    15   16   14 1
    16   17    1 2
    17   18   17 1
    18   19   18 1
    19   20   18 2
    20   21   20 1
    21   22    2 2
    22   23   20 1
    23   24   23 1
    24   25   22 1
    25   26   25 ar
    26   27   26 1
    27   28   26 ar
    28   29   28 1
    29   30   28 ar
    30   31   30 ar
    31   32   31 1
    32   33   25 ar
    33   34   33 1
    34    6   14 1
    35   10   22 1
    36   31   33 ar
@<TRIPOS>SUBSTRUCTURE
     1 RES1 1

@<TRIPOS>CRYSIN
   7.7646    8.7169   10.5380  66.3000  89.0500  80.5100   2 1

