# MOL2 file generated by ConQuest
# Please check atom types

@<TRIPOS>MOLECULE
JAXFUM
    22    23     1
SMALL
NO_CHARGES
****
Generated from CSD

@<TRIPOS>ATOM
      1 O1         3.9129   12.9685    1.9003 O.2       1 RES1    0.0000
      2 O2         3.3229   17.5026    2.9913 O.2       1 RES1    0.0000
      3 O3         2.1332   18.3291    4.5969 O.2       1 RES1    0.0000
      4 N1         2.1659   11.4646    4.5404 N.2       1 RES1    0.0000
      5 N2         2.6793   12.4328    3.6985 N.am      1 RES1    0.0000
      6 N3         2.6056   17.3820    3.9845 N.pl3     1 RES1    0.0000
      7 C1         2.4240   13.7038    4.1920 C.ar      1 RES1    0.0000
      8 C2         2.7339   14.9650    3.6892 C.ar      1 RES1    0.0000
      9 H1         3.2118   15.1001    2.8900 H         1 RES1    0.0000
     10 C3         2.3026   16.0215    4.4590 C.ar      1 RES1    0.0000
     11 C4         1.5934   15.8922    5.6640 C.ar      1 RES1    0.0000
     12 H2         1.3395   16.6773    6.1285 H         1 RES1    0.0000
     13 C5         1.3016   14.6317    6.1383 C.ar      1 RES1    0.0000
     14 H3         0.8040   14.5266    6.9831 H         1 RES1    0.0000
     15 C6         1.7263   13.5256    5.3935 C.ar      1 RES1    0.0000
     16 C7         1.6094   12.1053    5.5344 C.2       1 RES1    0.0000
     17 H4         1.1717   11.6201    6.2185 H         1 RES1    0.0000
     18 C8         3.3935   12.0883    2.5418 C.2       1 RES1    0.0000
     19 C9         3.4545   10.6356    2.2063 C.3       1 RES1    0.0000
     20 H5         3.9023   10.1535    2.9349 H         1 RES1    0.0000
     21 H6         2.5937   10.2497    2.1478 H         1 RES1    0.0000
     22 H7         3.9560   10.5386    1.4169 H         1 RES1    0.0000
@<TRIPOS>BOND
     1    1   18 2
     2    2    6 2
     3    3    6 2
     4    4    5 1
     5    5    7 1
     6    6   10 1
     7    7    8 ar
     8    8    9 1
     9   10    8 ar
    10   11   10 ar
    11   12   11 1
    12   13   11 ar
    13   14   13 1
    14   15    7 ar
    15   16    4 2
    16   17   16 1
    17   18    5 1
    18   19   18 1
    19   20   19 1
    20   21   19 1
    21   22   19 1
    22   13   15 ar
    23   15   16 1
@<TRIPOS>SUBSTRUCTURE
     1 RES1 1

@<TRIPOS>CRYSIN
   3.8919   20.4831   11.2580  90.0000  92.7570  90.0000  14 1

