# MOL2 file generated by ConQuest
# Please check atom types

@<TRIPOS>MOLECULE
JAXTAE
    32    33     1
SMALL
NO_CHARGES
****
Generated from CSD

@<TRIPOS>ATOM
      1 O1         0.8526    6.9761   13.7312 O.2       1 RES1    0.0000
      2 O2         2.2513    5.7353   14.7848 O.2       1 RES1    0.0000
      3 N1         1.8859    6.3244   13.7834 N.pl3     1 RES1    0.0000
      4 N2         6.4250    4.2210   12.6273 N.2       1 RES1    0.0000
      5 C1         6.0338    4.8236   11.5772 C.2       1 RES1    0.0000
      6 H1         6.5773    4.8236   10.8220 H         1 RES1    0.0000
      7 C2         4.7386    5.5191   11.5347 C.ar      1 RES1    0.0000
      8 C3         4.3190    6.1458   10.3631 C.ar      1 RES1    0.0000
      9 H2         4.8575    6.1137    9.6059 H         1 RES1    0.0000
     10 C4         3.1083    6.8147   10.3172 C.ar      1 RES1    0.0000
     11 H3         2.8431    7.2314    9.5294 H         1 RES1    0.0000
     12 C5         2.2910    6.8719   11.4238 C.ar      1 RES1    0.0000
     13 H4         1.4740    7.3160   11.3962 H         1 RES1    0.0000
     14 C6         2.7228    6.2492   12.5734 C.ar      1 RES1    0.0000
     15 C7         3.9203    5.5779   12.6579 C.ar      1 RES1    0.0000
     16 H5         4.1787    5.1690   13.4523 H         1 RES1    0.0000
     17 O1B       13.2549    0.8569   11.3429 O.2       1 RES1    0.0000
     18 O2B       11.8562    2.0977   10.2893 O.2       1 RES1    0.0000
     19 N1B       12.2216    1.5086   11.2907 N.pl3     1 RES1    0.0000
     20 N2B        7.6825    3.6120   12.4468 N.2       1 RES1    0.0000
     21 C1B        8.0737    3.0094   13.4969 C.2       1 RES1    0.0000
     22 H1B        7.5301    3.0094   14.2521 H         1 RES1    0.0000
     23 C2B        9.3689    2.3139   13.5394 C.ar      1 RES1    0.0000
     24 C3B        9.7885    1.6872   14.7110 C.ar      1 RES1    0.0000
     25 H2B        9.2500    1.7193   15.4682 H         1 RES1    0.0000
     26 C4B       10.9992    1.0183   14.7569 C.ar      1 RES1    0.0000
     27 H3B       11.2643    0.6016   15.5447 H         1 RES1    0.0000
     28 C5B       11.8164    0.9611   13.6503 C.ar      1 RES1    0.0000
     29 H4B       12.6334    0.5170   13.6779 H         1 RES1    0.0000
     30 C6B       11.3846    1.5838   12.5007 C.ar      1 RES1    0.0000
     31 C7B       10.1872    2.2551   12.4162 C.ar      1 RES1    0.0000
     32 H5B        9.9287    2.6640   11.6218 H         1 RES1    0.0000
@<TRIPOS>BOND
     1    1    3 2
     2    2    3 2
     3    3   14 1
     4    4    5 2
     5    5    6 1
     6    7    5 1
     7    8    7 ar
     8    9    8 1
     9   10    8 ar
    10   11   10 1
    11   12   10 ar
    12   13   12 1
    13   14   12 ar
    14   15    7 ar
    15   16   15 1
    16   17   19 2
    17   18   19 2
    18   19   30 1
    19   20    4 1
    20   21   20 2
    21   22   21 1
    22   23   21 1
    23   24   23 ar
    24   25   24 1
    25   26   24 ar
    26   27   26 1
    27   28   26 ar
    28   29   28 1
    29   30   28 ar
    30   31   23 ar
    31   32   31 1
    32   14   15 ar
    33   30   31 ar
@<TRIPOS>SUBSTRUCTURE
     1 RES1 1

@<TRIPOS>CRYSIN
   6.9694    7.8330   12.9900  90.0000 105.1750  90.0000 231 1

