# MOL2 file generated by ConQuest
# Please check atom types

@<TRIPOS>MOLECULE
JAYZOB
    34    35     1
SMALL
NO_CHARGES
****
Generated from CSD

@<TRIPOS>ATOM
      1 O1         7.0622    8.2123    1.5276 O.3       1 RES1    0.0000
      2 O2         6.7012    8.3650    3.7465 O.2       1 RES1    0.0000
      3 O3         9.3544    7.2755    2.3998 O.2       1 RES1    0.0000
      4 O4        14.8118   11.3604    3.2965 O.2       1 RES1    0.0000
      5 O5        13.5491   12.5467    4.5075 O.2       1 RES1    0.0000
      6 N1         8.1624    9.0829    1.7338 N.am      1 RES1    0.0000
      7 N2        13.7317   11.6591    3.7310 N.pl3     1 RES1    0.0000
      8 C1         8.8772   10.7053    0.0769 C.ar      1 RES1    0.0000
      9 H1         9.5835   10.1504   -0.1636 H         1 RES1    0.0000
     10 C2         8.6935   11.8984   -0.5678 C.ar      1 RES1    0.0000
     11 H2         9.2815   12.1512   -1.2428 H         1 RES1    0.0000
     12 C3         7.6450   12.7333   -0.2291 C.ar      1 RES1    0.0000
     13 H3         7.5205   13.5412   -0.6726 H         1 RES1    0.0000
     14 C4         6.8015   12.3532    0.7609 C.ar      1 RES1    0.0000
     15 H4         6.0888   12.9047    0.9859 H         1 RES1    0.0000
     16 C5         6.9736   11.1669    1.4449 C.ar      1 RES1    0.0000
     17 H5         6.3992   10.9327    2.1371 H         1 RES1    0.0000
     18 C6         8.0135   10.3286    1.0833 C.ar      1 RES1    0.0000
     19 C7         9.2858    8.4634    2.1862 C.2       1 RES1    0.0000
     20 C8        10.4197    9.3934    2.5111 C.ar      1 RES1    0.0000
     21 C9        11.6962    9.0676    2.0455 C.ar      1 RES1    0.0000
     22 H6        11.8186    8.3379    1.4818 H         1 RES1    0.0000
     23 C10       12.7667    9.8330    2.4276 C.ar      1 RES1    0.0000
     24 H7        13.6188    9.6497    2.1020 H         1 RES1    0.0000
     25 C11       12.5661   10.8614    3.2875 C.ar      1 RES1    0.0000
     26 C12       11.3330   11.2093    3.7784 C.ar      1 RES1    0.0000
     27 H8        11.2263   11.9187    4.3716 H         1 RES1    0.0000
     28 C13       10.2571   10.4558    3.3489 C.ar      1 RES1    0.0000
     29 H9         9.4019   10.6799    3.6385 H         1 RES1    0.0000
     30 C14        6.3886    7.9136    2.7050 C.2       1 RES1    0.0000
     31 C15        5.2779    6.9887    2.3752 C.3       1 RES1    0.0000
     32 H10        4.7405    7.3705    1.6781 H         1 RES1    0.0000
     33 H11        4.7374    6.8478    3.1558 H         1 RES1    0.0000
     34 H12        5.6380    6.1486    2.0790 H         1 RES1    0.0000
@<TRIPOS>BOND
     1    1    6 1
     2    2   30 2
     3    3   19 2
     4    4    7 2
     5    5    7 2
     6    6   18 1
     7    7   25 1
     8    8    9 1
     9   10    8 ar
    10   11   10 1
    11   12   10 ar
    12   13   12 1
    13   14   12 ar
    14   15   14 1
    15   16   14 ar
    16   17   16 1
    17   18    8 ar
    18   19    6 1
    19   20   19 1
    20   21   20 ar
    21   22   21 1
    22   23   21 ar
    23   24   23 1
    24   25   23 ar
    25   26   25 ar
    26   27   26 1
    27   28   20 ar
    28   29   28 1
    29   30    1 1
    30   31   30 1
    31   32   31 1
    32   33   31 1
    33   34   31 1
    34   16   18 ar
    35   26   28 ar
@<TRIPOS>SUBSTRUCTURE
     1 RES1 1

@<TRIPOS>CRYSIN
  10.5580   16.9710    8.1820  90.0000  90.0000  90.0000  33 1

