# MOL2 file generated by ConQuest
# Please check atom types

@<TRIPOS>MOLECULE
JAZLAX
    20    20     1
SMALL
NO_CHARGES
****
Generated from CSD

@<TRIPOS>ATOM
      1 O1        -1.3974    7.7261    9.1448 O.2       1 RES1    0.0000
      2 O2         2.0921    3.2499    1.2364 O.2       1 RES1    0.0000
      3 O3         1.0936    1.7137    2.3434 O.2       1 RES1    0.0000
      4 N1         1.4707    2.8903    2.1954 N.pl3     1 RES1    0.0000
      5 C1        -0.7158    7.7246    8.1533 C.2       1 RES1    0.0000
      6 C2        -0.4930    6.5465    7.3239 C.2       1 RES1    0.0000
      7 C3         0.2012    6.6804    6.2206 C.2       1 RES1    0.0000
      8 C4         0.5223    5.6543    5.2158 C.ar      1 RES1    0.0000
      9 C5         1.1189    6.0590    4.0341 C.ar      1 RES1    0.0000
     10 C6         1.4302    5.1563    3.0559 C.ar      1 RES1    0.0000
     11 C7         1.1442    3.8247    3.2683 C.ar      1 RES1    0.0000
     12 C8         0.5734    3.3718    4.4159 C.ar      1 RES1    0.0000
     13 C9         0.2795    4.2956    5.4178 C.ar      1 RES1    0.0000
     14 H1        -0.2898    8.5762    7.8729 H         1 RES1    0.0000
     15 H2        -0.8641    5.6573    7.5917 H         1 RES1    0.0000
     16 H3         0.5618    7.5982    6.0378 H         1 RES1    0.0000
     17 H4         1.3514    7.0265    3.9142 H         1 RES1    0.0000
     18 H5         1.8404    5.4467    2.1902 H         1 RES1    0.0000
     19 H6         0.3755    2.3923    4.5358 H         1 RES1    0.0000
     20 H7        -0.1004    3.9872    6.2894 H         1 RES1    0.0000
@<TRIPOS>BOND
     1    1    5 2
     2    2    4 2
     3    3    4 2
     4    4   11 1
     5    5    6 1
     6    6    7 2
     7    7    8 1
     8    8    9 ar
     9    9   10 ar
    10   10   11 ar
    11   11   12 ar
    12   12   13 ar
    13   13    8 ar
    14   14    5 1
    15   15    6 1
    16   16    7 1
    17   17    9 1
    18   18   10 1
    19   19   12 1
    20   20   13 1
@<TRIPOS>SUBSTRUCTURE
     1 RES1 1

@<TRIPOS>CRYSIN
   3.8470   15.0460    7.4220  90.0000  94.4800  90.0000   4 1

