# MOL2 file generated by ConQuest
# Please check atom types

@<TRIPOS>MOLECULE
JEBXIX
    48    50     1
SMALL
NO_CHARGES
****
Generated from CSD

@<TRIPOS>ATOM
      1 O1         1.4462    2.5792   16.3583 O.3       1 RES1    0.0000
      2 O2         1.9845    1.8492   14.3176 O.3       1 RES1    0.0000
      3 O3         1.8834    2.6798   19.0354 O.2       1 RES1    0.0000
      4 O4         3.6634    1.3760   18.7890 O.3       1 RES1    0.0000
      5 N1         0.8304    2.0120   15.2086 N.3       1 RES1    0.0000
      6 C1         2.2718    1.5618   16.9331 C.3       1 RES1    0.0000
      7 C2         1.5527    1.4525   12.9914 C.3       1 RES1    0.0000
      8 C3         0.6321    0.2033   13.1433 C.3       1 RES1    0.0000
      9 C4         0.7627   -0.3913   14.5619 C.3       1 RES1    0.0000
     10 C5         2.1209   -1.0208   14.9191 C.3       1 RES1    0.0000
     11 C6         2.1424   -0.9978   16.4465 C.3       1 RES1    0.0000
     12 C7         1.4123    0.2929   16.8305 C.3       1 RES1    0.0000
     13 C8         0.4673    0.6383   15.6644 C.3       1 RES1    0.0000
     14 C9        -0.9817    0.6874   16.1489 C.3       1 RES1    0.0000
     15 C10        0.9164    2.6743   12.3180 C.3       1 RES1    0.0000
     16 C11        2.8826    1.2098   12.3036 C.3       1 RES1    0.0000
     17 C12       -0.8490    0.5322   12.8559 C.3       1 RES1    0.0000
     18 C13        0.9767   -0.9082   12.1168 C.3       1 RES1    0.0000
     19 C14        2.5602    1.9705   18.3620 C.2       1 RES1    0.0000
     20 C15        4.0776    1.6525   20.1460 C.3       1 RES1    0.0000
     21 C16        5.4167    1.0230   20.3329 C.3       1 RES1    0.0000
     22 H1         3.1238    1.4230   16.5081 H         1 RES1    0.0000
     23 H2         0.1053   -1.0918   14.5270 H         1 RES1    0.0000
     24 H3         2.8428   -0.5005   14.5598 H         1 RES1    0.0000
     25 H4         2.1780   -1.9202   14.5906 H         1 RES1    0.0000
     26 H5         1.6839   -1.7628   16.8017 H         1 RES1    0.0000
     27 H6         3.0455   -0.9858   16.7709 H         1 RES1    0.0000
     28 H7         1.0278    0.1049   17.6886 H         1 RES1    0.0000
     29 H8        -1.2457   -0.1836   16.4486 H         1 RES1    0.0000
     30 H9        -1.5483    0.9661   15.4262 H         1 RES1    0.0000
     31 H10       -1.0522    1.3126   16.8736 H         1 RES1    0.0000
     32 H11        0.6225    2.4372   11.4372 H         1 RES1    0.0000
     33 H12        1.5652    3.3803   12.2605 H         1 RES1    0.0000
     34 H13        0.1665    2.9716   12.8374 H         1 RES1    0.0000
     35 H14        2.7318    0.9344   11.3962 H         1 RES1    0.0000
     36 H15        3.3661    0.5213   12.7696 H         1 RES1    0.0000
     37 H16        3.4005    2.0197   12.3098 H         1 RES1    0.0000
     38 H17       -1.1431    1.2208   13.4553 H         1 RES1    0.0000
     39 H18       -1.3797   -0.2546   12.9852 H         1 RES1    0.0000
     40 H19       -0.9360    0.8361   11.9505 H         1 RES1    0.0000
     41 H20        1.8921   -1.1738   12.2297 H         1 RES1    0.0000
     42 H21        0.8472   -0.5727   11.2278 H         1 RES1    0.0000
     43 H22        0.4035   -1.6645   12.2625 H         1 RES1    0.0000
     44 H23        4.1388    2.6011   20.2836 H         1 RES1    0.0000
     45 H24        3.4482    1.2776   20.7660 H         1 RES1    0.0000
     46 H25        5.7226    1.1880   21.2259 H         1 RES1    0.0000
     47 H26        6.0361    1.4000   19.7067 H         1 RES1    0.0000
     48 H27        5.3455    0.0776   20.1871 H         1 RES1    0.0000
@<TRIPOS>BOND
     1    1    5 1
     2    2    5 1
     3    3   19 2
     4    4   19 1
     5    5   13 1
     6    6    1 1
     7    7    2 1
     8    8    7 1
     9    9    8 1
    10   10    9 1
    11   11   10 1
    12   12    6 1
    13   13    9 1
    14   14   13 1
    15   15    7 1
    16   16    7 1
    17   17    8 1
    18   18    8 1
    19   19    6 1
    20   20    4 1
    21   21   20 1
    22   22    6 1
    23   23    9 1
    24   24   10 1
    25   25   10 1
    26   26   11 1
    27   27   11 1
    28   28   12 1
    29   29   14 1
    30   30   14 1
    31   31   14 1
    32   32   15 1
    33   33   15 1
    34   34   15 1
    35   35   16 1
    36   36   16 1
    37   37   16 1
    38   38   17 1
    39   39   17 1
    40   40   17 1
    41   41   18 1
    42   42   18 1
    43   43   18 1
    44   44   20 1
    45   45   20 1
    46   46   21 1
    47   47   21 1
    48   48   21 1
    49   11   12 1
    50   12   13 1
@<TRIPOS>SUBSTRUCTURE
     1 RES1 1

@<TRIPOS>CRYSIN
   7.1750   10.9290   20.5320  90.0000  90.8100  90.0000  14 1

