# MOL2 file generated by ConQuest
# Please check atom types

@<TRIPOS>MOLECULE
JECBIC
    71    76     1
SMALL
NO_CHARGES
****
Generated from CSD

@<TRIPOS>ATOM
      1 C1        -0.0707    6.4875    4.3127 C.3       1 RES1    0.0000
      2 O1        -1.2286    6.4066    3.4662 O.3       1 RES1    0.0000
      3 N1        -1.0280    5.3950    2.4962 N.2       1 RES1    0.0000
      4 C2         0.0073    4.7153    2.8281 C.2       1 RES1    0.0000
      5 C3         0.6621    5.1632    4.0818 C.3       1 RES1    0.0000
      6 C4         0.4419    3.5600    2.0104 C.ar      1 RES1    0.0000
      7 C5        -0.1988    3.2377    0.8225 C.ar      1 RES1    0.0000
      8 C6         0.2283    2.1585    0.0754 C.ar      1 RES1    0.0000
      9 C7         1.2745    1.4016    0.4986 C.ar      1 RES1    0.0000
     10 C8         1.9210    1.7142    1.6513 C.ar      1 RES1    0.0000
     11 C9         1.5079    2.7802    2.4209 C.ar      1 RES1    0.0000
     12 C10        0.7521    7.6947    3.8557 C.2       1 RES1    0.0000
     13 O2         0.4769    8.2741    2.8313 O.2       1 RES1    0.0000
     14 N2         1.8292    8.1534    4.6333 N.am      1 RES1    0.0000
     15 C11        2.1846    7.6138    5.8646 C.2       1 RES1    0.0000
     16 O3         1.6519    6.6046    6.2734 O.2       1 RES1    0.0000
     17 C12        3.2588    8.3104    6.6870 C.3       1 RES1    0.0000
     18 C13        2.9502    8.1015    8.1700 C.3       1 RES1    0.0000
     19 C14        3.2983    9.8025    6.3407 C.3       1 RES1    0.0000
     20 C15        4.6226    7.6549    6.3664 C.3       1 RES1    0.0000
     21 C16        3.6753   11.4817    4.5147 C.3       1 RES1    0.0000
     22 C17        2.4509    9.3993    4.0626 C.3       1 RES1    0.0000
     23 C18        3.6162    9.9896    4.8722 C.3       1 RES1    0.0000
     24 C19        5.1791    7.9011    4.9588 C.3       1 RES1    0.0000
     25 C20        4.9798    9.3691    4.5531 C.3       1 RES1    0.0000
     26 C21        6.6925    7.5788    4.9604 C.3       1 RES1    0.0000
     27 C22        4.5951    6.8943    3.9648 C.2       1 RES1    0.0000
     28 O4         4.1529    5.8247    4.2437 O.2       1 RES1    0.0000
     29 O5         4.7308    7.3096    2.6886 O.3       1 RES1    0.0000
     30 C23        4.3789    6.3788    1.6738 C.ar      1 RES1    0.0000
     31 C24        3.0611    6.3318    1.2409 C.ar      1 RES1    0.0000
     32 C25        2.7251    5.4614    0.2325 C.ar      1 RES1    0.0000
     33 C26        3.7074    4.6381   -0.3687 C.ar      1 RES1    0.0000
     34 C27        5.0375    4.7286    0.0770 C.ar      1 RES1    0.0000
     35 C28        5.3650    5.6316    1.1190 C.ar      1 RES1    0.0000
     36 C29        3.3833    3.7158   -1.3932 C.ar      1 RES1    0.0000
     37 C30        4.3376    2.9202   -1.9287 C.ar      1 RES1    0.0000
     38 C31        5.6654    3.0120   -1.5086 C.ar      1 RES1    0.0000
     39 C32        6.0180    3.8993   -0.5323 C.ar      1 RES1    0.0000
     40 H1        -0.2582    6.6058    5.2457 H         1 RES1    0.0000
     41 H2         0.5140    4.5451    4.8016 H         1 RES1    0.0000
     42 H3         1.6059    5.2960    3.9632 H         1 RES1    0.0000
     43 H4        -0.9410    3.7665    0.5178 H         1 RES1    0.0000
     44 H5        -0.2178    1.9400   -0.7471 H         1 RES1    0.0000
     45 H6         1.5580    0.6434   -0.0192 H         1 RES1    0.0000
     46 H7         2.6730    1.1879    1.9335 H         1 RES1    0.0000
     47 H8         1.9610    2.9818    3.2433 H         1 RES1    0.0000
     48 H9         2.0435    8.3659    8.3496 H         1 RES1    0.0000
     49 H10        3.5478    8.6339    8.7007 H         1 RES1    0.0000
     50 H11        3.0618    7.1744    8.3945 H         1 RES1    0.0000
     51 H12        3.9730   10.2322    6.8698 H         1 RES1    0.0000
     52 H13        2.4431   10.1948    6.5331 H         1 RES1    0.0000
     53 H14        4.5267    6.7072    6.4834 H         1 RES1    0.0000
     54 H15        5.2634    7.9917    6.9980 H         1 RES1    0.0000
     55 H16        4.3646   11.9078    5.0277 H         1 RES1    0.0000
     56 H17        2.8293   11.8921    4.7119 H         1 RES1    0.0000
     57 H18        3.8674   11.5795    3.5784 H         1 RES1    0.0000
     58 H19        2.7756    9.1916    3.1840 H         1 RES1    0.0000
     59 H20        1.7649   10.0693    4.0000 H         1 RES1    0.0000
     60 H21        5.1134    9.4294    3.6040 H         1 RES1    0.0000
     61 H22        5.6491    9.8894    5.0036 H         1 RES1    0.0000
     62 H23        7.1342    8.1208    5.6177 H         1 RES1    0.0000
     63 H24        7.0592    7.7635    4.0930 H         1 RES1    0.0000
     64 H25        6.8211    6.6505    5.1720 H         1 RES1    0.0000
     65 H26        2.3955    6.8979    1.6385 H         1 RES1    0.0000
     66 H27        1.8147    5.4119   -0.0689 H         1 RES1    0.0000
     67 H28        6.2703    5.7125    1.4285 H         1 RES1    0.0000
     68 H29        2.4788    3.6542   -1.7090 H         1 RES1    0.0000
     69 H30        4.0986    2.2828   -2.6068 H         1 RES1    0.0000
     70 H31        6.3340    2.4506   -1.9078 H         1 RES1    0.0000
     71 H32        6.9343    3.9632   -0.2549 H         1 RES1    0.0000
@<TRIPOS>BOND
     1    1    2 1
     2    2    3 1
     3    3    4 2
     4    4    5 1
     5    5    1 1
     6    6    4 1
     7    7    6 ar
     8    8    7 ar
     9    9    8 ar
    10   10    9 ar
    11   11    6 ar
    12   12    1 1
    13   13   12 2
    14   14   12 1
    15   15   14 1
    16   16   15 2
    17   17   15 1
    18   18   17 1
    19   19   17 1
    20   20   17 1
    21   21   23 1
    22   22   14 1
    23   23   19 1
    24   24   20 1
    25   25   23 1
    26   26   24 1
    27   27   24 1
    28   28   27 2
    29   29   27 1
    30   30   29 1
    31   31   30 ar
    32   32   31 ar
    33   33   32 ar
    34   34   33 ar
    35   35   30 ar
    36   36   33 ar
    37   37   36 ar
    38   38   37 ar
    39   39   34 ar
    40   40    1 1
    41   41    5 1
    42   42    5 1
    43   43    7 1
    44   44    8 1
    45   45    9 1
    46   46   10 1
    47   47   11 1
    48   48   18 1
    49   49   18 1
    50   50   18 1
    51   51   19 1
    52   52   19 1
    53   53   20 1
    54   54   20 1
    55   55   21 1
    56   56   21 1
    57   57   21 1
    58   58   22 1
    59   59   22 1
    60   60   25 1
    61   61   25 1
    62   62   26 1
    63   63   26 1
    64   64   26 1
    65   65   31 1
    66   66   32 1
    67   67   35 1
    68   68   36 1
    69   69   37 1
    70   70   38 1
    71   71   39 1
    72   10   11 ar
    73   22   23 1
    74   24   25 1
    75   34   35 ar
    76   38   39 ar
@<TRIPOS>SUBSTRUCTURE
     1 RES1 1

@<TRIPOS>CRYSIN
  13.9890   12.0720   16.1590  90.0000  97.1830  90.0000  14 1

