# MOL2 file generated by ConQuest
# Please check atom types

@<TRIPOS>MOLECULE
JECMAF
    29    31     1
SMALL
NO_CHARGES
****
Generated from CSD

@<TRIPOS>ATOM
      1 O1        11.4531    0.4463    8.2100 O.3       1 RES1    0.0000
      2 O2        11.4060    2.3746    9.9397 O.2       1 RES1    0.0000
      3 O3        15.8609   -0.9016   13.6573 O.2       1 RES1    0.0000
      4 O4        15.1054   -2.8124   13.0669 O.2       1 RES1    0.0000
      5 N1        13.3743    1.6580    7.6385 N.2       1 RES1    0.0000
      6 N2        15.2736   -1.6358   12.8960 N.pl3     1 RES1    0.0000
      7 C1        10.6340    0.2678    9.3188 C.2       1 RES1    0.0000
      8 C2        10.7040    1.4072   10.2397 C.2       1 RES1    0.0000
      9 C3         9.9798    1.4521   11.5270 C.2       1 RES1    0.0000
     10 C4         9.1161    0.5244   12.0245 C.2       1 RES1    0.0000
     11 C5         8.6065   -0.6560   11.4833 C.2       1 RES1    0.0000
     12 C6         8.8938   -1.2632   10.2872 C.2       1 RES1    0.0000
     13 C7         9.8493   -0.8248    9.2789 C.2       1 RES1    0.0000
     14 C8        10.2750    2.6808   12.2998 C.3       1 RES1    0.0000
     15 C9         7.6110   -1.4065   12.3833 C.3       1 RES1    0.0000
     16 C10        9.9504   -1.7955    8.1018 C.3       1 RES1    0.0000
     17 C11       12.7845    0.8443    8.3847 C.2       1 RES1    0.0000
     18 C12       12.7309    2.4306    6.6644 C.ar      1 RES1    0.0000
     19 C13       11.7042    1.9277    5.8043 C.ar      1 RES1    0.0000
     20 C14       11.1769    2.8684    4.8816 C.ar      1 RES1    0.0000
     21 C15       11.6156    4.1173    4.7619 C.ar      1 RES1    0.0000
     22 C16       12.6377    4.6189    5.6164 C.ar      1 RES1    0.0000
     23 C17       13.1788    3.6828    6.5296 C.ar      1 RES1    0.0000
     24 C18       13.4775    0.1049    9.5239 C.ar      1 RES1    0.0000
     25 C19       14.3647    0.8977   10.2985 C.ar      1 RES1    0.0000
     26 C20       14.9511    0.2665   11.4055 C.ar      1 RES1    0.0000
     27 C21       14.6760   -1.0026   11.6979 C.ar      1 RES1    0.0000
     28 C22       13.8307   -1.8098   10.9042 C.ar      1 RES1    0.0000
     29 C23       13.2037   -1.1596    9.7897 C.ar      1 RES1    0.0000
@<TRIPOS>BOND
     1    1    7 1
     2    2    8 2
     3    3    6 2
     4    4    6 2
     5    5   17 2
     6    6   27 1
     7    7    8 1
     8    8    9 1
     9    9   10 2
    10   10   11 1
    11   11   12 2
    12   12   13 1
    13   13    7 2
    14   14    9 1
    15   15   11 1
    16   16   13 1
    17   17    1 1
    18   18    5 1
    19   19   18 ar
    20   20   19 ar
    21   21   20 ar
    22   22   21 ar
    23   23   18 ar
    24   24   17 1
    25   25   24 ar
    26   26   25 ar
    27   27   26 ar
    28   28   27 ar
    29   29   24 ar
    30   22   23 ar
    31   28   29 ar
@<TRIPOS>SUBSTRUCTURE
     1 RES1 1

