# MOL2 file generated by ConQuest
# Please check atom types

@<TRIPOS>MOLECULE
JECVUI
    24    23     1
SMALL
NO_CHARGES
****
Generated from CSD

@<TRIPOS>ATOM
      1 C1         4.9287    1.1473    9.8755 C.3       1 RES1    0.0000
      2 C2         4.2050    1.2037    8.5607 C.2       1 RES1    0.0000
      3 O1         3.2412    0.5047    8.2844 O.2       1 RES1    0.0000
      4 N1         4.7067    2.1029    7.6458 N.am      1 RES1    0.0000
      5 O2         5.8332    2.8258    8.0279 O.3       1 RES1    0.0000
      6 C3         5.4998    4.1386    8.3999 C.2       1 RES1    0.0000
      7 O3         4.3564    4.4971    8.5878 O.2       1 RES1    0.0000
      8 N2         6.6058    4.8484    8.5320 N.am      1 RES1    0.0000
      9 C4         6.5571    6.2427    8.9325 C.3       1 RES1    0.0000
     10 C5         4.2860    2.4110    6.3071 C.2       1 RES1    0.0000
     11 O4         4.9077    3.2322    5.6652 O.2       1 RES1    0.0000
     12 N3         3.2091    1.7396    5.8779 N.am      1 RES1    0.0000
     13 C6         2.6813    2.0273    4.5559 C.3       1 RES1    0.0000
     14 H1         4.5768    0.3956   10.3492 H         1 RES1    0.0000
     15 H2         5.8733    1.0550    9.7320 H         1 RES1    0.0000
     16 H3         4.7973    1.9662   10.3492 H         1 RES1    0.0000
     17 H4         7.3755    4.4239    8.3684 H         1 RES1    0.0000
     18 H5         7.4062    6.6539    8.7272 H         1 RES1    0.0000
     19 H6         5.8699    6.7019    8.4975 H         1 RES1    0.0000
     20 H7         6.4361    6.3422    9.8899 H         1 RES1    0.0000
     21 H8         2.7885    1.1749    6.4449 H         1 RES1    0.0000
     22 H9         1.9331    1.4267    4.3780 H         1 RES1    0.0000
     23 H10        2.4212    2.9733    4.4354 H         1 RES1    0.0000
     24 H11        3.3243    1.8463    3.8612 H         1 RES1    0.0000
@<TRIPOS>BOND
     1    1    2 1
     2    2    3 2
     3    4    2 1
     4    5    4 1
     5    6    5 1
     6    7    6 2
     7    8    6 1
     8    9    8 1
     9   10    4 1
    10   11   10 2
    11   12   10 1
    12   13   12 1
    13   14    1 1
    14   15    1 1
    15   16    1 1
    16   17    8 1
    17   18    9 1
    18   19    9 1
    19   20    9 1
    20   21   12 1
    21   22   13 1
    22   23   13 1
    23   24   13 1
@<TRIPOS>SUBSTRUCTURE
     1 RES1 1

@<TRIPOS>CRYSIN
   5.0120   11.9890   14.3750  90.0000  93.1000  90.0000  14 1

