# MOL2 file generated by ConQuest
# Please check atom types

@<TRIPOS>MOLECULE
JECVAO
    27    28     1
SMALL
NO_CHARGES
****
Generated from CSD

@<TRIPOS>ATOM
      1 N1         2.6342    2.3402    2.6931 N.3       1 RES1    0.0000
      2 C1         1.6373    3.1242    2.2251 C.2       1 RES1    0.0000
      3 N2         0.4481    2.7561    2.6040 N.2       1 RES1    0.0000
      4 C2         0.6763    1.6685    3.3664 C.2       1 RES1    0.0000
      5 C3         2.0122    1.3971    3.4499 C.2       1 RES1    0.0000
      6 N3         1.8790    4.2791    1.4007 N.pl3     1 RES1    0.0000
      7 O1         2.9429    4.3846    0.8312 O.2       1 RES1    0.0000
      8 O2         0.9980    5.1226    1.3511 O.2       1 RES1    0.0000
      9 C4         4.0807    2.4212    2.5059 C.3       1 RES1    0.0000
     10 C5         4.5526    1.5836    1.3251 C.3       1 RES1    0.0000
     11 O3         4.5034    0.2128    1.6883 O.3       1 RES1    0.0000
     12 C6         5.9689    1.9829    0.9586 C.3       1 RES1    0.0000
     13 N4         6.4694    1.1315   -0.1218 N.3       1 RES1    0.0000
     14 C7         7.4940    0.1513    0.2707 C.3       1 RES1    0.0000
     15 C8         7.8810    1.3717   -0.4646 C.3       1 RES1    0.0000
     16 H1        -0.0464    1.1032    3.8074 H         1 RES1    0.0000
     17 H2         2.4739    0.6492    3.9935 H         1 RES1    0.0000
     18 H3         4.3640    3.3839    2.3717 H         1 RES1    0.0000
     19 H4         4.5595    2.0903    3.3484 H         1 RES1    0.0000
     20 H5         3.9542    1.7251    0.5222 H         1 RES1    0.0000
     21 H6         3.5994   -0.0254    1.9014 H         1 RES1    0.0000
     22 H7         5.9889    2.9523    0.6733 H         1 RES1    0.0000
     23 H8         6.5622    1.8891    1.7717 H         1 RES1    0.0000
     24 H9         7.5419   -0.7576   -0.1692 H         1 RES1    0.0000
     25 H10        7.7532    0.0322    1.2439 H         1 RES1    0.0000
     26 H11        8.1894    1.3092   -1.4221 H         1 RES1    0.0000
     27 H12        8.4017    2.1000   -0.0090 H         1 RES1    0.0000
@<TRIPOS>BOND
     1    1    2 1
     2    2    3 2
     3    3    4 1
     4    4    5 2
     5    5    1 1
     6    6    2 1
     7    7    6 2
     8    8    6 2
     9    9    1 1
    10   10    9 1
    11   11   10 1
    12   12   10 1
    13   13   12 1
    14   14   13 1
    15   15   13 1
    16   16    4 1
    17   17    5 1
    18   18    9 1
    19   19    9 1
    20   20   10 1
    21   21   11 1
    22   22   12 1
    23   23   12 1
    24   24   14 1
    25   25   14 1
    26   26   15 1
    27   27   15 1
    28   14   15 1
@<TRIPOS>SUBSTRUCTURE
     1 RES1 1

@<TRIPOS>CRYSIN
   9.1270    9.7630   11.5810  90.0000 103.1400  90.0000  14 1

