# MOL2 file generated by ConQuest
# Please check atom types

@<TRIPOS>MOLECULE
JECYIC
    70    75     1
SMALL
NO_CHARGES
****
Generated from CSD

@<TRIPOS>ATOM
      1 C1         6.1275   -1.6137   11.8451 C.3       1 RES1    0.0000
      2 H1         6.4852   -1.9239   12.7030 H         1 RES1    0.0000
      3 N1         5.2410   -2.6535   11.2191 N.pl3     1 RES1    0.0000
      4 O1         4.6220   -2.3799   10.2322 O.2       1 RES1    0.0000
      5 O2         5.2086   -3.7322   11.7596 O.2       1 RES1    0.0000
      6 C2         7.2585   -1.2200   10.8843 C.3       1 RES1    0.0000
      7 H2         6.9123   -1.1210    9.9728 H         1 RES1    0.0000
      8 C3         8.3836   -2.2553   10.9162 C.ar      1 RES1    0.0000
      9 C4         9.3535   -2.2342   11.8755 C.ar      1 RES1    0.0000
     10 H3         9.3767   -1.5469   12.5030 H         1 RES1    0.0000
     11 C5        10.3112   -3.2484   11.9117 C.ar      1 RES1    0.0000
     12 H4        10.9702   -3.2384   12.5682 H         1 RES1    0.0000
     13 C6        10.2868   -4.2438   11.0003 C.ar      1 RES1    0.0000
     14 H5        10.9390   -4.9055   11.0292 H         1 RES1    0.0000
     15 C7         9.3206   -4.2949   10.0380 C.ar      1 RES1    0.0000
     16 H6         9.3030   -4.9933    9.4251 H         1 RES1    0.0000
     17 C8         8.3503   -3.2762    9.9873 C.ar      1 RES1    0.0000
     18 H7         7.6913   -3.2907    9.3309 H         1 RES1    0.0000
     19 N2         7.6602    0.0701   11.4161 N.3       1 RES1    0.0000
     20 C9         6.5343    0.7218   12.1494 C.3       1 RES1    0.0000
     21 H8         6.2940    1.5647   11.7103 H         1 RES1    0.0000
     22 C10        6.8942    0.9753   13.5681 C.2       1 RES1    0.0000
     23 O3         6.9636    2.0552   14.0724 O.2       1 RES1    0.0000
     24 O4         7.1587   -0.1401   14.2463 O.3       1 RES1    0.0000
     25 C11        7.3166   -0.0311   15.6708 C.3       1 RES1    0.0000
     26 H9         6.4529    0.0411   16.0838 H         1 RES1    0.0000
     27 H10        7.8367    0.7496   15.8765 H         1 RES1    0.0000
     28 H11        7.7659   -0.8118   16.0041 H         1 RES1    0.0000
     29 C12        5.3774   -0.2914   12.0059 C.3       1 RES1    0.0000
     30 H12        4.9272   -0.1045   11.1568 H         1 RES1    0.0000
     31 C13        4.3196   -0.2858   13.0899 C.ar      1 RES1    0.0000
     32 C14        3.2938    0.6550   12.9899 C.ar      1 RES1    0.0000
     33 H13        3.2799    1.2622   12.2856 H         1 RES1    0.0000
     34 C15        2.2863    0.6750   13.9622 C.ar      1 RES1    0.0000
     35 H14        1.5949    1.2934   13.8970 H         1 RES1    0.0000
     36 C16        2.3098   -0.1991   14.9940 C.ar      1 RES1    0.0000
     37 H15        1.6499   -0.1568   15.6490 H         1 RES1    0.0000
     38 C17        3.2913   -1.1399   15.0853 C.ar      1 RES1    0.0000
     39 H16        3.2877   -1.7560   15.7823 H         1 RES1    0.0000
     40 C18        4.2891   -1.1710   14.1347 C.ar      1 RES1    0.0000
     41 H17        4.9610   -1.8105   14.2057 H         1 RES1    0.0000
     42 C19        8.5773    0.8630   10.5988 C.3       1 RES1    0.0000
     43 H18        9.4055    0.3403   10.5626 H         1 RES1    0.0000
     44 C20        8.1735    1.0832    9.1265 C.3       1 RES1    0.0000
     45 H19        8.1632    0.2169    8.6686 H         1 RES1    0.0000
     46 C21        6.8465    1.7460    8.9411 C.2       1 RES1    0.0000
     47 O5         5.7655    1.3190    9.2671 O.2       1 RES1    0.0000
     48 N3         6.9896    2.9437    8.2904 N.am      1 RES1    0.0000
     49 C22        5.9251    3.8779    8.0498 C.ar      1 RES1    0.0000
     50 C23        5.2327    3.8468    6.8732 C.ar      1 RES1    0.0000
     51 H20        5.4579    3.2295    6.2138 H         1 RES1    0.0000
     52 C24        4.2041    4.7298    6.6674 C.ar      1 RES1    0.0000
     53 H21        3.7224    4.7064    5.8718 H         1 RES1    0.0000
     54 C25        3.8858    5.6461    7.6311 C.ar      1 RES1    0.0000
     55 H22        3.1905    6.2456    7.4818 H         1 RES1    0.0000
     56 C26        4.5758    5.6940    8.8063 C.ar      1 RES1    0.0000
     57 H23        4.3593    6.3256    9.4540 H         1 RES1    0.0000
     58 C27        5.6041    4.7876    9.0251 C.ar      1 RES1    0.0000
     59 H24        6.0739    4.7976    9.8279 H         1 RES1    0.0000
     60 C28        8.3339    3.2017    7.9803 C.2       1 RES1    0.0000
     61 O6         8.7127    4.2204    7.4543 O.2       1 RES1    0.0000
     62 C29        9.1738    2.0307    8.3962 C.3       1 RES1    0.0000
     63 H25        9.5327    1.5825    7.6021 H         1 RES1    0.0000
     64 C30       10.3158    2.5211    9.2671 C.3       1 RES1    0.0000
     65 H26       10.9640    1.8083    9.3816 H         1 RES1    0.0000
     66 H27       10.7604    3.2640    8.8295 H         1 RES1    0.0000
     67 C31        9.8125    2.9548   10.5974 C.2       1 RES1    0.0000
     68 H28       10.0869    3.7600   10.9713 H         1 RES1    0.0000
     69 C32        8.9601    2.1597   11.2379 C.2       1 RES1    0.0000
     70 H29        8.6097    2.4055   12.0639 H         1 RES1    0.0000
@<TRIPOS>BOND
     1    1    2 1
     2    3    1 1
     3    4    3 2
     4    5    3 2
     5    6    1 1
     6    7    6 1
     7    8    6 1
     8    9    8 ar
     9   10    9 1
    10   11    9 ar
    11   12   11 1
    12   13   11 ar
    13   14   13 1
    14   15   13 ar
    15   16   15 1
    16   17    8 ar
    17   18   17 1
    18   19    6 1
    19   20   19 1
    20   21   20 1
    21   22   20 1
    22   23   22 2
    23   24   22 1
    24   25   24 1
    25   26   25 1
    26   27   25 1
    27   28   25 1
    28   29    1 1
    29   30   29 1
    30   31   29 1
    31   32   31 ar
    32   33   32 1
    33   34   32 ar
    34   35   34 1
    35   36   34 ar
    36   37   36 1
    37   38   36 ar
    38   39   38 1
    39   40   31 ar
    40   41   40 1
    41   42   19 1
    42   43   42 1
    43   44   42 1
    44   45   44 1
    45   46   44 1
    46   47   46 2
    47   48   46 1
    48   49   48 1
    49   50   49 ar
    50   51   50 1
    51   52   50 ar
    52   53   52 1
    53   54   52 ar
    54   55   54 1
    55   56   54 ar
    56   57   56 1
    57   58   49 ar
    58   59   58 1
    59   60   48 1
    60   61   60 2
    61   62   44 1
    62   63   62 1
    63   64   62 1
    64   65   64 1
    65   66   64 1
    66   67   64 1
    67   68   67 1
    68   69   42 1
    69   70   69 1
    70   15   17 ar
    71   20   29 1
    72   38   40 ar
    73   56   58 ar
    74   60   62 1
    75   67   69 2
@<TRIPOS>SUBSTRUCTURE
     1 RES1 1

@<TRIPOS>CRYSIN
   8.6490   11.1210   14.5460  90.0000  94.9760  90.0000   4 1

