# MOL2 file generated by ConQuest
# Please check atom types

@<TRIPOS>MOLECULE
JEDSUG
    16    16     1
SMALL
NO_CHARGES
****
Generated from CSD

@<TRIPOS>ATOM
      1 C1        -0.2211    1.1519    8.0790 C.2       1 RES1    0.0000
      2 O1         0.8129    1.5198    7.6326 O.2       1 RES1    0.0000
      3 N1        -1.0121    0.0706    7.6842 N.am      1 RES1    0.0000
      4 N2        -0.8159   -0.6065    6.5012 N.pl3     1 RES1    0.0000
      5 O2        -1.6749   -1.4167    6.2375 O.2       1 RES1    0.0000
      6 O3         0.1590   -0.3631    5.8427 O.2       1 RES1    0.0000
      7 C2        -2.2803   -0.0658    8.3943 C.3       1 RES1    0.0000
      8 C3        -2.2673    1.1139    9.3639 C.3       1 RES1    0.0000
      9 N3        -0.9412    1.6784    9.1519 N.am      1 RES1    0.0000
     10 N4        -0.5120    2.7431    9.8982 N.pl3     1 RES1    0.0000
     11 O4        -1.3219    3.2172   10.6600 O.2       1 RES1    0.0000
     12 O5         0.6379    3.1022    9.7601 O.2       1 RES1    0.0000
     13 H1        -2.2856   -1.0964    8.9105 H         1 RES1    0.0000
     14 H2        -2.9554   -0.0301    7.7861 H         1 RES1    0.0000
     15 H3        -2.8809    1.7568    9.1030 H         1 RES1    0.0000
     16 H4        -2.3335    0.8871   10.2679 H         1 RES1    0.0000
@<TRIPOS>BOND
     1    1    2 2
     2    3    1 1
     3    4    3 1
     4    5    4 2
     5    6    4 2
     6    7    3 1
     7    8    7 1
     8    9    1 1
     9   10    9 1
    10   11   10 2
    11   12   10 2
    12   13    7 1
    13   14    7 1
    14   15    8 1
    15   16    8 1
    16    8    9 1
@<TRIPOS>SUBSTRUCTURE
     1 RES1 1

@<TRIPOS>CRYSIN
   5.9120    7.9280   13.9510  90.0000  90.0000  90.0000  19 1

