# MOL2 file generated by ConQuest
# Please check atom types

@<TRIPOS>MOLECULE
JEDTAN
    28    30     2
SMALL
NO_CHARGES
****
Generated from CSD

@<TRIPOS>ATOM
      1 C1         1.8208    2.8102    8.2910 C.3       1 RES1    0.0000
      2 C2         2.0852    2.8205    9.7847 C.2       1 RES1    0.0000
      3 O1         3.1054    3.1849   10.3406 O.2       1 RES1    0.0000
      4 C3         0.8752    2.1467   10.4142 C.3       1 RES1    0.0000
      5 C4         0.1527    1.7325    9.1467 C.3       1 RES1    0.0000
      6 O2         0.3759    2.8583    8.2708 O.3       1 RES1    0.0000
      7 C5         0.9045    0.6239    8.4457 C.3       1 RES1    0.0000
      8 O3         0.1880    0.0877    7.3084 O.3       1 RES1    0.0000
      9 C6         2.1028    1.3819    7.8355 C.3       1 RES1    0.0000
     10 N1         0.8047    0.5105    6.1103 N.2       1 RES1    0.0000
     11 C7         1.8561    1.1911    6.3716 C.2       1 RES1    0.0000
     12 C8         2.6643    1.7841    5.3101 C.ar      1 RES1    0.0000
     13 C9         2.2203    1.7669    3.9807 C.ar      1 RES1    0.0000
     14 C10        3.0015    2.3685    3.0044 C.ar      1 RES1    0.0000
     15 C11        4.2056    2.9786    3.3000 C.ar      1 RES1    0.0000
     16 C12        4.6402    3.0010    4.6155 C.ar      1 RES1    0.0000
     17 C13        3.8766    2.3839    5.5928 C.ar      1 RES1    0.0000
     18 H1         2.2320    3.6954    7.7992 H         1 RES1    0.0000
     19 H2        -0.8282    1.6328    9.1969 H         1 RES1    0.0000
     20 H3         1.2041   -0.1719    9.0688 H         1 RES1    0.0000
     21 H4         2.9251    0.9969    7.9806 H         1 RES1    0.0000
     22 H5         0.4170    2.9219   10.9466 H         1 RES1    0.0000
     23 H6         1.1512    1.2547   10.8719 H         1 RES1    0.0000
     24 H7         2.7606    2.3375    2.0698 H         1 RES1    0.0000
     25 H8         4.8164    3.3688    2.6460 H         1 RES1    0.0000
     26 H9         5.5213    3.3344    5.0145 H         1 RES1    0.0000
     27 H10        4.1116    2.4750    6.5189 H         1 RES1    0.0000
     28 H11        1.2922    1.3922    3.6915 Du        2 SUP2    0.0000
@<TRIPOS>BOND
     1    1    2 1
     2    2    3 2
     3    4    2 1
     4    5    4 1
     5    6    1 1
     6    7    5 1
     7    8    7 1
     8    9    1 1
     9   10    8 1
    10   11    9 1
    11   12   11 1
    12   13   12 ar
    13   14   13 ar
    14   15   14 ar
    15   16   15 ar
    16   17   12 ar
    17   18    1 1
    18   19    5 1
    19   20    7 1
    20   21    9 1
    21   22    4 1
    22   23    4 1
    23   24   14 1
    24   25   15 1
    25   26   16 1
    26   27   17 1
    27    5    6 1
    28    7    9 1
    29   10   11 2
    30   16   17 ar
@<TRIPOS>SUBSTRUCTURE
     1 RES1 1
     2 SUP2 28

@<TRIPOS>CRYSIN
   5.8737   17.1877   10.6692  90.0000  90.0000  90.0000  33 1

