# MOL2 file generated by ConQuest
# Please check atom types

@<TRIPOS>MOLECULE
JEDVUJ
    29    29     2
SMALL
NO_CHARGES
****
Generated from CSD

@<TRIPOS>ATOM
      1 O1       -13.7155   -0.9902   -5.0684 O.2       1 RES1    0.0000
      2 O2       -14.3095   -4.5012   -1.0730 O.2       1 RES1    0.0000
      3 O3       -13.3278   -5.3543   -3.4215 O.3       1 RES1    0.0000
      4 N1       -13.7765   -4.0572   -3.2258 N.am      1 RES1    0.0000
      5 N2       -14.2950   -1.4028   -2.9262 N.am      1 RES1    0.0000
      6 C1       -13.5703   -3.2146   -4.3472 C.3       1 RES1    0.0000
      7 C2       -13.8942   -1.7724   -4.1332 C.2       1 RES1    0.0000
      8 C3       -14.6639   -2.2977   -1.8470 C.3       1 RES1    0.0000
      9 C4       -14.2151   -3.7214   -2.0163 C.2       1 RES1    0.0000
     10 C5       -16.2004   -2.2419   -1.6154 C.3       1 RES1    0.0000
     11 C6       -16.9716   -2.7114   -2.8224 C.ar      1 RES1    0.0000
     12 C7       -17.4871   -1.8188   -3.7343 C.ar      1 RES1    0.0000
     13 C8       -18.1784   -2.2407   -4.8714 C.ar      1 RES1    0.0000
     14 C9       -18.3658   -3.5819   -5.0734 C.ar      1 RES1    0.0000
     15 C10      -17.8676   -4.4791   -4.1924 C.ar      1 RES1    0.0000
     16 C11      -17.1662   -4.0700   -3.0496 C.ar      1 RES1    0.0000
     17 H1       -13.4338   -6.2759   -3.4926 H         1 RES1    0.0000
     18 H2       -15.3944   -5.8691   -4.4051 Du        2 SUP2    0.0000
     19 H3       -14.3564   -0.4219   -2.7426 H         1 RES1    0.0000
     20 H4       -12.5310   -3.2988   -4.6488 H         1 RES1    0.0000
     21 H5       -14.1835   -3.5956   -5.1692 H         1 RES1    0.0000
     22 H6       -14.1371   -1.9062   -0.9793 H         1 RES1    0.0000
     23 H7       -16.4393   -2.8855   -0.7562 H         1 RES1    0.0000
     24 H8       -16.4951   -1.2346   -1.3571 H         1 RES1    0.0000
     25 H9       -17.3771   -0.7572   -3.5352 H         1 RES1    0.0000
     26 H10      -18.5550   -1.5219   -5.5875 H         1 RES1    0.0000
     27 H11      -18.9246   -3.9270   -5.9598 H         1 RES1    0.0000
     28 H12      -18.0017   -5.5665   -4.3902 H         1 RES1    0.0000
     29 H13      -16.8162   -4.7945   -2.3061 H         1 RES1    0.0000
@<TRIPOS>BOND
     1    1    7 2
     2    2    9 2
     3    3    4 1
     4    4    6 1
     5    5    7 1
     6    6    7 1
     7    8    5 1
     8    9    4 1
     9   10    8 1
    10   11   10 1
    11   12   11 ar
    12   13   12 ar
    13   14   13 ar
    14   15   14 ar
    15   16   11 ar
    16   17    3 1
    17   19    5 1
    18   20    6 1
    19   21    6 1
    20   22    8 1
    21   23   10 1
    22   24   10 1
    23   25   12 1
    24   26   13 1
    25   27   14 1
    26   28   15 1
    27   29   16 1
    28    8    9 1
    29   15   16 ar
@<TRIPOS>SUBSTRUCTURE
     1 RES1 1
     2 SUP2 18

@<TRIPOS>CRYSIN
  14.5230   11.6220    6.2930  90.0000  90.0000  90.0000  19 1

