# MOL2 file generated by ConQuest
# Please check atom types

@<TRIPOS>MOLECULE
JEDWOH
    45    46     1
SMALL
NO_CHARGES
****
Generated from CSD

@<TRIPOS>ATOM
      1 O1         6.2944    3.5501    4.1210 O.3       1 RES1    0.0000
      2 O2         9.6730    6.0009    1.5580 O.3       1 RES1    0.0000
      3 O3         8.0968    4.9974    6.3341 O.2       1 RES1    0.0000
      4 O4        11.7748    3.5182    2.5574 O.2       1 RES1    0.0000
      5 O5        12.1095    4.1536    4.5977 O.2       1 RES1    0.0000
      6 N1        11.3790    3.8918    3.6527 N.pl3     1 RES1    0.0000
      7 C1         6.0281    0.0597    0.6854 C.ar      1 RES1    0.0000
      8 H1         6.1773   -0.7250    0.1714 H         1 RES1    0.0000
      9 C2         6.9096    1.1320    0.5886 C.ar      1 RES1    0.0000
     10 H2         7.6557    1.0834    0.0024 H         1 RES1    0.0000
     11 C3         6.6967    2.2626    1.3438 C.ar      1 RES1    0.0000
     12 H3         7.2973    2.9952    1.2766 H         1 RES1    0.0000
     13 C4         5.6081    2.3376    2.2044 C.ar      1 RES1    0.0000
     14 C5         5.3869    3.5710    3.0255 C.3       1 RES1    0.0000
     15 H4         5.5416    4.3779    2.4724 H         1 RES1    0.0000
     16 H5         4.4542    3.5939    3.3585 H         1 RES1    0.0000
     17 C6         6.0947    4.6161    5.0538 C.3       1 RES1    0.0000
     18 H6         5.5417    5.3301    4.6253 H         1 RES1    0.0000
     19 C7         7.5101    5.1446    5.2845 C.2       1 RES1    0.0000
     20 C8         8.1222    5.8690    4.0995 C.3       1 RES1    0.0000
     21 H7         7.6646    5.5662    3.2643 H         1 RES1    0.0000
     22 C9         9.6335    5.6085    3.9610 C.3       1 RES1    0.0000
     23 H8        10.0885    5.9440    4.7856 H         1 RES1    0.0000
     24 C10       10.1899    6.3370    2.7858 C.2       1 RES1    0.0000
     25 C11       10.3070    6.7989    0.6407 C.2       1 RES1    0.0000
     26 H9        10.1446    6.7815   -0.2950 H         1 RES1    0.0000
     27 C12        4.9366    0.1347    1.5287 C.ar      1 RES1    0.0000
     28 H10        4.3287   -0.5924    1.5875 H         1 RES1    0.0000
     29 C13        4.7323    1.2757    2.2883 C.ar      1 RES1    0.0000
     30 H11        3.9835    1.3271    2.8701 H         1 RES1    0.0000
     31 C14        5.4048    4.1377    6.3089 C.3       1 RES1    0.0000
     32 H12        4.4987    3.8376    6.0891 H         1 RES1    0.0000
     33 H13        5.3588    4.8724    6.9557 H         1 RES1    0.0000
     34 H14        5.9116    3.3932    6.6962 H         1 RES1    0.0000
     35 C15        7.8442    7.3704    4.3026 C.3       1 RES1    0.0000
     36 H15        6.8807    7.5114    4.4160 H         1 RES1    0.0000
     37 H16        8.1581    7.8690    3.5201 H         1 RES1    0.0000
     38 H17        8.3166    7.6843    5.1014 H         1 RES1    0.0000
     39 C16        9.9064    4.1008    3.8358 C.3       1 RES1    0.0000
     40 H18        9.5980    3.6328    4.6522 H         1 RES1    0.0000
     41 H19        9.4145    3.7314    3.0599 H         1 RES1    0.0000
     42 C17       11.1142    7.3065    2.6522 C.2       1 RES1    0.0000
     43 H20       11.6166    7.7114    3.3487 H         1 RES1    0.0000
     44 C18       11.1920    7.6093    1.2520 C.2       1 RES1    0.0000
     45 H21       11.7556    8.2531    0.8384 H         1 RES1    0.0000
@<TRIPOS>BOND
     1    1   14 1
     2    2   24 1
     3    3   19 2
     4    4    6 2
     5    5    6 2
     6    6   39 1
     7    7    8 1
     8    9    7 ar
     9   10    9 1
    10   11    9 ar
    11   12   11 1
    12   13   11 ar
    13   14   13 1
    14   15   14 1
    15   16   14 1
    16   17    1 1
    17   18   17 1
    18   19   17 1
    19   20   19 1
    20   21   20 1
    21   22   20 1
    22   23   22 1
    23   24   22 1
    24   25    2 1
    25   26   25 1
    26   27    7 ar
    27   28   27 1
    28   29   13 ar
    29   30   29 1
    30   31   17 1
    31   32   31 1
    32   33   31 1
    33   34   31 1
    34   35   20 1
    35   36   35 1
    36   37   35 1
    37   38   35 1
    38   39   22 1
    39   40   39 1
    40   41   39 1
    41   42   24 2
    42   43   42 1
    43   44   25 2
    44   45   44 1
    45   27   29 ar
    46   42   44 1
@<TRIPOS>SUBSTRUCTURE
     1 RES1 1

@<TRIPOS>CRYSIN
  10.0091    6.9447   12.2885  90.0000  95.1230  90.0000   4 1

