# MOL2 file generated by ConQuest
# Please check atom types

@<TRIPOS>MOLECULE
JEGBOP
    52    55     1
SMALL
NO_CHARGES
****
Generated from CSD

@<TRIPOS>ATOM
      1 H1         1.1327   14.5972    9.1603 H         1 RES1    0.0000
      2 O1        -0.3656   12.9564    9.6406 O.2       1 RES1    0.0000
      3 O2         1.4327   12.9438    6.6803 O.2       1 RES1    0.0000
      4 N1        -1.7949   10.0960    6.3061 N.ar      1 RES1    0.0000
      5 C1        -0.1698   12.7728    8.4676 C.2       1 RES1    0.0000
      6 N2         1.5785   14.3927    8.4485 N.am      1 RES1    0.0000
      7 O3        -3.8362   10.2676    5.2018 O.3       1 RES1    0.0000
      8 O4        -1.5498   14.8433    7.4936 O.3       1 RES1    0.0000
      9 C2        -0.9182   10.7271    7.1179 C.ar      1 RES1    0.0000
     10 C3        -1.1677   12.0328    7.6060 C.ar      1 RES1    0.0000
     11 C4         0.3254    9.9922    7.4252 C.ar      1 RES1    0.0000
     12 C5        -2.3540   12.6904    7.2988 C.ar      1 RES1    0.0000
     13 C6         1.0555   13.3776    7.7614 C.2       1 RES1    0.0000
     14 C7        -3.2759   12.0229    6.4847 C.ar      1 RES1    0.0000
     15 C8        -2.8944   10.7713    6.0406 C.ar      1 RES1    0.0000
     16 C9         2.6266   15.2628    8.0477 C.ar      1 RES1    0.0000
     17 C10        2.5679   16.5774    8.4558 C.ar      1 RES1    0.0000
     18 H2         1.8573   16.8711    8.9775 H         1 RES1    0.0000
     19 C11       -2.6088   14.0971    7.7429 C.2       1 RES1    0.0000
     20 C12        3.6876   14.8330    7.2659 C.ar      1 RES1    0.0000
     21 H3         3.7332   13.9459    6.9895 H         1 RES1    0.0000
     22 C13        0.9157    9.9958    8.6817 C.ar      1 RES1    0.0000
     23 H4         0.5273   10.4932    9.3643 H         1 RES1    0.0000
     24 C14        2.6598    8.5389    7.9426 C.ar      1 RES1    0.0000
     25 C15        2.0701    9.2748    8.9438 C.ar      1 RES1    0.0000
     26 H5         2.4450    9.2878    9.7949 H         1 RES1    0.0000
     27 O5         3.8093    7.8078    8.0825 O.3       1 RES1    0.0000
     28 C16        4.6190   17.0330    7.3030 C.ar      1 RES1    0.0000
     29 H6         5.2840   17.6328    7.0510 H         1 RES1    0.0000
     30 N3        -4.8718   11.2506    5.0841 N.2       1 RES1    0.0000
     31 O6        -3.6278   14.4712    8.2485 O.2       1 RES1    0.0000
     32 C17        4.6802   15.7290    6.8976 C.ar      1 RES1    0.0000
     33 H7         5.3906   15.4409    6.3718 H         1 RES1    0.0000
     34 C18       -4.5368   12.2666    5.8299 C.2       1 RES1    0.0000
     35 C19        3.5655   17.4561    8.0893 C.ar      1 RES1    0.0000
     36 H8         3.5291   18.3413    8.3732 H         1 RES1    0.0000
     37 C20        0.9426    9.2392    6.4291 C.ar      1 RES1    0.0000
     38 H9         0.5689    9.2173    5.5780 H         1 RES1    0.0000
     39 C21        2.0885    8.5296    6.6743 C.ar      1 RES1    0.0000
     40 H10        2.4852    8.0404    5.9909 H         1 RES1    0.0000
     41 C22       -1.5943   16.2365    7.8803 C.3       1 RES1    0.0000
     42 H11       -2.4822   16.5778    7.7463 H         1 RES1    0.0000
     43 H12       -0.9752   16.7378    7.3451 H         1 RES1    0.0000
     44 H13       -1.3575   16.3188    8.8072 H         1 RES1    0.0000
     45 C23       -5.4347   13.4485    5.8746 C.3       1 RES1    0.0000
     46 H14       -6.1972   13.2927    5.3133 H         1 RES1    0.0000
     47 H15       -4.9611   14.2221    5.5619 H         1 RES1    0.0000
     48 H16       -5.7260   13.5936    6.7771 H         1 RES1    0.0000
     49 C24        4.4899    7.8473    9.3323 C.3       1 RES1    0.0000
     50 H17        4.6715    8.7602    9.5691 H         1 RES1    0.0000
     51 H18        5.3167    7.3643    9.2615 H         1 RES1    0.0000
     52 H19        3.9421    7.4443   10.0090 H         1 RES1    0.0000
@<TRIPOS>BOND
     1    1    6 1
     2    2    5 2
     3    3   13 2
     4    4    9 ar
     5    5   10 1
     6    6   13 1
     7    7   15 1
     8    8   19 1
     9    9   10 ar
    10   10   12 ar
    11   11    9 1
    12   12   14 ar
    13   13    5 1
    14   14   15 ar
    15   15    4 ar
    16   16    6 1
    17   17   16 ar
    18   18   17 1
    19   19   12 1
    20   20   16 ar
    21   21   20 1
    22   22   11 ar
    23   23   22 1
    24   24   25 ar
    25   25   22 ar
    26   26   25 1
    27   27   24 1
    28   28   29 1
    29   30    7 1
    30   31   19 2
    31   32   20 ar
    32   33   32 1
    33   34   14 1
    34   35   17 ar
    35   36   35 1
    36   37   11 ar
    37   38   37 1
    38   39   24 ar
    39   40   39 1
    40   41    8 1
    41   42   41 1
    42   43   41 1
    43   44   41 1
    44   45   34 1
    45   46   45 1
    46   47   45 1
    47   48   45 1
    48   49   27 1
    49   50   49 1
    50   51   49 1
    51   52   49 1
    52   28   32 ar
    53   28   35 ar
    54   30   34 2
    55   37   39 ar
@<TRIPOS>SUBSTRUCTURE
     1 RES1 1

@<TRIPOS>CRYSIN
  13.4670   19.0440    8.6440  90.0000 102.8600  90.0000  14 1

