# MOL2 file generated by ConQuest
# Please check atom types

@<TRIPOS>MOLECULE
JEGTAT
    58    62     1
SMALL
NO_CHARGES
****
Generated from CSD

@<TRIPOS>ATOM
      1 O1        -0.1162    4.4834    5.7378 O.2       1 RES1    0.0000
      2 O2        -1.9066    6.2818   11.0224 O.2       1 RES1    0.0000
      3 N1         3.4495    3.7138    5.2301 N.pl3     1 RES1    0.0000
      4 O3         3.0812    4.6512    5.8975 O.2       1 RES1    0.0000
      5 O4        -2.2974    2.2207    7.5309 O.2       1 RES1    0.0000
      6 N2        -2.0868    4.0556   10.6497 N.am      1 RES1    0.0000
      7 N3         1.7417    2.9253    8.4061 N.pl3     1 RES1    0.0000
      8 H1         2.0781    2.2146    8.0594 H         1 RES1    0.0000
      9 N4        -2.2969    4.4624    7.9360 N.am      1 RES1    0.0000
     10 H2        -2.6498    4.6309    7.1699 H         1 RES1    0.0000
     11 C1        -1.9620    5.3213   10.2343 C.2       1 RES1    0.0000
     12 O5         4.5685    3.6698    4.7276 O.2       1 RES1    0.0000
     13 C2         0.9228    3.8512    7.7503 C.2       1 RES1    0.0000
     14 C3         0.5684    4.8563    8.6385 C.2       1 RES1    0.0000
     15 C4        -1.8439    5.5880    8.7424 C.3       1 RES1    0.0000
     16 H3        -2.4156    6.3555    8.5307 H         1 RES1    0.0000
     17 C5        -3.4175    3.9047   12.7883 C.ar      1 RES1    0.0000
     18 C6         1.2769    2.5970    5.5391 C.ar      1 RES1    0.0000
     19 C7         2.5374    2.5842    4.9873 C.ar      1 RES1    0.0000
     20 C8         1.9144    3.3524    9.7110 C.ar      1 RES1    0.0000
     21 C9        -4.6004    4.0231   12.1261 C.ar      1 RES1    0.0000
     22 H4        -4.6043    4.0888   11.1990 H         1 RES1    0.0000
     23 C10        1.2281    4.5450    9.8811 C.ar      1 RES1    0.0000
     24 C11       -0.3865    5.9765    8.3996 C.3       1 RES1    0.0000
     25 H5        -0.3378    6.2418    7.4673 H         1 RES1    0.0000
     26 H6        -0.1250    6.7386    8.9397 H         1 RES1    0.0000
     27 C12        0.6553    3.7355    6.3260 C.2       1 RES1    0.0000
     28 C13        0.4510    1.5134    5.2587 C.ar      1 RES1    0.0000
     29 H7        -0.4029    1.4850    5.6261 H         1 RES1    0.0000
     30 C14       -3.4351    3.8235   14.1763 C.ar      1 RES1    0.0000
     31 H8        -2.6353    3.7226   14.6398 H         1 RES1    0.0000
     32 C15       -2.0780    3.7659   12.0923 C.3       1 RES1    0.0000
     33 H9        -1.4456    4.3636   12.5208 H         1 RES1    0.0000
     34 H10       -1.7572    2.8603   12.2209 H         1 RES1    0.0000
     35 C16       -2.1991    3.1954    8.3087 C.2       1 RES1    0.0000
     36 C17        1.2907    5.2117   11.1315 C.ar      1 RES1    0.0000
     37 H11        0.8254    6.0036   11.2782 H         1 RES1    0.0000
     38 C18        2.9817    1.5649    4.1511 C.ar      1 RES1    0.0000
     39 H12        3.8320    1.5892    3.7732 H         1 RES1    0.0000
     40 C19        2.7058    2.7818   10.7277 C.ar      1 RES1    0.0000
     41 H13        3.1800    1.9933   10.5978 H         1 RES1    0.0000
     42 C20       -5.7918    4.0475   12.8142 C.ar      1 RES1    0.0000
     43 H14       -6.5939    4.1084   12.3468 H         1 RES1    0.0000
     44 C21        2.0614    4.6472   12.1183 C.ar      1 RES1    0.0000
     45 H15        2.1319    5.0763   12.9402 H         1 RES1    0.0000
     46 C22        2.1186    0.5130    3.8992 C.ar      1 RES1    0.0000
     47 H16        2.3947   -0.1821    3.3474 H         1 RES1    0.0000
     48 C23        0.8728    0.4785    4.4445 C.ar      1 RES1    0.0000
     49 H17        0.3073   -0.2389    4.2718 H         1 RES1    0.0000
     50 C24       -2.0048    2.9070    9.7681 C.3       1 RES1    0.0000
     51 H18       -2.6745    2.2620   10.0447 H         1 RES1    0.0000
     52 H19       -1.1357    2.4935    9.8850 H         1 RES1    0.0000
     53 C25       -5.8055    3.9825   14.2088 C.ar      1 RES1    0.0000
     54 H20       -6.6095    4.0022   14.6762 H         1 RES1    0.0000
     55 C26        2.7344    3.4580   11.9196 C.ar      1 RES1    0.0000
     56 H21        3.2264    3.1006   12.6234 H         1 RES1    0.0000
     57 C27       -4.6156    3.8898   14.8736 C.ar      1 RES1    0.0000
     58 H22       -4.6062    3.8715   15.8032 H         1 RES1    0.0000
@<TRIPOS>BOND
     1    1   27 2
     2    2   11 2
     3    3    4 2
     4    5   35 2
     5    6   11 1
     6    7    8 1
     7    9   10 1
     8   11   15 1
     9   12    3 2
    10   13    7 1
    11   14   13 2
    12   15    9 1
    13   16   15 1
    14   17   21 ar
    15   18   19 ar
    16   19    3 1
    17   20    7 1
    18   21   22 1
    19   23   14 1
    20   24   14 1
    21   25   24 1
    22   26   24 1
    23   27   13 1
    24   28   18 ar
    25   29   28 1
    26   30   17 ar
    27   31   30 1
    28   32    6 1
    29   33   32 1
    30   34   32 1
    31   35    9 1
    32   36   23 ar
    33   37   36 1
    34   38   19 ar
    35   39   38 1
    36   40   20 ar
    37   41   40 1
    38   42   21 ar
    39   43   42 1
    40   44   36 ar
    41   45   44 1
    42   46   38 ar
    43   47   46 1
    44   48   28 ar
    45   49   48 1
    46   50    6 1
    47   51   50 1
    48   52   50 1
    49   53   42 ar
    50   54   53 1
    51   55   40 ar
    52   56   55 1
    53   57   30 ar
    54   58   57 1
    55   15   24 1
    56   17   32 1
    57   18   27 1
    58   20   23 ar
    59   35   50 1
    60   44   55 ar
    61   46   48 ar
    62   53   57 ar
@<TRIPOS>SUBSTRUCTURE
     1 RES1 1

@<TRIPOS>CRYSIN
  13.2852    6.7684   14.0755  90.0000 112.7090  90.0000   4 1

