# MOL2 file generated by ConQuest
# Please check atom types

@<TRIPOS>MOLECULE
JEGVEZ
    53    54     1
SMALL
NO_CHARGES
****
Generated from CSD

@<TRIPOS>ATOM
      1 O1        -0.2706    8.6190    5.5883 O.3       1 RES1    0.0000
      2 O2         2.6225   12.6750    7.1513 O.3       1 RES1    0.0000
      3 N1         1.7940    9.3997    5.6672 N.am      1 RES1    0.0000
      4 H1         1.7745    9.1486    4.8368 H         1 RES1    0.0000
      5 O3         0.5500    9.3632    7.5873 O.2       1 RES1    0.0000
      6 N2         2.8039   12.2292    5.8341 N.am      1 RES1    0.0000
      7 O4         2.6710   14.3505    4.9521 O.2       1 RES1    0.0000
      8 C1         0.6767    9.1436    6.3890 C.2       1 RES1    0.0000
      9 C2         4.0908    8.6839    6.2883 C.ar      1 RES1    0.0000
     10 C3         3.0404    9.7860    6.3015 C.3       1 RES1    0.0000
     11 H2         2.8376    9.9950    7.2576 H         1 RES1    0.0000
     12 C4        -1.6714    8.5362    6.0456 C.3       1 RES1    0.0000
     13 C5         3.6508   11.0533    5.6712 C.3       1 RES1    0.0000
     14 H3         4.5357   11.2321    6.1009 H         1 RES1    0.0000
     15 C6         3.8158   12.5327    3.7393 C.3       1 RES1    0.0000
     16 C7         3.8354   11.0448    4.1486 C.3       1 RES1    0.0000
     17 H4         3.0991   10.5495    3.7081 H         1 RES1    0.0000
     18 H5         4.6963   10.6243    3.9015 H         1 RES1    0.0000
     19 C8         3.0300   13.1898    4.8711 C.2       1 RES1    0.0000
     20 C9         6.1287    6.7662    6.2427 C.ar      1 RES1    0.0000
     21 H6         6.8247    6.1200    6.2179 H         1 RES1    0.0000
     22 C10       -2.1778    9.9322    6.3769 C.3       1 RES1    0.0000
     23 H7        -1.7509   10.2479    7.2015 H         1 RES1    0.0000
     24 H8        -3.1502    9.9060    6.5013 H         1 RES1    0.0000
     25 H9        -1.9594   10.5423    5.6415 H         1 RES1    0.0000
     26 C11        5.2188    8.8220    7.1034 C.ar      1 RES1    0.0000
     27 H10        5.2878    9.5688    7.6861 H         1 RES1    0.0000
     28 C12        3.9859    7.5654    5.4660 C.ar      1 RES1    0.0000
     29 H11        3.2222    7.4568    4.9113 H         1 RES1    0.0000
     30 C13       -1.8027    7.5578    7.2053 C.3       1 RES1    0.0000
     31 H12       -1.3322    6.7267    6.9858 H         1 RES1    0.0000
     32 H13       -2.7510    7.3654    7.3640 H         1 RES1    0.0000
     33 H14       -1.4104    7.9531    8.0120 H         1 RES1    0.0000
     34 C14        5.2283   13.1403    3.7682 C.3       1 RES1    0.0000
     35 H15        5.6553   12.9322    4.6250 H         1 RES1    0.0000
     36 H16        5.1678   14.1122    3.6607 H         1 RES1    0.0000
     37 H17        5.7603   12.7636    3.0369 H         1 RES1    0.0000
     38 C15        6.2402    7.8783    7.0701 C.ar      1 RES1    0.0000
     39 H18        7.0118    7.9934    7.6116 H         1 RES1    0.0000
     40 C16       -2.3910    7.9903    4.8207 C.3       1 RES1    0.0000
     41 H19       -2.2393    8.5882    4.0592 H         1 RES1    0.0000
     42 H20       -3.3520    7.9341    5.0051 H         1 RES1    0.0000
     43 H21       -2.0460    7.0983    4.6095 H         1 RES1    0.0000
     44 C17        1.2219   12.8035    7.4417 C.3       1 RES1    0.0000
     45 H22        0.8032   13.3904    6.7779 H         1 RES1    0.0000
     46 H23        1.1073   13.1874    8.3360 H         1 RES1    0.0000
     47 H24        0.7996   11.9195    7.4094 H         1 RES1    0.0000
     48 C18        4.9973    6.6025    5.4525 C.ar      1 RES1    0.0000
     49 H25        4.9111    5.8339    4.9016 H         1 RES1    0.0000
     50 C19        3.1641   12.7834    2.3847 C.3       1 RES1    0.0000
     51 H26        3.6812   12.3314    1.6848 H         1 RES1    0.0000
     52 H27        3.1443   13.7466    2.2051 H         1 RES1    0.0000
     53 H28        2.2479   12.4335    2.3928 H         1 RES1    0.0000
@<TRIPOS>BOND
     1    1    8 1
     2    2    6 1
     3    3    4 1
     4    5    8 2
     5    6   13 1
     6    7   19 2
     7    8    3 1
     8    9   10 1
     9   10    3 1
    10   11   10 1
    11   12    1 1
    12   13   10 1
    13   14   13 1
    14   15   16 1
    15   16   13 1
    16   17   16 1
    17   18   16 1
    18   19    6 1
    19   20   21 1
    20   22   12 1
    21   23   22 1
    22   24   22 1
    23   25   22 1
    24   26    9 ar
    25   27   26 1
    26   28    9 ar
    27   29   28 1
    28   30   12 1
    29   31   30 1
    30   32   30 1
    31   33   30 1
    32   34   15 1
    33   35   34 1
    34   36   34 1
    35   37   34 1
    36   38   20 ar
    37   39   38 1
    38   40   12 1
    39   41   40 1
    40   42   40 1
    41   43   40 1
    42   44    2 1
    43   45   44 1
    44   46   44 1
    45   47   44 1
    46   48   20 ar
    47   49   48 1
    48   50   15 1
    49   51   50 1
    50   52   50 1
    51   53   50 1
    52   15   19 1
    53   26   38 ar
    54   28   48 ar
@<TRIPOS>SUBSTRUCTURE
     1 RES1 1

@<TRIPOS>CRYSIN
  16.6582   11.8720   10.1303  90.0000 107.3070  90.0000  14 1

