# MOL2 file generated by ConQuest
# Please check atom types

@<TRIPOS>MOLECULE
JEGVOJ
    51    53     1
SMALL
NO_CHARGES
****
Generated from CSD

@<TRIPOS>ATOM
      1 O1         6.2699    3.7144    2.0795 O.2       1 RES1    0.0000
      2 O2         7.9637    5.8586    1.4531 O.3       1 RES1    0.0000
      3 O3         3.1551    8.1612   -0.2901 O.2       1 RES1    0.0000
      4 O4         3.3980    6.4758   -1.8112 O.3       1 RES1    0.0000
      5 O5         1.7681    4.3642    2.7610 O.2       1 RES1    0.0000
      6 O6         5.7820    4.9916    4.8764 O.2       1 RES1    0.0000
      7 N1         6.6188    5.9649    1.7835 N.am      1 RES1    0.0000
      8 N2         5.1109    7.0335   -0.5235 N.am      1 RES1    0.0000
      9 H1         5.5184    6.4138   -0.9639 H         1 RES1    0.0000
     10 N3         3.9171    4.7781    3.5208 N.am      1 RES1    0.0000
     11 C1         5.8920    4.8790    2.0604 C.2       1 RES1    0.0000
     12 C2         4.4732    5.4021    2.3339 C.3       1 RES1    0.0000
     13 H2         3.8893    5.1927    1.5497 H         1 RES1    0.0000
     14 C3         4.6317    6.9250    2.4511 C.3       1 RES1    0.0000
     15 H3         4.6328    7.2009    3.4017 H         1 RES1    0.0000
     16 H4         3.8880    7.3870    1.9877 H         1 RES1    0.0000
     17 C4         5.9752    7.2713    1.7891 C.3       1 RES1    0.0000
     18 H5         6.4878    7.8938    2.3792 H         1 RES1    0.0000
     19 C5         5.8807    7.8588    0.3912 C.3       1 RES1    0.0000
     20 H6         5.4626    8.7547    0.4460 H         1 RES1    0.0000
     21 H7         6.7944    7.9748    0.0280 H         1 RES1    0.0000
     22 C6         8.7485    6.0395    2.6581 C.3       1 RES1    0.0000
     23 H8         9.7005    6.0668    2.4271 H         1 RES1    0.0000
     24 H9         8.5828    5.2929    3.2712 H         1 RES1    0.0000
     25 H10        8.4936    6.8812    3.0914 H         1 RES1    0.0000
     26 C7         3.8207    7.3029   -0.8204 C.2       1 RES1    0.0000
     27 C8         1.9549    6.3832   -2.1221 C.3       1 RES1    0.0000
     28 C9         1.4292    7.7043   -2.6545 C.3       1 RES1    0.0000
     29 H11        1.9736    7.9879   -3.4190 H         1 RES1    0.0000
     30 H12        1.4769    8.3835   -1.9491 H         1 RES1    0.0000
     31 H13        0.4975    7.5944   -2.9383 H         1 RES1    0.0000
     32 C10        1.2097    5.9151   -0.8972 C.3       1 RES1    0.0000
     33 H14        1.2109    6.6252   -0.2223 H         1 RES1    0.0000
     34 H15        1.6492    5.1179   -0.5325 H         1 RES1    0.0000
     35 H16        0.2854    5.6965   -1.1410 H         1 RES1    0.0000
     36 C11        1.9207    5.3283   -3.2153 C.3       1 RES1    0.0000
     37 H17        2.2651    4.4816   -2.8625 H         1 RES1    0.0000
     38 H18        2.4766    5.6197   -3.9675 H         1 RES1    0.0000
     39 H19        0.9976    5.2039   -3.5201 H         1 RES1    0.0000
     40 C12        2.5967    4.3362    3.6453 C.2       1 RES1    0.0000
     41 C13        2.4666    3.8364    5.0398 C.ar      1 RES1    0.0000
     42 C14        1.3821    3.3003    5.6953 C.ar      1 RES1    0.0000
     43 H20        0.5430    3.2018    5.2616 H         1 RES1    0.0000
     44 C15        1.5628    2.9075    7.0167 C.ar      1 RES1    0.0000
     45 H21        0.8349    2.5352    7.4996 H         1 RES1    0.0000
     46 C16        2.8005    3.0536    7.6425 C.ar      1 RES1    0.0000
     47 H22        2.9006    2.7658    8.5421 H         1 RES1    0.0000
     48 C17        3.8866    3.6057    6.9881 C.ar      1 RES1    0.0000
     49 H23        4.7252    3.7107    7.4211 H         1 RES1    0.0000
     50 C18        3.6960    3.9980    5.6772 C.ar      1 RES1    0.0000
     51 C19        4.6315    4.6375    4.7226 C.2       1 RES1    0.0000
@<TRIPOS>BOND
     1    1   11 2
     2    2    7 1
     3    3   26 2
     4    4   26 1
     5    5   40 2
     6    6   51 2
     7    7   11 1
     8    8    9 1
     9   10   12 1
    10   11   12 1
    11   12   13 1
    12   14   12 1
    13   15   14 1
    14   16   14 1
    15   17    7 1
    16   18   17 1
    17   19    8 1
    18   20   19 1
    19   21   19 1
    20   22    2 1
    21   23   22 1
    22   24   22 1
    23   25   22 1
    24   26    8 1
    25   27    4 1
    26   28   27 1
    27   29   28 1
    28   30   28 1
    29   31   28 1
    30   32   27 1
    31   33   32 1
    32   34   32 1
    33   35   32 1
    34   36   27 1
    35   37   36 1
    36   38   36 1
    37   39   36 1
    38   40   10 1
    39   41   40 1
    40   42   41 ar
    41   43   42 1
    42   44   42 ar
    43   45   44 1
    44   46   44 ar
    45   47   46 1
    46   48   46 ar
    47   49   48 1
    48   50   41 ar
    49   51   10 1
    50   14   17 1
    51   17   19 1
    52   48   50 ar
    53   50   51 1
@<TRIPOS>SUBSTRUCTURE
     1 RES1 1

@<TRIPOS>CRYSIN
  14.2012   10.1164   13.3572  90.0000  94.6240  90.0000  14 1

