# MOL2 file generated by ConQuest
# Please check atom types

@<TRIPOS>MOLECULE
JEHLAJ
    28    29     1
SMALL
NO_CHARGES
****
Generated from CSD

@<TRIPOS>ATOM
      1 C1         2.3271   -0.4815    3.5693 C.3       1 RES1    0.0000
      2 N1         2.5614    0.5146    2.5699 N.pl3     1 RES1    0.0000
      3 C2         3.8394    1.2127    2.4074 C.3       1 RES1    0.0000
      4 C3         4.7318    0.8589    3.5709 C.3       1 RES1    0.0000
      5 N2         3.9874    0.8826    4.8156 N.pl3     1 RES1    0.0000
      6 C4         2.9427   -0.1097    4.9276 C.3       1 RES1    0.0000
      7 N3         3.4915   -1.4010    5.3591 N.am      1 RES1    0.0000
      8 C5         3.4850   -2.4075    4.4212 C.2       1 RES1    0.0000
      9 N4         3.0022   -1.7566    3.2435 N.am      1 RES1    0.0000
     10 N5         1.4850    1.0037    1.8505 N.pl3     1 RES1    0.0000
     11 O1         0.3703    0.5316    2.0801 O.2       1 RES1    0.0000
     12 O2         1.7286    1.8702    1.0538 O.2       1 RES1    0.0000
     13 N6         3.7897    2.1029    5.4569 N.pl3     1 RES1    0.0000
     14 O3         4.5019    3.0091    5.0562 O.2       1 RES1    0.0000
     15 O4         2.9765    2.1511    6.3506 O.2       1 RES1    0.0000
     16 N7         3.6210   -1.6422    6.7482 N.pl3     1 RES1    0.0000
     17 O5         3.4222   -0.6830    7.4628 O.2       1 RES1    0.0000
     18 O6         3.9252   -2.7631    7.0834 O.2       1 RES1    0.0000
     19 O7         3.8056   -3.5417    4.5340 O.2       1 RES1    0.0000
     20 N8         2.5298   -2.5219    2.2031 N.pl3     1 RES1    0.0000
     21 O8         3.0847   -3.5644    1.9412 O.2       1 RES1    0.0000
     22 O9         1.5860   -2.0546    1.5768 O.2       1 RES1    0.0000
     23 H1         1.3692   -0.5496    3.6024 H         1 RES1    0.0000
     24 H2         4.2551    0.9393    1.5863 H         1 RES1    0.0000
     25 H3         3.6887    2.1606    2.3901 H         1 RES1    0.0000
     26 H4         5.4495    1.4946    3.6230 H         1 RES1    0.0000
     27 H5         5.0923   -0.0208    3.4360 H         1 RES1    0.0000
     28 H6         2.3124    0.2838    5.5350 H         1 RES1    0.0000
@<TRIPOS>BOND
     1    1    2 1
     2    2    3 1
     3    3    4 1
     4    4    5 1
     5    5    6 1
     6    6    1 1
     7    7    6 1
     8    8    7 1
     9    9    1 1
    10   10    2 1
    11   11   10 2
    12   12   10 2
    13   13    5 1
    14   14   13 2
    15   15   13 2
    16   16    7 1
    17   17   16 2
    18   18   16 2
    19   19    8 2
    20   20    9 1
    21   21   20 2
    22   22   20 2
    23   23    1 1
    24   24    3 1
    25   25    3 1
    26   26    4 1
    27   27    4 1
    28   28    6 1
    29    8    9 1
@<TRIPOS>SUBSTRUCTURE
     1 RES1 1

@<TRIPOS>CRYSIN
  10.9230   10.9230    7.8880  90.0000  90.0000 120.0000 144 1

