# MOL2 file generated by ConQuest
# Please check atom types

@<TRIPOS>MOLECULE
JEHNUF
    26    27     1
SMALL
NO_CHARGES
****
Generated from CSD

@<TRIPOS>ATOM
      1 N1        -0.3298   16.6861    4.7530 N.ar      1 RES1    0.0000
      2 C1         0.2435   17.1355    3.6658 C.ar      1 RES1    0.0000
      3 C2         0.5385   16.3846    2.5446 C.ar      1 RES1    0.0000
      4 C3         0.1758   15.0444    2.5755 C.ar      1 RES1    0.0000
      5 C4        -0.4185   14.5492    3.7020 C.ar      1 RES1    0.0000
      6 C5        -0.6518   15.3862    4.7488 C.ar      1 RES1    0.0000
      7 O1         0.6553   18.4704    3.7807 O.3       1 RES1    0.0000
      8 C6         0.3175   19.3612    2.8244 C.2       1 RES1    0.0000
      9 O2        -0.3719   19.0894    1.8776 O.2       1 RES1    0.0000
     10 C7         0.8708   20.7096    3.1074 C.ar      1 RES1    0.0000
     11 C8         1.5282   21.0029    4.3031 C.ar      1 RES1    0.0000
     12 C9         1.9926   22.2813    4.5424 C.ar      1 RES1    0.0000
     13 N2         2.3091   24.5985    3.8084 N.pl3     1 RES1    0.0000
     14 C10        1.7967   23.2421    3.5690 C.ar      1 RES1    0.0000
     15 C11        1.1548   22.9729    2.3701 C.ar      1 RES1    0.0000
     16 C12        0.6852   21.6973    2.1563 C.ar      1 RES1    0.0000
     17 O3         2.8350   24.8380    4.8669 O.2       1 RES1    0.0000
     18 O4         2.2104   25.4139    2.9244 O.2       1 RES1    0.0000
     19 H1         0.9968   16.7668    1.8297 H         1 RES1    0.0000
     20 H2         0.5521   14.5061    1.8723 H         1 RES1    0.0000
     21 H3        -0.5813   13.6449    3.7446 H         1 RES1    0.0000
     22 H4        -1.1385   15.1251    5.5317 H         1 RES1    0.0000
     23 H5         1.6811   20.3462    4.9786 H         1 RES1    0.0000
     24 H6         2.5192   22.5262    5.3403 H         1 RES1    0.0000
     25 H7         0.9739   23.6834    1.7234 H         1 RES1    0.0000
     26 H8         0.2286   21.5035    1.3829 H         1 RES1    0.0000
@<TRIPOS>BOND
     1    1    2 ar
     2    2    3 ar
     3    3    4 ar
     4    4    5 ar
     5    5    6 ar
     6    6    1 ar
     7    7    2 1
     8    8    7 1
     9    9    8 2
    10   10    8 1
    11   11   10 ar
    12   12   11 ar
    13   13   14 1
    14   14   12 ar
    15   15   14 ar
    16   16   10 ar
    17   17   13 2
    18   18   13 2
    19   19    3 1
    20   20    4 1
    21   21    5 1
    22   22    6 1
    23   23   11 1
    24   24   12 1
    25   25   15 1
    26   26   16 1
    27   15   16 ar
@<TRIPOS>SUBSTRUCTURE
     1 RES1 1

@<TRIPOS>CRYSIN
   3.8660   26.9130   10.6380  90.0000  90.1400  90.0000  14 1

