# MOL2 file generated by ConQuest
# Please check atom types

@<TRIPOS>MOLECULE
JEJWEA
    62    67     1
SMALL
NO_CHARGES
****
Generated from CSD

@<TRIPOS>ATOM
      1 O1         0.7321    0.8860   12.2002 O.3       1 RES1    0.0000
      2 O2         0.1902    0.1441    9.2269 O.3       1 RES1    0.0000
      3 O3        -3.1961    2.7748    7.4307 O.3       1 RES1    0.0000
      4 O4        -6.8153    3.9083   12.8441 O.2       1 RES1    0.0000
      5 O5        -6.0465    5.8728   13.0890 O.2       1 RES1    0.0000
      6 N1        -0.3616    1.2722   13.0899 N.3       1 RES1    0.0000
      7 N2         1.4915    0.6727    9.1743 N.2       1 RES1    0.0000
      8 N3        -1.5585    1.7658    9.5214 N.3       1 RES1    0.0000
      9 N4        -5.8999    4.6814   12.9895 N.pl3     1 RES1    0.0000
     10 C1        -0.5039    2.7344   12.9361 C.3       1 RES1    0.0000
     11 C2         0.1099    3.0303   11.5586 C.3       1 RES1    0.0000
     12 C3         0.4586    1.6511   11.0149 C.3       1 RES1    0.0000
     13 C4        -0.6095    0.9391   10.1782 C.3       1 RES1    0.0000
     14 C5         1.6697    1.5070   10.1307 C.2       1 RES1    0.0000
     15 C6        -1.9479    3.1832   13.0148 C.ar      1 RES1    0.0000
     16 C7        -3.0194    2.3281   12.8649 C.ar      1 RES1    0.0000
     17 C8        -4.3152    2.8141   12.8634 C.ar      1 RES1    0.0000
     18 C9        -4.5215    4.1507   13.0059 C.ar      1 RES1    0.0000
     19 C10       -3.4856    5.0156   13.1662 C.ar      1 RES1    0.0000
     20 C11       -2.2023    4.5165   13.1825 C.ar      1 RES1    0.0000
     21 C12       -0.0715    0.7688   14.3848 C.ar      1 RES1    0.0000
     22 C13        0.7100   -0.3549   14.5451 C.ar      1 RES1    0.0000
     23 C14        0.9577   -0.8660   15.7950 C.ar      1 RES1    0.0000
     24 C15        0.4189   -0.2894   16.9038 C.ar      1 RES1    0.0000
     25 C16       -0.3685    0.8212   16.7598 C.ar      1 RES1    0.0000
     26 C17       -0.6188    1.3574   15.5085 C.ar      1 RES1    0.0000
     27 C18        2.9606    2.1960   10.2836 C.ar      1 RES1    0.0000
     28 C19        3.6795    2.5946    9.1718 C.ar      1 RES1    0.0000
     29 C20        4.9020    3.2094    9.3217 C.ar      1 RES1    0.0000
     30 C21        5.4211    3.4376   10.5671 C.ar      1 RES1    0.0000
     31 C22        4.7140    3.0554   11.6655 C.ar      1 RES1    0.0000
     32 C23        3.4881    2.4483   11.5364 C.ar      1 RES1    0.0000
     33 C24       -2.7211    1.0177    9.0204 C.3       1 RES1    0.0000
     34 C25       -3.7393    1.9732    8.4652 C.3       1 RES1    0.0000
     35 C26       -2.1095    3.5130    7.9368 C.3       1 RES1    0.0000
     36 C27       -1.0215    2.6033    8.4578 C.3       1 RES1    0.0000
     37 H1         0.0091    3.2105   13.6130 H         1 RES1    0.0000
     38 H2         0.9134    3.5927   11.6714 H         1 RES1    0.0000
     39 H3        -0.5274    3.4944   10.9693 H         1 RES1    0.0000
     40 H4        -1.0764    0.2839   10.7408 H         1 RES1    0.0000
     41 H5        -2.8679    1.3978   12.7506 H         1 RES1    0.0000
     42 H6        -4.9979    2.2277   12.7506 H         1 RES1    0.0000
     43 H7        -3.6830    5.9077   13.2107 H         1 RES1    0.0000
     44 H8        -1.4877    5.1324   13.2552 H         1 RES1    0.0000
     45 H9         1.0522   -0.7753   13.7748 H         1 RES1    0.0000
     46 H10        1.4585   -1.6708   15.8974 H         1 RES1    0.0000
     47 H11        0.5931   -0.6770   17.7677 H         1 RES1    0.0000
     48 H12       -0.7205    1.2886   17.5005 H         1 RES1    0.0000
     49 H13       -1.1370    2.1512   15.4224 H         1 RES1    0.0000
     50 H14        3.2788    2.4570    8.3272 H         1 RES1    0.0000
     51 H15        5.3729    3.4944    8.5499 H         1 RES1    0.0000
     52 H16        6.2811    3.8984   10.6576 H         1 RES1    0.0000
     53 H17        5.0464    3.1996   12.5576 H         1 RES1    0.0000
     54 H18        3.0228    2.1949   12.2904 H         1 RES1    0.0000
     55 H19       -3.1179    0.5460    9.8115 H         1 RES1    0.0000
     56 H20       -2.4615    0.3604    8.3272 H         1 RES1    0.0000
     57 H21       -4.5036    1.4960    8.0749 H         1 RES1    0.0000
     58 H22       -4.0532    2.5662    9.2772 H         1 RES1    0.0000
     59 H23       -2.3767    4.1168    8.6834 H         1 RES1    0.0000
     60 H24       -1.7725    4.0513    7.2288 H         1 RES1    0.0000
     61 H25       -0.6574    2.0311    7.7038 H         1 RES1    0.0000
     62 H26       -0.2357    3.1340    8.8334 H         1 RES1    0.0000
@<TRIPOS>BOND
     1    1    6 1
     2    2    7 1
     3    3   34 1
     4    4    9 2
     5    5    9 2
     6    6   10 1
     7    7   14 2
     8    8   13 1
     9    9   18 1
    10   10   11 1
    11   11   12 1
    12   12    1 1
    13   13    2 1
    14   14   12 1
    15   15   10 1
    16   16   15 ar
    17   17   16 ar
    18   18   17 ar
    19   19   18 ar
    20   20   15 ar
    21   21    6 1
    22   22   21 ar
    23   23   22 ar
    24   24   23 ar
    25   25   24 ar
    26   26   21 ar
    27   27   14 1
    28   28   27 ar
    29   29   28 ar
    30   30   29 ar
    31   31   30 ar
    32   32   27 ar
    33   33    8 1
    34   34   33 1
    35   35    3 1
    36   36    8 1
    37   37   10 1
    38   38   11 1
    39   39   11 1
    40   40   13 1
    41   41   16 1
    42   42   17 1
    43   43   19 1
    44   44   20 1
    45   45   22 1
    46   46   23 1
    47   47   24 1
    48   48   25 1
    49   49   26 1
    50   50   28 1
    51   51   29 1
    52   52   30 1
    53   53   31 1
    54   54   32 1
    55   55   33 1
    56   56   33 1
    57   57   34 1
    58   58   34 1
    59   59   35 1
    60   60   35 1
    61   61   36 1
    62   62   36 1
    63   12   13 1
    64   19   20 ar
    65   25   26 ar
    66   31   32 ar
    67   35   36 1
@<TRIPOS>SUBSTRUCTURE
     1 RES1 1

@<TRIPOS>CRYSIN
  15.1060   10.9200   15.2260  90.0000 102.8700  90.0000 231 1

