# MOL2 file generated by ConQuest
# Please check atom types

@<TRIPOS>MOLECULE
JEKGIS
    57    60     1
SMALL
NO_CHARGES
****
Generated from CSD

@<TRIPOS>ATOM
      1 C1         0.4962    4.7833    5.6101 C.ar      1 RES1    0.0000
      2 H1        -0.2806    4.3045    5.3474 H         1 RES1    0.0000
      3 C2         1.5564    4.9423    4.7306 C.ar      1 RES1    0.0000
      4 H2         1.5078    4.5685    3.8587 H         1 RES1    0.0000
      5 C3         2.6869    5.6443    5.1172 C.ar      1 RES1    0.0000
      6 H3         3.4055    5.7460    4.5053 H         1 RES1    0.0000
      7 C4         2.7852    6.2028    6.3892 C.ar      1 RES1    0.0000
      8 H4         3.5645    6.6795    6.6497 H         1 RES1    0.0000
      9 C5         1.7198    6.0489    7.2699 C.ar      1 RES1    0.0000
     10 C6         0.5907    5.3371    6.8829 C.ar      1 RES1    0.0000
     11 C7        -0.4362    5.3092    7.9867 C.3       1 RES1    0.0000
     12 H5        -1.0984    6.0323    7.7911 H         1 RES1    0.0000
     13 C8        -1.2192    4.0096    8.1264 C.3       1 RES1    0.0000
     14 H6        -1.5744    3.7464    7.2407 H         1 RES1    0.0000
     15 H7        -0.6091    3.2930    8.4347 H         1 RES1    0.0000
     16 C9        -2.3686    4.1390    9.1052 C.2       1 RES1    0.0000
     17 C10       -3.1427    2.9152    9.4758 C.ar      1 RES1    0.0000
     18 C11       -4.2736    3.0685   10.2848 C.ar      1 RES1    0.0000
     19 H8        -4.5127    3.9280   10.6122 H         1 RES1    0.0000
     20 C12       -5.0425    1.9632   10.6058 C.ar      1 RES1    0.0000
     21 H9        -5.8061    2.0665   11.1625 H         1 RES1    0.0000
     22 C13       -4.7120    0.7118   10.1260 C.ar      1 RES1    0.0000
     23 H10       -5.2538   -0.0379   10.3430 H         1 RES1    0.0000
     24 C14       -3.5953    0.5504    9.3306 C.ar      1 RES1    0.0000
     25 H11       -3.3667   -0.3108    9.0016 H         1 RES1    0.0000
     26 C15       -2.8062    1.6478    9.0111 C.ar      1 RES1    0.0000
     27 H12       -2.0331    1.5329    8.4723 H         1 RES1    0.0000
     28 C16        0.3766    5.7557    9.2332 C.3       1 RES1    0.0000
     29 H13       -0.1801    6.3465    9.8167 H         1 RES1    0.0000
     30 C17        1.6062    6.5296    8.7052 C.3       1 RES1    0.0000
     31 H14        2.4138    6.2228    9.2076 H         1 RES1    0.0000
     32 C18        1.4552    8.0800    8.9040 C.3       1 RES1    0.0000
     33 C19        1.4656    8.3953   10.4081 C.3       1 RES1    0.0000
     34 H15        1.5335    9.3643   10.5385 H         1 RES1    0.0000
     35 H16        2.2340    7.9551   10.8287 H         1 RES1    0.0000
     36 H17        0.6370    8.0676   10.8167 H         1 RES1    0.0000
     37 C20        0.1466    8.5970    8.3102 C.3       1 RES1    0.0000
     38 H18       -0.6091    8.2258    8.8121 H         1 RES1    0.0000
     39 H19        0.0824    8.3216    7.3715 H         1 RES1    0.0000
     40 H20        0.1261    9.5748    8.3655 H         1 RES1    0.0000
     41 C21        2.6695    8.7243    8.2336 C.ar      1 RES1    0.0000
     42 C22        3.9309    8.5706    8.8060 C.ar      1 RES1    0.0000
     43 H21        4.0083    8.1478    9.6527 H         1 RES1    0.0000
     44 C23        5.0722    9.0206    8.1660 C.ar      1 RES1    0.0000
     45 H22        5.9275    8.9031    8.5610 H         1 RES1    0.0000
     46 C24        4.9423    9.6421    6.9434 C.ar      1 RES1    0.0000
     47 C25        3.7133    9.8512    6.3568 C.ar      1 RES1    0.0000
     48 H23        3.6432   10.3012    5.5234 H         1 RES1    0.0000
     49 C26        2.5816    9.3904    7.0094 C.ar      1 RES1    0.0000
     50 H24        1.7275    9.5303    6.6166 H         1 RES1    0.0000
     51 N1         0.8083    4.5269    9.9944 N.pl3     1 RES1    0.0000
     52 N2         6.1476   10.0961    6.2462 N.pl3     1 RES1    0.0000
     53 O1        -2.6928    5.2362    9.5290 O.2       1 RES1    0.0000
     54 O2         0.1135    4.1816   10.9388 O.2       1 RES1    0.0000
     55 O3         1.7812    3.9021    9.6034 O.2       1 RES1    0.0000
     56 O4         7.2246   10.0211    6.8384 O.2       1 RES1    0.0000
     57 O5         6.0231   10.5332    5.1095 O.2       1 RES1    0.0000
@<TRIPOS>BOND
     1    1    2 1
     2    3    1 ar
     3    4    3 1
     4    5    3 ar
     5    6    5 1
     6    7    5 ar
     7    8    7 1
     8    9    7 ar
     9   10    1 ar
    10   11   10 1
    11   12   11 1
    12   13   11 1
    13   14   13 1
    14   15   13 1
    15   16   13 1
    16   17   16 1
    17   18   17 ar
    18   19   18 1
    19   20   18 ar
    20   21   20 1
    21   22   20 ar
    22   23   22 1
    23   24   22 ar
    24   25   24 1
    25   26   17 ar
    26   27   26 1
    27   28   11 1
    28   29   28 1
    29   30    9 1
    30   31   30 1
    31   32   30 1
    32   33   32 1
    33   34   33 1
    34   35   33 1
    35   36   33 1
    36   37   32 1
    37   38   37 1
    38   39   37 1
    39   40   37 1
    40   41   32 1
    41   42   41 ar
    42   43   42 1
    43   44   42 ar
    44   45   44 1
    45   46   44 ar
    46   47   46 ar
    47   48   47 1
    48   49   41 ar
    49   50   49 1
    50   51   28 1
    51   52   46 1
    52   53   16 2
    53   54   51 2
    54   55   51 2
    55   56   52 2
    56   57   52 2
    57    9   10 ar
    58   24   26 ar
    59   28   30 1
    60   47   49 ar
@<TRIPOS>SUBSTRUCTURE
     1 RES1 1

@<TRIPOS>CRYSIN
  13.2340   11.1400   15.9530  90.0000 109.5020  90.0000  14 1

