# MOL2 file generated by ConQuest
# Please check atom types

@<TRIPOS>MOLECULE
JEKHOX
    31    33     1
SMALL
NO_CHARGES
****
Generated from CSD

@<TRIPOS>ATOM
      1 N1         2.0695    2.0061    3.4846 N.pl3     1 RES1    0.0000
      2 O1        -0.7577    2.0061    1.1918 O.3       1 RES1    0.0000
      3 O2         1.1464   -0.3525    1.1662 O.2       1 RES1    0.0000
      4 O3         2.3130    2.0061    4.6586 O.2       1 RES1    0.0000
      5 O4         2.9671    2.0061    2.6574 O.2       1 RES1    0.0000
      6 O5        -1.9376    2.0061    7.0215 O.3       1 RES1    0.0000
      7 C1         3.3653    1.3128   -2.3102 C.ar      1 RES1    0.0000
      8 H1         3.8140    0.8570   -2.9847 H         1 RES1    0.0000
      9 C2         2.7119    0.5962   -1.3293 C.ar      1 RES1    0.0000
     10 H2         2.7150   -0.3338   -1.3312 H         1 RES1    0.0000
     11 C3         2.0476    1.3096   -0.3362 C.ar      1 RES1    0.0000
     12 C4         1.2929    0.7952    0.8233 C.2       1 RES1    0.0000
     13 C5         0.6216    2.0061    1.5191 C.3       1 RES1    0.0000
     14 C6         0.7120    2.0061    3.0257 C.2       1 RES1    0.0000
     15 C7        -0.3479    2.0061    3.8239 C.2       1 RES1    0.0000
     16 H3        -1.1396    2.0061    3.3365 H         1 RES1    0.0000
     17 C8        -0.6041    2.0061    5.2508 C.2       1 RES1    0.0000
     18 C9         0.1652    2.0061    6.4419 C.2       1 RES1    0.0000
     19 H4         1.0938    2.0061    6.4954 H         1 RES1    0.0000
     20 C10       -0.6752    2.0061    7.4622 C.2       1 RES1    0.0000
     21 H5        -0.4247    2.0061    8.3573 H         1 RES1    0.0000
     22 C11       -1.8640    2.0061    5.6824 C.2       1 RES1    0.0000
     23 H6        -2.6054    2.0061    5.1210 H         1 RES1    0.0000
     24 H7        -0.8739    2.0061    0.3986 H         1 RES1    0.0000
     25 O2C        1.1464    4.3647    1.1662 O.2       1 RES1    0.0000
     26 C1C        3.3653    2.6994   -2.3102 C.ar      1 RES1    0.0000
     27 H1C        3.8140    3.1552   -2.9847 H         1 RES1    0.0000
     28 C2C        2.7119    3.4159   -1.3293 C.ar      1 RES1    0.0000
     29 H2C        2.7150    4.3460   -1.3312 H         1 RES1    0.0000
     30 C3C        2.0476    2.7026   -0.3362 C.ar      1 RES1    0.0000
     31 C4C        1.2929    3.2169    0.8233 C.2       1 RES1    0.0000
@<TRIPOS>BOND
     1    1    4 2
     2    2   13 1
     3    3   12 2
     4    5    1 2
     5    6   20 1
     6    7    8 1
     7    9    7 ar
     8   10    9 1
     9   11    9 ar
    10   12   11 1
    11   13   12 1
    12   14    1 1
    13   15   14 2
    14   16   15 1
    15   17   15 1
    16   18   17 1
    17   19   18 1
    18   20   18 2
    19   21   20 1
    20   22    6 1
    21   23   22 1
    22   24    2 1
    23   25   31 2
    24   26    7 ar
    25   27   26 1
    26   28   26 ar
    27   29   28 1
    28   30   11 ar
    29   31   13 1
    30   13   14 1
    31   17   22 2
    32   28   30 ar
    33   30   31 1
@<TRIPOS>SUBSTRUCTURE
     1 RES1 1

@<TRIPOS>CRYSIN
   7.4374    8.0243   11.3999  90.0000  92.6700  90.0000  11 1

