# MOL2 file generated by ConQuest
# Please check atom types

@<TRIPOS>MOLECULE
JEKKUI
    30    31     1
SMALL
NO_CHARGES
****
Generated from CSD

@<TRIPOS>ATOM
      1 N1         7.3727    1.6552    9.6200 N.ar      1 RES1    0.0000
      2 C1         7.9177    2.6831    8.9589 C.ar      1 RES1    0.0000
      3 N2         8.6521    2.2542    7.8151 N.2       1 RES1    0.0000
      4 N3         9.0634    3.1906    7.1209 N.2       1 RES1    0.0000
      5 C2         9.7773    2.7913    5.9473 C.ar      1 RES1    0.0000
      6 C3         9.9618    1.4607    5.5615 C.ar      1 RES1    0.0000
      7 H1         9.5978    0.7523    6.0789 H         1 RES1    0.0000
      8 C4        10.6822    1.1954    4.4137 C.ar      1 RES1    0.0000
      9 H2        10.8203    0.2976    4.1384 H         1 RES1    0.0000
     10 C5        11.2065    2.2426    3.6565 C.ar      1 RES1    0.0000
     11 H3        11.7111    2.0545    2.8736 H         1 RES1    0.0000
     12 C6        10.9984    3.5436    4.0375 C.ar      1 RES1    0.0000
     13 H4        11.3220    4.2636    3.4951 H         1 RES1    0.0000
     14 C7        10.2786    3.8308    5.1813 C.ar      1 RES1    0.0000
     15 H5        10.1293    4.7325    5.4396 H         1 RES1    0.0000
     16 C8         7.7376    3.9892    9.3972 C.ar      1 RES1    0.0000
     17 N4         8.3022    5.1691    8.7143 N.pl3     1 RES1    0.0000
     18 O1         7.6114    5.6986    7.8757 O.2       1 RES1    0.0000
     19 O2         9.3997    5.5491    9.0517 O.2       1 RES1    0.0000
     20 C9         7.0157    4.2417   10.5377 C.ar      1 RES1    0.0000
     21 H6         6.8893    5.1279   10.8550 H         1 RES1    0.0000
     22 C10        6.4810    3.1623   11.2037 C.ar      1 RES1    0.0000
     23 N5         5.7314    3.4508   12.4411 N.pl3     1 RES1    0.0000
     24 O3         5.3282    4.5882   12.5936 O.2       1 RES1    0.0000
     25 O4         5.5756    2.5466   13.2466 O.2       1 RES1    0.0000
     26 C11        6.6420    1.8523   10.7250 C.ar      1 RES1    0.0000
     27 C12        6.0250    0.6222   11.3046 C.3       1 RES1    0.0000
     28 H7         6.0264   -0.0915   10.6330 H         1 RES1    0.0000
     29 H8         5.1023    0.8154   11.5734 H         1 RES1    0.0000
     30 H9         6.5402    0.3362   12.0875 H         1 RES1    0.0000
@<TRIPOS>BOND
     1    1    2 ar
     2    2    3 1
     3    3    4 2
     4    4    5 1
     5    5    6 ar
     6    6    7 1
     7    8    6 ar
     8    9    8 1
     9   10    8 ar
    10   11   10 1
    11   12   10 ar
    12   13   12 1
    13   14    5 ar
    14   15   14 1
    15   16    2 ar
    16   17   16 1
    17   18   17 2
    18   19   17 2
    19   20   16 ar
    20   21   20 1
    21   22   20 ar
    22   23   22 1
    23   24   23 2
    24   25   23 2
    25   26    1 ar
    26   27   26 1
    27   28   27 1
    28   29   27 1
    29   30   27 1
    30   12   14 ar
    31   22   26 ar
@<TRIPOS>SUBSTRUCTURE
     1 RES1 1

@<TRIPOS>CRYSIN
  12.0830   12.8810    8.1340  90.0000  97.0900  90.0000   9 1

