# MOL2 file generated by ConQuest
# Please check atom types

@<TRIPOS>MOLECULE
JEKWOM
    47    49     1
SMALL
NO_CHARGES
****
Generated from CSD

@<TRIPOS>ATOM
      1 O1         0.1766    2.3473    2.8361 O.3       1 RES1    0.0000
      2 O2        -1.8359    3.6311    1.0630 O.2       1 RES1    0.0000
      3 O3        -7.9498    3.5434   -1.9842 O.2       1 RES1    0.0000
      4 O4        -7.8976    5.5093   -2.8758 O.2       1 RES1    0.0000
      5 N1         1.0311    3.9524    1.4934 N.2       1 RES1    0.0000
      6 N2        -0.7946    5.5032    1.8373 N.am      1 RES1    0.0000
      7 N3        -2.4421    5.6747    0.2147 N.am      1 RES1    0.0000
      8 H1        -2.0406    6.3837   -0.1255 H         1 RES1    0.0000
      9 N4        -7.3914    4.6151   -2.1992 N.pl3     1 RES1    0.0000
     10 C1         0.9145    2.7067    1.7622 C.2       1 RES1    0.0000
     11 C2        -0.2822    3.5830    3.4368 C.3       1 RES1    0.0000
     12 H2         0.0994    3.6983    4.3427 H         1 RES1    0.0000
     13 H3        -1.2699    3.5999    3.4998 H         1 RES1    0.0000
     14 C3         0.2260    4.6817    2.4834 C.3       1 RES1    0.0000
     15 H4         0.8349    5.2864    2.9976 H         1 RES1    0.0000
     16 C4        -1.0277    6.8584    2.3925 C.3       1 RES1    0.0000
     17 H5        -1.8506    7.2206    1.9536 H         1 RES1    0.0000
     18 C5        -1.3060    6.7983    3.8956 C.3       1 RES1    0.0000
     19 H6        -1.5388    7.6929    4.2210 H         1 RES1    0.0000
     20 H7        -0.5066    6.4786    4.3632 H         1 RES1    0.0000
     21 H8        -2.0509    6.1846    4.0660 H         1 RES1    0.0000
     22 C6         0.1145    7.8061    2.0600 C.3       1 RES1    0.0000
     23 H9        -0.0893    8.6988    2.4096 H         1 RES1    0.0000
     24 H10        0.2276    7.8538    1.0876 H         1 RES1    0.0000
     25 H11        0.9417    7.4764    2.4686 H         1 RES1    0.0000
     26 C7        -1.7121    4.8454    1.0553 C.2       1 RES1    0.0000
     27 C8         1.5189    1.6090    1.0006 C.ar      1 RES1    0.0000
     28 C9         1.1851    0.2790    1.2630 C.ar      1 RES1    0.0000
     29 H12        0.5774    0.0706    1.9638 H         1 RES1    0.0000
     30 C10        1.7384   -0.7349    0.5028 C.ar      1 RES1    0.0000
     31 H13        1.5030   -1.6379    0.6802 H         1 RES1    0.0000
     32 C11        2.6260   -0.4458   -0.5077 C.ar      1 RES1    0.0000
     33 H14        2.9983   -1.1459   -1.0312 H         1 RES1    0.0000
     34 C12        2.9767    0.8764   -0.7606 C.ar      1 RES1    0.0000
     35 H15        3.5992    1.0777   -1.4501 H         1 RES1    0.0000
     36 C13        2.4237    1.8949   -0.0133 C.ar      1 RES1    0.0000
     37 H16        2.6624    2.7966   -0.1934 H         1 RES1    0.0000
     38 C14       -3.6393    5.3249   -0.4095 C.ar      1 RES1    0.0000
     39 C15       -4.1016    6.1543   -1.4384 C.ar      1 RES1    0.0000
     40 H17       -3.5663    6.8826   -1.7320 H         1 RES1    0.0000
     41 C16       -5.3274    5.9241   -2.0310 C.ar      1 RES1    0.0000
     42 H18       -5.6438    6.4937   -2.7222 H         1 RES1    0.0000
     43 C17       -6.0850    4.8514   -1.6021 C.ar      1 RES1    0.0000
     44 C18       -5.6460    4.0117   -0.6002 C.ar      1 RES1    0.0000
     45 H19       -6.1812    3.2758   -0.3267 H         1 RES1    0.0000
     46 C19       -4.4240    4.2450    0.0044 C.ar      1 RES1    0.0000
     47 H20       -4.1196    3.6728    0.6994 H         1 RES1    0.0000
@<TRIPOS>BOND
     1    1   10 1
     2    2   26 2
     3    3    9 2
     4    4    9 2
     5    5   10 2
     6    6   14 1
     7    7    8 1
     8    9   43 1
     9   10   27 1
    10   11    1 1
    11   12   11 1
    12   13   11 1
    13   14    5 1
    14   15   14 1
    15   16    6 1
    16   17   16 1
    17   18   16 1
    18   19   18 1
    19   20   18 1
    20   21   18 1
    21   22   16 1
    22   23   22 1
    23   24   22 1
    24   25   22 1
    25   26    6 1
    26   27   28 ar
    27   28   29 1
    28   30   28 ar
    29   31   30 1
    30   32   30 ar
    31   33   32 1
    32   34   32 ar
    33   35   34 1
    34   36   27 ar
    35   37   36 1
    36   38    7 1
    37   39   38 ar
    38   40   39 1
    39   41   39 ar
    40   42   41 1
    41   43   41 ar
    42   44   43 ar
    43   45   44 1
    44   46   38 ar
    45   47   46 1
    46    7   26 1
    47   11   14 1
    48   34   36 ar
    49   44   46 ar
@<TRIPOS>SUBSTRUCTURE
     1 RES1 1

@<TRIPOS>CRYSIN
  12.3880   11.5752   13.6715  90.0000 110.4440  90.0000 231 1

