# MOL2 file generated by ConQuest
# Please check atom types

@<TRIPOS>MOLECULE
JEKZOR
    23    23     1
SMALL
NO_CHARGES
****
Generated from CSD

@<TRIPOS>ATOM
      1 N1         4.1980    0.6961   11.5091 N.pl3     1 RES1    0.0000
      2 H1         2.1792   -2.0278   11.8737 H         1 RES1    0.0000
      3 O1        -0.3379   -1.6263   14.6199 O.2       1 RES1    0.0000
      4 H2         0.0277   -0.0885   15.6345 H         1 RES1    0.0000
      5 O2         3.9800    1.5321   10.6479 O.2       1 RES1    0.0000
      6 O3         0.7959   -2.6338   13.0793 O.2       1 RES1    0.0000
      7 O4         2.6261   -1.3994   11.7636 O.3       1 RES1    0.0000
      8 O5         5.1166   -0.1164   11.4701 O.2       1 RES1    0.0000
      9 N2         0.6018   -1.6665   13.8176 N.pl3     1 RES1    0.0000
     10 C1         2.2937    1.5603   14.5742 C.ar      1 RES1    0.0000
     11 C2         1.3927    0.5062   14.6749 C.ar      1 RES1    0.0000
     12 C3         3.2439    1.6866   13.5679 C.ar      1 RES1    0.0000
     13 C4         4.1272    2.8953   13.4578 C.3       1 RES1    0.0000
     14 H3         4.9557    2.6410   13.1661 H         1 RES1    0.0000
     15 H4         4.2035    3.2952   14.2783 H         1 RES1    0.0000
     16 H5         3.7621    3.4867   12.8628 H         1 RES1    0.0000
     17 O6         1.3479    3.4063   15.5697 O.2       1 RES1    0.0000
     18 N3         2.2190    2.5694   15.6319 N.pl3     1 RES1    0.0000
     19 O7         0.5122    0.5818   15.6752 O.3       1 RES1    0.0000
     20 C5         1.4956   -0.5359   13.7407 C.ar      1 RES1    0.0000
     21 C6         3.2898    0.6381   12.6610 C.ar      1 RES1    0.0000
     22 C7         2.4684   -0.4812   12.7155 C.ar      1 RES1    0.0000
     23 O8         3.0166    2.4752   16.5423 O.2       1 RES1    0.0000
@<TRIPOS>BOND
     1    1    5 2
     2    2    7 1
     3    3    9 2
     4    4   19 1
     5    6    9 2
     6    7   22 1
     7    8    1 2
     8    9   20 1
     9   10   11 ar
    10   11   19 1
    11   12   10 ar
    12   13   12 1
    13   14   13 1
    14   15   13 1
    15   16   13 1
    16   17   18 2
    17   18   10 1
    18   20   11 ar
    19   21    1 1
    20   22   20 ar
    21   23   18 2
    22   12   21 ar
    23   21   22 ar
@<TRIPOS>SUBSTRUCTURE
     1 RES1 1

@<TRIPOS>CRYSIN
   5.5309    8.0469   21.9802  90.0000  90.0000  90.0000  19 1

