# MOL2 file generated by ConQuest
# Please check atom types

@<TRIPOS>MOLECULE
JELROH
    35    38     1
SMALL
NO_CHARGES
****
Generated from CSD

@<TRIPOS>ATOM
      1 N1         1.8766    5.5523    2.2972 N.pl3     1 RES1    0.0000
      2 O1         2.8483    4.7686    2.4674 O.2       1 RES1    0.0000
      3 C1         1.8470    6.8951    2.4716 C.2       1 RES1    0.0000
      4 C2         0.5440    7.3670    2.0258 C.2       1 RES1    0.0000
      5 O2         0.1484    8.5272    1.9881 O.2       1 RES1    0.0000
      6 C3        -1.5280    6.0161    1.2138 C.ar      1 RES1    0.0000
      7 C4        -1.9780    4.7136    1.0164 C.ar      1 RES1    0.0000
      8 C5        -1.1695    3.6261    1.2319 C.ar      1 RES1    0.0000
      9 C6         0.1533    3.7861    1.6400 C.ar      1 RES1    0.0000
     10 C7         0.5761    5.0708    1.8277 C.ar      1 RES1    0.0000
     11 C8        -0.2324    6.1728    1.6393 C.ar      1 RES1    0.0000
     12 N2         3.7236    7.5043    4.0111 N.pl3     1 RES1    0.0000
     13 C9         3.7112    6.3716    4.9508 C.3       1 RES1    0.0000
     14 C10        3.0832    6.7012    6.2699 C.3       1 RES1    0.0000
     15 C11        2.9274    7.7500    2.9152 C.2       1 RES1    0.0000
     16 N3         3.1945    8.8908    2.3118 N.2       1 RES1    0.0000
     17 C12        4.9450   10.6214    2.8336 C.ar      1 RES1    0.0000
     18 C13        5.9538   10.9236    3.7314 C.ar      1 RES1    0.0000
     19 C14        6.2579   10.0720    4.8057 C.ar      1 RES1    0.0000
     20 C15        5.5804    8.8973    5.0164 C.ar      1 RES1    0.0000
     21 C16        4.5667    8.5886    4.1088 C.ar      1 RES1    0.0000
     22 C17        4.2379    9.4370    3.0422 C.ar      1 RES1    0.0000
     23 H1        -2.0992    6.7723    1.0596 H         1 RES1    0.0000
     24 H2        -2.8805    4.5747    0.7227 H         1 RES1    0.0000
     25 H3        -1.5181    2.7422    1.0994 H         1 RES1    0.0000
     26 H4         0.7368    3.0347    1.7802 H         1 RES1    0.0000
     27 H5         3.2241    5.6460    4.5511 H         1 RES1    0.0000
     28 H6         4.6186    6.1001    5.1085 H         1 RES1    0.0000
     29 H7         3.1648    5.9240    6.8273 H         1 RES1    0.0000
     30 H8         2.1560    6.9339    6.1799 H         1 RES1    0.0000
     31 H9         3.5604    7.4332    6.6690 H         1 RES1    0.0000
     32 H10        4.7398   11.2064    2.1011 H         1 RES1    0.0000
     33 H11        6.4557   11.7332    3.6177 H         1 RES1    0.0000
     34 H12        6.9626   10.3176    5.4105 H         1 RES1    0.0000
     35 H13        5.7955    8.3171    5.7516 H         1 RES1    0.0000
@<TRIPOS>BOND
     1    1    2 1
     2    3    1 2
     3    4    3 1
     4    5    4 2
     5    6    7 ar
     6    7    8 ar
     7    8    9 ar
     8    9   10 ar
     9   10    1 1
    10   11    4 1
    11   12   13 1
    12   13   14 1
    13   14   29 1
    14   15    3 1
    15   16   15 2
    16   17   18 ar
    17   18   19 ar
    18   19   20 ar
    19   20   21 ar
    20   21   12 1
    21   22   16 1
    22   23    6 1
    23   24    7 1
    24   25    8 1
    25   26    9 1
    26   27   13 1
    27   28   13 1
    28   30   14 1
    29   31   14 1
    30   32   17 1
    31   33   18 1
    32   34   19 1
    33   35   20 1
    34    6   11 ar
    35   10   11 ar
    36   12   15 1
    37   17   22 ar
    38   21   22 ar
@<TRIPOS>SUBSTRUCTURE
     1 RES1 1

@<TRIPOS>CRYSIN
  24.7250   16.1592    6.9759  90.0000  90.0000  90.0000  61 1

