# MOL2 file generated by ConQuest
# Please check atom types

@<TRIPOS>MOLECULE
JELWIG
    40    40     2
SMALL
NO_CHARGES
****
Generated from CSD

@<TRIPOS>ATOM
      1 N1         3.3684    0.7762    1.4567 N.3       1 RES1    0.0000
      2 O1         2.0731    0.8937    0.7993 O.3       1 RES1    0.0000
      3 C1         2.2750    0.8902   -0.6314 C.3       1 RES1    0.0000
      4 C2         0.9203    1.1271   -1.2009 C.2       1 RES1    0.0000
      5 C3         0.7629    2.3971   -1.4946 C.2       1 RES1    0.0000
      6 C4         1.9911    3.2158   -1.2169 C.3       1 RES1    0.0000
      7 C5         3.0613    2.1301   -1.0510 C.3       1 RES1    0.0000
      8 C6         4.2491    2.4083   -0.1279 C.3       1 RES1    0.0000
      9 C7         4.0156    2.0710    1.3388 C.3       1 RES1    0.0000
     10 O2         3.1775    3.1567    1.8323 O.3       1 RES1    0.0000
     11 N2         2.4722    2.9476    3.0132 N.2       1 RES1    0.0000
     12 C8         2.4102    1.7538    3.4788 C.2       1 RES1    0.0000
     13 C9         2.9899    0.5281    2.8554 C.3       1 RES1    0.0000
     14 C10        5.3156    2.0285    2.1320 C.ar      1 RES1    0.0000
     15 C11        6.1679    0.9475    1.9882 C.ar      1 RES1    0.0000
     16 C12        7.3483    0.8849    2.7175 C.ar      1 RES1    0.0000
     17 C13        7.6922    1.9026    3.5727 C.ar      1 RES1    0.0000
     18 C14        6.8639    2.9795    3.7086 C.ar      1 RES1    0.0000
     19 C15        5.6717    3.0474    2.9812 C.ar      1 RES1    0.0000
     20 C16        1.6402    1.6162    4.7476 C.2       1 RES1    0.0000
     21 O3         1.6342    0.5322    5.2951 O.2       1 RES1    0.0000
     22 C17        0.8950    2.7863    5.2851 C.3       1 RES1    0.0000
     23 H1         2.7387    0.0354   -0.8792 H         1 RES1    0.0000
     24 H2        -0.0565    2.7999   -1.8383 H         1 RES1    0.0000
     25 H3         2.2162    3.8750   -1.9782 H         1 RES1    0.0000
     26 H4         1.8624    3.7096   -0.3197 H         1 RES1    0.0000
     27 H5         3.4027    1.9434   -1.9582 H         1 RES1    0.0000
     28 H6         5.0469    1.8489   -0.3996 H         1 RES1    0.0000
     29 H7         4.5606    3.3670   -0.1599 H         1 RES1    0.0000
     30 H8         3.8224    0.2599    3.3569 H         1 RES1    0.0000
     31 H9         2.3391   -0.2186    2.8973 H         1 RES1    0.0000
     32 H10        5.9447    0.2067    1.4187 H         1 RES1    0.0000
     33 H11        7.9031    0.1063    2.6376 H         1 RES1    0.0000
     34 H12        5.0466    3.8514    3.0971 H         1 RES1    0.0000
     35 H13        0.4797    2.5518    6.0944 H         1 RES1    0.0000
     36 H14        0.1975    3.0480    4.6157 H         1 RES1    0.0000
     37 H15        1.3526    3.5796    5.1352 H         1 RES1    0.0000
     38 H16        0.2279    0.3958   -1.2588 Du        2 SUP2    0.0000
     39 H17        8.5598    1.8134    4.1162 Du        2 SUP2    0.0000
     40 H18        7.1084    3.7450    4.3160 Du        2 SUP2    0.0000
@<TRIPOS>BOND
     1    1    2 1
     2    2    3 1
     3    3    4 1
     4    4    5 2
     5    5    6 1
     6    6    7 1
     7    7    3 1
     8    8    7 1
     9    9    1 1
    10   10    9 1
    11   11   10 1
    12   12   11 2
    13   13    1 1
    14   14    9 1
    15   15   14 ar
    16   16   15 ar
    17   17   16 ar
    18   18   17 ar
    19   19   14 ar
    20   20   12 1
    21   21   20 2
    22   22   20 1
    23   23    3 1
    24   24    5 1
    25   25    6 1
    26   26    6 1
    27   27    7 1
    28   28    8 1
    29   29    8 1
    30   30   13 1
    31   31   13 1
    32   32   15 1
    33   33   16 1
    34   34   19 1
    35   35   22 1
    36   36   22 1
    37   37   22 1
    38    8    9 1
    39   12   13 1
    40   18   19 ar
@<TRIPOS>SUBSTRUCTURE
     1 RES1 1
     2 SUP2 38

@<TRIPOS>CRYSIN
  12.9160    5.9070   20.0600  90.0000  95.0700  90.0000  14 1

