# MOL2 file generated by ConQuest
# Please check atom types

@<TRIPOS>MOLECULE
JEMGIS
    17    18     1
SMALL
USER_CHARGES
****
Generated from CSD

@<TRIPOS>ATOM
      1 N1         0.3669    3.9145   13.6365 N.2       1 RES1    0.0000
      2 O1        -2.1645    5.2258   14.6198 O.2       1 RES1   -1.0000
      3 C1         1.5767    1.5426   13.9451 C.3       1 RES1    0.0000
      4 H1         1.9788    6.5422   11.4708 H         1 RES1    0.0000
      5 N2         1.5761    5.8837   11.9058 N.am      1 RES1    0.0000
      6 O2        -1.4209    6.9692   13.3209 O.3       1 RES1    0.0000
      7 C2        -0.1494    5.1512   13.3832 C.2       1 RES1    0.0000
      8 H2         1.4365    1.8832   14.8512 H         1 RES1    0.0000
      9 O3         2.1495    2.5824   13.1149 O.3       1 RES1    0.0000
     10 N3        -1.2721    5.6410   13.8742 N.pl3     1 RES1    1.0000
     11 C3         0.3940    6.1418   12.5495 C.2       1 RES1    0.0000
     12 H3         2.1749    0.7615   13.8318 H         1 RES1    0.0000
     13 O4         3.2381    4.3772   11.5560 O.2       1 RES1    0.0000
     14 C4         1.4763    3.7086   13.0154 C.2       1 RES1    0.0000
     15 N4        -0.3288    7.2266   12.4783 N.2       1 RES1    0.0000
     16 H4         0.7211    1.3592   13.6186 H         1 RES1    0.0000
     17 C5         2.1853    4.6767   12.0884 C.2       1 RES1    0.0000
@<TRIPOS>BOND
     1    1    7 1
     2    2   10 1
     3    3    8 1
     4    4    5 1
     5    5   11 1
     6    6   10 1
     7    7   10 2
     8    9    3 1
     9   11    7 1
    10   12    3 1
    11   13   17 2
    12   14    1 2
    13   15    6 1
    14   16    3 1
    15   17    5 1
    16    9   14 1
    17   11   15 2
    18   14   17 1
@<TRIPOS>SUBSTRUCTURE
     1 RES1 1

@<TRIPOS>CRYSIN
   5.7690    8.1880   15.1250  90.0000  90.0000  90.0000  19 1

