# MOL2 file generated by ConQuest
# Please check atom types

@<TRIPOS>MOLECULE
JEMTAW
    14    13     1
SMALL
NO_CHARGES
****
Generated from CSD

@<TRIPOS>ATOM
      1 O1        15.7889   -1.4283    7.1220 O.3       1 RES1    0.0000
      2 O2        18.7040    2.4110    3.9010 O.3       1 RES1    0.0000
      3 N1        15.8948   -0.4775    6.0814 N.2       1 RES1    0.0000
      4 N2        18.5377    1.4921    4.9726 N.2       1 RES1    0.0000
      5 N3        18.1432   -0.5042    6.7355 N.3       1 RES1    0.0000
      6 N4        16.4391    1.1531    3.9805 N.3       1 RES1    0.0000
      7 C1        17.1245   -0.0971    5.9573 C.2       1 RES1    0.0000
      8 C2        17.3922    0.9022    4.8961 C.2       1 RES1    0.0000
      9 H1        14.9823   -1.7759    7.0165 H         1 RES1    0.0000
     10 H2        19.4399    2.8042    4.1180 H         1 RES1    0.0000
     11 H3        18.9266   -0.4475    6.4430 H         1 RES1    0.0000
     12 H4        18.0265   -1.1236    7.2801 H         1 RES1    0.0000
     13 H5        15.8782    0.5285    3.8131 H         1 RES1    0.0000
     14 H6        16.6810    1.6378    3.3326 H         1 RES1    0.0000
@<TRIPOS>BOND
     1    1    3 1
     2    2    4 1
     3    3    7 2
     4    4    8 2
     5    5    7 1
     6    6    8 1
     7    7    8 1
     8    9    1 1
     9   10    2 1
    10   11    5 1
    11   12    5 1
    12   13    6 1
    13   14    6 1
@<TRIPOS>SUBSTRUCTURE
     1 RES1 1

@<TRIPOS>CRYSIN
  19.9810    4.7610    5.1730  90.0000  92.8000  90.0000 231 1

