# MOL2 file generated by ConQuest
# Please check atom types

@<TRIPOS>MOLECULE
JEMWII
    38    39     1
SMALL
NO_CHARGES
****
Generated from CSD

@<TRIPOS>ATOM
      1 O1         2.7565    1.6684    8.9386 O.3       1 RES1    0.0000
      2 N1         2.8953    5.6056    7.7153 N.pl3     1 RES1    0.0000
      3 C1         4.3890    3.7766    8.4046 C.2       1 RES1    0.0000
      4 O2         4.2208    3.9645   11.1694 O.3       1 RES1    0.0000
      5 N2         4.4888    6.0226    9.4556 N.pl3     1 RES1    0.0000
      6 C2         3.9669    5.0323    8.5267 C.2       1 RES1    0.0000
      7 C3         3.8358    2.9394    7.3150 C.ar      1 RES1    0.0000
      8 O3         1.8253    5.0370    7.6751 O.2       1 RES1    0.0000
      9 C4         3.0076    1.8512    7.6179 C.ar      1 RES1    0.0000
     10 O4         3.1611    6.6149    7.0847 O.2       1 RES1    0.0000
     11 O5         5.6915    6.0874    9.6487 O.2       1 RES1    0.0000
     12 C5         2.5055    1.0709    6.5994 C.ar      1 RES1    0.0000
     13 H1         1.9603    0.3459    6.8019 H         1 RES1    0.0000
     14 C6         2.8014    1.3552    5.2811 C.ar      1 RES1    0.0000
     15 H2         2.4457    0.8277    4.6026 H         1 RES1    0.0000
     16 O6         3.6535    6.7555    9.9965 O.2       1 RES1    0.0000
     17 C7         3.6223    2.4198    4.9658 C.ar      1 RES1    0.0000
     18 H3         3.8412    2.6030    4.0802 H         1 RES1    0.0000
     19 C8         4.1125    3.2048    5.9858 C.ar      1 RES1    0.0000
     20 H4         4.6455    3.9361    5.7741 H         1 RES1    0.0000
     21 C9         1.8525    0.6176    9.3056 C.3       1 RES1    0.0000
     22 H5         1.7612    0.5939   10.2608 H         1 RES1    0.0000
     23 H6         2.1979   -0.2227    8.9950 H         1 RES1    0.0000
     24 H7         0.9949    0.7787    8.9053 H         1 RES1    0.0000
     25 C10        5.3656    3.1337    9.3149 C.ar      1 RES1    0.0000
     26 C11        5.2120    3.1606   10.7043 C.ar      1 RES1    0.0000
     27 C12        6.0144    2.3977   11.5250 C.ar      1 RES1    0.0000
     28 H8         5.8754    2.3882   12.4446 H         1 RES1    0.0000
     29 C13        7.0351    1.6411   10.9563 C.ar      1 RES1    0.0000
     30 H9         7.5903    1.1325   11.5034 H         1 RES1    0.0000
     31 C14        7.2329    1.6379    9.5900 C.ar      1 RES1    0.0000
     32 H10        7.9274    1.1420    9.2206 H         1 RES1    0.0000
     33 C15        6.3965    2.3708    8.7724 C.ar      1 RES1    0.0000
     34 H11        6.5234    2.3566    7.8513 H         1 RES1    0.0000
     35 C16        3.9931    4.0893   12.5683 C.3       1 RES1    0.0000
     36 H12        3.2617    4.6927   12.7213 H         1 RES1    0.0000
     37 H13        4.7834    4.4337   12.9917 H         1 RES1    0.0000
     38 H14        3.7819    3.2285   12.9361 H         1 RES1    0.0000
@<TRIPOS>BOND
     1    1    9 1
     2    2    6 1
     3    3    6 2
     4    4   26 1
     5    5    6 1
     6    7    3 1
     7    8    2 2
     8    9    7 ar
     9   10    2 2
    10   11    5 2
    11   12    9 ar
    12   13   12 1
    13   14   12 ar
    14   15   14 1
    15   16    5 2
    16   17   14 ar
    17   18   17 1
    18   19    7 ar
    19   20   19 1
    20   21    1 1
    21   22   21 1
    22   23   21 1
    23   24   21 1
    24   25    3 1
    25   26   25 ar
    26   27   26 ar
    27   28   27 1
    28   29   27 ar
    29   30   29 1
    30   31   29 ar
    31   32   31 1
    32   33   25 ar
    33   34   33 1
    34   35    4 1
    35   36   35 1
    36   37   35 1
    37   38   35 1
    38   17   19 ar
    39   31   33 ar
@<TRIPOS>SUBSTRUCTURE
     1 RES1 1

@<TRIPOS>CRYSIN
  12.6710   15.7950   16.2900  90.0000 108.4210  90.0000  15 1

