# MOL2 file generated by ConQuest
# Please check atom types

@<TRIPOS>MOLECULE
JENHIT
    46    47     1
SMALL
NO_CHARGES
****
Generated from CSD

@<TRIPOS>ATOM
      1 C1        -4.6457   11.2336    9.5879 C.ar      1 RES1    0.0000
      2 C2        -3.9957   10.7160    8.4854 C.ar      1 RES1    0.0000
      3 C3        -4.3708   11.1288    7.2230 C.ar      1 RES1    0.0000
      4 C4        -5.3649   12.0333    6.9880 C.ar      1 RES1    0.0000
      5 C5        -6.0065   12.5638    8.0771 C.ar      1 RES1    0.0000
      6 C6        -5.6478   12.1607    9.3577 C.ar      1 RES1    0.0000
      7 C7        -4.3583   10.7805   11.0344 C.3       1 RES1    0.0000
      8 C8        -4.0714   12.0172   11.9043 C.2       1 RES1    0.0000
      9 C9        -4.5027   12.0849   13.1885 C.2       1 RES1    0.0000
     10 C10       -5.6377   10.1081   11.5627 C.2       1 RES1    0.0000
     11 C11       -6.0205   10.2339   12.8348 C.2       1 RES1    0.0000
     12 C12       -4.1743   13.1201   14.2244 C.3       1 RES1    0.0000
     13 C13       -7.1169    9.4761   13.5132 C.3       1 RES1    0.0000
     14 C14       -6.4496    9.2777   10.6480 C.2       1 RES1    0.0000
     15 C15       -3.1708   13.0056   11.3034 C.2       1 RES1    0.0000
     16 C16       -6.4211    7.9249    8.7253 C.3       1 RES1    0.0000
     17 C17       -2.3223   15.2178   11.3361 C.3       1 RES1    0.0000
     18 C18       -3.1741    9.8018   11.1374 C.3       1 RES1    0.0000
     19 N1        -3.6817   10.5370    6.0660 N.pl3     1 RES1    0.0000
     20 N2        -5.3408   11.1078   13.6586 N.pl3     1 RES1    0.0000
     21 O1        -4.0934   10.7934    4.9454 O.2       1 RES1    0.0000
     22 O2        -2.7078    9.8389    6.2659 O.2       1 RES1    0.0000
     23 O3        -7.6649    9.2665   10.6056 O.2       1 RES1    0.0000
     24 O4        -5.6919    8.5586    9.8302 O.3       1 RES1    0.0000
     25 O5        -2.4363   12.7767   10.3669 O.2       1 RES1    0.0000
     26 O6        -3.2379   14.2262   11.8583 O.3       1 RES1    0.0000
     27 H1        -3.3360   10.1097    8.5896 H         1 RES1    0.0000
     28 H2        -5.6112   12.2865    6.0576 H         1 RES1    0.0000
     29 H3        -6.7453   13.2056    7.9475 H         1 RES1    0.0000
     30 H4        -6.1010   12.5122   10.0798 H         1 RES1    0.0000
     31 H5        -3.2489   13.4474   14.1868 H         1 RES1    0.0000
     32 H6        -4.7398   13.8344   14.1868 H         1 RES1    0.0000
     33 H7        -4.1725   12.7541   15.0954 H         1 RES1    0.0000
     34 H8        -7.6759    8.9972   12.9874 H         1 RES1    0.0000
     35 H9        -6.7730    8.8198   14.0293 H         1 RES1    0.0000
     36 H10       -7.5684    9.9808   14.1141 H         1 RES1    0.0000
     37 H11       -5.4836    7.4493    8.5290 H         1 RES1    0.0000
     38 H12       -7.0013    7.3203    9.0742 H         1 RES1    0.0000
     39 H13       -6.7486    8.6263    8.0323 H         1 RES1    0.0000
     40 H14       -2.3158   15.9628   11.9576 H         1 RES1    0.0000
     41 H15       -1.2793   14.8018   11.3276 H         1 RES1    0.0000
     42 H16       -2.6368   15.4307   10.5765 H         1 RES1    0.0000
     43 H17       -3.0061    9.5777   12.0788 H         1 RES1    0.0000
     44 H18       -3.3602    8.9972   10.6250 H         1 RES1    0.0000
     45 H19       -2.2995   10.2226   10.8673 H         1 RES1    0.0000
     46 H20       -5.5843   11.1901   14.3685 H         1 RES1    0.0000
@<TRIPOS>BOND
     1    1    2 ar
     2    2    3 ar
     3    3    4 ar
     4    4    5 ar
     5    5    6 ar
     6    6    1 ar
     7    7    1 1
     8    8    7 1
     9    9    8 2
    10   10    7 1
    11   11   10 2
    12   12    9 1
    13   13   11 1
    14   14   10 1
    15   15    8 1
    16   16   24 1
    17   17   26 1
    18   18    7 1
    19   19    3 1
    20   20    9 1
    21   21   19 2
    22   22   19 2
    23   23   14 2
    24   24   14 1
    25   25   15 2
    26   26   15 1
    27   27    2 1
    28   28    4 1
    29   29    5 1
    30   30    6 1
    31   31   12 1
    32   32   12 1
    33   33   12 1
    34   34   13 1
    35   35   13 1
    36   36   13 1
    37   37   16 1
    38   38   16 1
    39   39   16 1
    40   40   17 1
    41   41   17 1
    42   42   17 1
    43   43   18 1
    44   44   18 1
    45   45   18 1
    46   46   20 1
    47   11   20 1
@<TRIPOS>SUBSTRUCTURE
     1 RES1 1

@<TRIPOS>CRYSIN
   9.3185   16.1240   14.7790  90.0000 124.9400  90.0000  14 1

