# MOL2 file generated by ConQuest
# Please check atom types

@<TRIPOS>MOLECULE
JENZAG
    26    28     1
SMALL
NO_CHARGES
****
Generated from CSD

@<TRIPOS>ATOM
      1 O1         0.8076   -1.0945    3.3181 O.3       1 RES1    0.0000
      2 C1        -0.3020   -1.7016    2.7415 C.2       1 RES1    0.0000
      3 N1        -1.1827   -0.8844    2.2702 N.2       1 RES1    0.0000
      4 C2        -0.6535    0.3856    2.5230 C.ar      1 RES1    0.0000
      5 C3        -1.1611    1.6500    2.2575 C.ar      1 RES1    0.0000
      6 H1        -1.9756    1.7767    1.8269 H         1 RES1    0.0000
      7 C4        -0.3800    2.7089    2.6726 C.ar      1 RES1    0.0000
      8 C5         0.8543    2.5621    3.3118 C.ar      1 RES1    0.0000
      9 H2         1.3405    3.3144    3.5605 H         1 RES1    0.0000
     10 C6         1.3510    1.3077    3.5731 C.ar      1 RES1    0.0000
     11 H3         2.1674    1.1792    3.9995 H         1 RES1    0.0000
     12 C7         0.5635    0.2446    3.1643 C.ar      1 RES1    0.0000
     13 N2        -0.8939    4.0719    2.4703 N.pl3     1 RES1    0.0000
     14 O2        -2.0316    4.1935    2.0370 O.2       1 RES1    0.0000
     15 O3        -0.1676    5.0131    2.7604 O.2       1 RES1    0.0000
     16 C8        -0.3344   -3.1535    2.7330 C.ar      1 RES1    0.0000
     17 C9         0.7306   -3.9075    3.1994 C.ar      1 RES1    0.0000
     18 H4         1.4843   -3.4871    3.5471 H         1 RES1    0.0000
     19 C10        0.6657   -5.2951    3.1453 C.ar      1 RES1    0.0000
     20 H5         1.3837   -5.8056    3.4460 H         1 RES1    0.0000
     21 C11       -0.4514   -5.9137    2.6509 C.ar      1 RES1    0.0000
     22 H6        -0.4897   -6.8413    2.6207 H         1 RES1    0.0000
     23 C12       -1.5149   -5.1719    2.1985 C.ar      1 RES1    0.0000
     24 H7        -2.2718   -5.6011    1.8684 H         1 RES1    0.0000
     25 C13       -1.4642   -3.7930    2.2343 C.ar      1 RES1    0.0000
     26 H8        -2.1839   -3.2932    1.9246 H         1 RES1    0.0000
@<TRIPOS>BOND
     1    1    2 1
     2    2    3 2
     3    3    4 1
     4    4    5 ar
     5    5    6 1
     6    7    5 ar
     7    8    7 ar
     8    9    8 1
     9   10    8 ar
    10   11   10 1
    11   12    1 1
    12   13    7 1
    13   14   13 2
    14   15   13 2
    15   16    2 1
    16   17   16 ar
    17   18   17 1
    18   19   17 ar
    19   20   19 1
    20   21   19 ar
    21   22   21 1
    22   23   21 ar
    23   24   23 1
    24   25   16 ar
    25   26   25 1
    26    4   12 ar
    27   10   12 ar
    28   23   25 ar
@<TRIPOS>SUBSTRUCTURE
     1 RES1 1

@<TRIPOS>CRYSIN
   5.8430   26.5580    7.1410  90.0000 100.3860  90.0000   9 1

