# MOL2 file generated by ConQuest
# Please check atom types

@<TRIPOS>MOLECULE
JENZAG01
    26    28     1
SMALL
NO_CHARGES
****
Generated from CSD

@<TRIPOS>ATOM
      1 O1         0.3436   -1.1110    3.8449 O.3       1 RES1    0.0000
      2 C1        -0.7694   -1.7109    3.2743 C.2       1 RES1    0.0000
      3 N1        -1.6595   -0.8900    2.7928 N.2       1 RES1    0.0000
      4 C2        -1.1262    0.3781    3.0477 C.ar      1 RES1    0.0000
      5 C3        -1.6459    1.6412    2.7838 C.ar      1 RES1    0.0000
      6 H1        -2.4809    1.7700    2.3493 H         1 RES1    0.0000
      7 C4        -0.8500    2.7014    3.2045 C.ar      1 RES1    0.0000
      8 C5         0.3939    2.5604    3.8373 C.ar      1 RES1    0.0000
      9 H2         0.8941    3.3307    4.0797 H         1 RES1    0.0000
     10 C6         0.8928    1.2933    4.1081 C.ar      1 RES1    0.0000
     11 H3         1.7233    1.1606    4.5495 H         1 RES1    0.0000
     12 C7         0.1004    0.2345    3.6943 C.ar      1 RES1    0.0000
     13 N2        -1.3648    4.0691    3.0118 N.pl3     1 RES1    0.0000
     14 O2        -2.5125    4.1892    2.5766 O.2       1 RES1    0.0000
     15 O3        -0.6435    5.0143    3.3116 O.2       1 RES1    0.0000
     16 C8        -0.8114   -3.1664    3.2701 C.ar      1 RES1    0.0000
     17 C9         0.2591   -3.9287    3.7426 C.ar      1 RES1    0.0000
     18 H4         1.0316   -3.5003    4.0922 H         1 RES1    0.0000
     19 C10        0.1897   -5.3190    3.6984 C.ar      1 RES1    0.0000
     20 H5         0.9171   -5.8426    4.0141 H         1 RES1    0.0000
     21 C11       -0.9447   -5.9404    3.1907 C.ar      1 RES1    0.0000
     22 H6        -0.9853   -6.8892    3.1541 H         1 RES1    0.0000
     23 C12       -2.0178   -5.1886    2.7376 C.ar      1 RES1    0.0000
     24 H7        -2.7963   -5.6200    2.4067 H         1 RES1    0.0000
     25 C13       -1.9504   -3.8021    2.7693 C.ar      1 RES1    0.0000
     26 H8        -2.6799   -3.2856    2.4495 H         1 RES1    0.0000
@<TRIPOS>BOND
     1    1    2 1
     2    2    3 2
     3    3    4 1
     4    4    5 ar
     5    5    6 1
     6    7    5 ar
     7    8    7 ar
     8    9    8 1
     9   10    8 ar
    10   11   10 1
    11   12    1 1
    12   13    7 1
    13   14   13 2
    14   15   13 2
    15   16    2 1
    16   17   16 ar
    17   18   17 1
    18   19   17 ar
    19   20   19 1
    20   21   19 ar
    21   22   21 1
    22   23   21 ar
    23   24   23 1
    24   25   16 ar
    25   26   25 1
    26    4   12 ar
    27   10   12 ar
    28   23   25 ar
@<TRIPOS>SUBSTRUCTURE
     1 RES1 1

@<TRIPOS>CRYSIN
   5.7690   26.4970    7.0030  90.0000  99.4590  90.0000   9 1

