# MOL2 file generated by ConQuest
# Please check atom types

@<TRIPOS>MOLECULE
JEPBOV
    55    57     1
SMALL
NO_CHARGES
****
Generated from CSD

@<TRIPOS>ATOM
      1 C1         2.4424    3.0026   -2.1667 C.3       1 RES1    0.0000
      2 C2         2.1913    4.4633   -2.4639 C.2       1 RES1    0.0000
      3 N1         2.0913    5.4612   -1.6900 N.2       1 RES1    0.0000
      4 C3         2.0644    4.6011   -3.9496 C.2       1 RES1    0.0000
      5 C4         1.7395    3.1989   -4.4387 C.3       1 RES1    0.0000
      6 C5         1.7771    2.7896   -5.9058 C.3       1 RES1    0.0000
      7 C6         1.7100    1.2377   -6.0327 C.3       1 RES1    0.0000
      8 C7         2.7311    0.5014   -5.1320 C.3       1 RES1    0.0000
      9 C8         2.5800    0.9097   -3.6896 C.2       1 RES1    0.0000
     10 C9         2.6995    2.3843   -3.5317 C.3       1 RES1    0.0000
     11 C10        2.3726    0.0307   -2.7084 C.2       1 RES1    0.0000
     12 C11        0.6546    3.4585   -6.7601 C.3       1 RES1    0.0000
     13 C12       -0.7291    2.8807   -6.5187 C.3       1 RES1    0.0000
     14 C13        0.9661    3.4179   -8.2737 C.3       1 RES1    0.0000
     15 C14        2.3672    5.7684   -4.5377 C.2       1 RES1    0.0000
     16 C15        2.5290    6.1539   -5.9925 C.3       1 RES1    0.0000
     17 C16        2.2350    6.1272    0.6098 C.ar      1 RES1    0.0000
     18 N2         2.2450    5.1511   -0.3343 N.3       1 RES1    0.0000
     19 C17        2.3316    5.8656    1.9810 C.ar      1 RES1    0.0000
     20 N3         2.4088    4.5188    2.5165 N.pl3     1 RES1    0.0000
     21 O1         2.4438    4.3692    3.7422 O.2       1 RES1    0.0000
     22 O2         2.4484    3.5665    1.7272 O.2       1 RES1    0.0000
     23 C18        2.3135    6.8991    2.9220 C.ar      1 RES1    0.0000
     24 C19        2.2430    8.2092    2.4917 C.ar      1 RES1    0.0000
     25 N4         2.2303    9.2884    3.4451 N.pl3     1 RES1    0.0000
     26 O3         2.2934    9.0208    4.6460 O.2       1 RES1    0.0000
     27 O4         2.1705   10.4409    3.0241 O.2       1 RES1    0.0000
     28 C20        2.1423    8.4986    1.1298 C.ar      1 RES1    0.0000
     29 C21        2.1477    7.4818    0.2167 C.ar      1 RES1    0.0000
     30 H1         3.3098    2.8817   -1.5167 H         1 RES1    0.0000
     31 H2         1.5703    2.5488   -1.6962 H         1 RES1    0.0000
     32 H3         0.6653    3.0324   -4.3644 H         1 RES1    0.0000
     33 H4         2.7244    3.1513   -6.3051 H         1 RES1    0.0000
     34 H5         1.9080    0.9692   -7.0697 H         1 RES1    0.0000
     35 H6         0.7076    0.9097   -5.7573 H         1 RES1    0.0000
     36 H7         3.7395    0.7472   -5.4632 H         1 RES1    0.0000
     37 H8         2.5713   -0.5728   -5.2156 H         1 RES1    0.0000
     38 H9         3.7556    2.4616   -3.7917 H         1 RES1    0.0000
     39 H10        2.3122   -1.0326   -2.9374 H         1 RES1    0.0000
     40 H11        2.2685    0.3726   -1.6777 H         1 RES1    0.0000
     41 H12        0.6485    4.4960   -6.4258 H         1 RES1    0.0000
     42 H13       -0.8318    1.9443   -7.0666 H         1 RES1    0.0000
     43 H14       -1.4844    3.5873   -6.8623 H         1 RES1    0.0000
     44 H15       -0.8640    2.6954   -5.4539 H         1 RES1    0.0000
     45 H16        1.7771    4.1096   -8.4997 H         1 RES1    0.0000
     46 H17        0.0759    3.7062   -8.8340 H         1 RES1    0.0000
     47 H18        1.2615    2.4071   -8.5585 H         1 RES1    0.0000
     48 H19        2.5216    6.5909   -3.8413 H         1 RES1    0.0000
     49 H20        2.2994    5.2938   -6.6208 H         1 RES1    0.0000
     50 H21        3.5562    6.4710   -6.1720 H         1 RES1    0.0000
     51 H22        1.8483    6.9705   -6.2339 H         1 RES1    0.0000
     52 H23        2.3437    4.3008    0.1238 H         1 RES1    0.0000
     53 H24        2.3531    6.6742    3.9867 H         1 RES1    0.0000
     54 H25        2.0604    9.5321    0.7955 H         1 RES1    0.0000
     55 H26        2.0819    7.7226   -0.8450 H         1 RES1    0.0000
@<TRIPOS>BOND
     1    1    2 1
     2    2    3 2
     3    3   18 1
     4    4    2 1
     5    5    4 1
     6    6    5 1
     7    7    6 1
     8    8    7 1
     9    9    8 1
    10   10    1 1
    11   11    9 2
    12   12    6 1
    13   13   12 1
    14   14   12 1
    15   15    4 2
    16   16   15 1
    17   17   18 1
    18   18   52 1
    19   19   17 ar
    20   20   19 1
    21   21   20 2
    22   22   20 2
    23   23   19 ar
    24   24   23 ar
    25   25   24 1
    26   26   25 2
    27   27   25 2
    28   28   24 ar
    29   29   17 ar
    30   30    1 1
    31   31    1 1
    32   32    5 1
    33   33    6 1
    34   34    7 1
    35   35    7 1
    36   36    8 1
    37   37    8 1
    38   38   10 1
    39   39   11 1
    40   40   11 1
    41   41   12 1
    42   42   13 1
    43   43   13 1
    44   44   13 1
    45   45   14 1
    46   46   14 1
    47   47   14 1
    48   48   15 1
    49   49   16 1
    50   50   16 1
    51   51   16 1
    52   53   23 1
    53   54   28 1
    54   55   29 1
    55    5   10 1
    56    9   10 1
    57   28   29 ar
@<TRIPOS>SUBSTRUCTURE
     1 RES1 1

@<TRIPOS>CRYSIN
   6.7136    9.9097   30.9530  90.0000  90.0000  90.0000  19 1

