# MOL2 file generated by ConQuest
# Please check atom types

@<TRIPOS>MOLECULE
JERHIY
    39    40     1
SMALL
NO_CHARGES
****
Generated from CSD

@<TRIPOS>ATOM
      1 O1         7.9324    3.5888    0.3210 O.2       1 RES1    0.0000
      2 O2         8.7178    2.9266    2.1767 O.2       1 RES1    0.0000
      3 O3         8.4669   -1.8400    0.2650 O.3       1 RES1    0.0000
      4 O4         6.3177   -1.7240   -0.2922 O.2       1 RES1    0.0000
      5 N1         7.8350    2.9678    1.3542 N.pl3     1 RES1    0.0000
      6 C1         6.3496    5.0114    3.8297 C.ar      1 RES1    0.0000
      7 H1         6.9440    4.6542    4.4496 H         1 RES1    0.0000
      8 C2         6.1356    6.3750    3.7999 C.ar      1 RES1    0.0000
      9 H2         6.5874    6.9245    4.3992 H         1 RES1    0.0000
     10 C3         5.2689    6.9255    2.9019 C.ar      1 RES1    0.0000
     11 H3         5.1296    7.8450    2.8858 H         1 RES1    0.0000
     12 C4         4.6073    6.1115    2.0264 C.ar      1 RES1    0.0000
     13 H4         4.0122    6.4782    1.4141 H         1 RES1    0.0000
     14 C5         4.8183    4.7490    2.0465 C.ar      1 RES1    0.0000
     15 H5         4.3631    4.2089    1.4415 H         1 RES1    0.0000
     16 C6         5.6923    4.1673    2.9496 C.ar      1 RES1    0.0000
     17 C7         5.9048    2.6647    2.9209 C.3       1 RES1    0.0000
     18 H6         5.0045    2.2783    2.9103 H         1 RES1    0.0000
     19 C8         6.5800    2.0660    4.1474 C.3       1 RES1    0.0000
     20 H7         7.4684    2.4442    4.2423 H         1 RES1    0.0000
     21 H8         6.0710    2.2954    4.9392 H         1 RES1    0.0000
     22 C9         6.6861    0.5540    4.0369 C.3       1 RES1    0.0000
     23 H9         7.1513    0.2060    4.8140 H         1 RES1    0.0000
     24 H10        5.7963    0.1698    4.0234 H         1 RES1    0.0000
     25 C10        7.4301    0.1433    2.7811 C.3       1 RES1    0.0000
     26 H11        7.4509   -0.8251    2.7231 H         1 RES1    0.0000
     27 H12        8.3462    0.4583    2.8339 H         1 RES1    0.0000
     28 C11        6.7754    0.7083    1.5260 C.3       1 RES1    0.0000
     29 H13        5.8833    0.3045    1.4861 H         1 RES1    0.0000
     30 C12        6.5452    2.2208    1.6004 C.3       1 RES1    0.0000
     31 H14        5.9254    2.4592    0.8798 H         1 RES1    0.0000
     32 C13        7.4761    0.2923    0.2347 C.3       1 RES1    0.0000
     33 H15        7.0850    0.7668   -0.5155 H         1 RES1    0.0000
     34 H16        8.4164    0.5266    0.2837 H         1 RES1    0.0000
     35 C14        7.3358   -1.1872    0.0239 C.2       1 RES1    0.0000
     36 C15        8.3844   -3.2842    0.1944 C.3       1 RES1    0.0000
     37 H17        7.7488   -3.5999    0.8395 H         1 RES1    0.0000
     38 H18        9.2460   -3.6632    0.3816 H         1 RES1    0.0000
     39 H19        8.1044   -3.5466   -0.6854 H         1 RES1    0.0000
@<TRIPOS>BOND
     1    1    5 2
     2    2    5 2
     3    3   35 1
     4    4   35 2
     5    5   30 1
     6    6    7 1
     7    8    6 ar
     8    9    8 1
     9   10    8 ar
    10   11   10 1
    11   12   10 ar
    12   13   12 1
    13   14   12 ar
    14   15   14 1
    15   16    6 ar
    16   17   16 1
    17   18   17 1
    18   19   17 1
    19   20   19 1
    20   21   19 1
    21   22   19 1
    22   23   22 1
    23   24   22 1
    24   25   22 1
    25   26   25 1
    26   27   25 1
    27   28   25 1
    28   29   28 1
    29   30   17 1
    30   31   30 1
    31   32   28 1
    32   33   32 1
    33   34   32 1
    34   35   32 1
    35   36    3 1
    36   37   36 1
    37   38   36 1
    38   39   36 1
    39   14   16 ar
    40   28   30 1
@<TRIPOS>SUBSTRUCTURE
     1 RES1 1

@<TRIPOS>CRYSIN
   9.9550   10.0500   15.0800  90.0000 107.2700  90.0000  14 1

