# MOL2 file generated by ConQuest
# Please check atom types

@<TRIPOS>MOLECULE
JERHOD
    27    26     1
SMALL
NO_CHARGES
****
Generated from CSD

@<TRIPOS>ATOM
      1 O1         0.8927    4.1443    6.5669 O.3       1 RES1    0.0000
      2 O2        -2.1999    5.6996    5.4683 O.3       1 RES1    0.0000
      3 O3        -0.7558    3.4350    4.1243 O.3       1 RES1    0.0000
      4 O4        -0.4339    6.8326    2.8600 O.3       1 RES1    0.0000
      5 O5         0.8163    4.5053    1.4852 O.3       1 RES1    0.0000
      6 O6        -0.9286    3.6925    9.2919 O.2       1 RES1    0.0000
      7 O7         0.7337    4.9311    9.7153 O.2       1 RES1    0.0000
      8 N1        -0.2325    4.6501    9.0587 N.pl3     1 RES1    0.0000
      9 C1        -0.5888    5.5239    7.8926 C.3       1 RES1    0.0000
     10 C2        -0.4030    4.6880    6.6283 C.3       1 RES1    0.0000
     11 C3        -0.7859    5.5174    5.3947 C.3       1 RES1    0.0000
     12 C4        -0.3837    4.8085    4.1059 C.3       1 RES1    0.0000
     13 C5        -0.9509    5.5048    2.8538 C.3       1 RES1    0.0000
     14 C6        -0.5881    4.7763    1.5773 C.3       1 RES1    0.0000
     15 H1        -1.4940    5.8062    7.9785 H         1 RES1    0.0000
     16 H2        -0.0879    6.2585    7.9171 H         1 RES1    0.0000
     17 H3        -1.0245    3.9143    6.6897 H         1 RES1    0.0000
     18 H4        -0.3264    6.3411    5.4622 H         1 RES1    0.0000
     19 H5         0.5876    4.8276    4.0506 H         1 RES1    0.0000
     20 H6        -1.9988    5.5148    2.9459 H         1 RES1    0.0000
     21 H7        -1.0923    3.9012    1.5343 H         1 RES1    0.0000
     22 H8        -0.8638    5.3234    0.8592 H         1 RES1    0.0000
     23 H9         1.4036    4.6580    6.3828 H         1 RES1    0.0000
     24 H10       -2.3880    6.4411    5.2167 H         1 RES1    0.0000
     25 H11       -1.4363    3.3402    3.9279 H         1 RES1    0.0000
     26 H12       -0.8964    7.3545    2.4549 H         1 RES1    0.0000
     27 H13        1.1601    4.9146    0.8592 H         1 RES1    0.0000
@<TRIPOS>BOND
     1    1   10 1
     2    2   11 1
     3    3   12 1
     4    4   13 1
     5    5   14 1
     6    6    8 2
     7    7    8 2
     8    8    9 1
     9    9   10 1
    10   10   11 1
    11   11   12 1
    12   12   13 1
    13   13   14 1
    14   14   21 1
    15   15    9 1
    16   16    9 1
    17   17   10 1
    18   18   11 1
    19   19   12 1
    20   20   13 1
    21   22   14 1
    22   23    1 1
    23   24    2 1
    24   25    3 1
    25   26    4 1
    26   27    5 1
@<TRIPOS>SUBSTRUCTURE
     1 RES1 1

@<TRIPOS>CRYSIN
   5.0220    5.0220   61.3730  90.0000  90.0000 120.0000 169 1

