# MOL2 file generated by ConQuest
# Please check atom types

@<TRIPOS>MOLECULE
JERHIX
    27    26     1
SMALL
NO_CHARGES
****
Generated from CSD

@<TRIPOS>ATOM
      1 O1         5.8302   -1.4731    6.6345 O.3       1 RES1    0.0000
      2 O2         7.3336    0.0549    4.7840 O.3       1 RES1    0.0000
      3 O3         3.7081    0.1071    4.5398 O.3       1 RES1    0.0000
      4 O4         4.6498    1.9294    2.9871 O.3       1 RES1    0.0000
      5 O5         5.2216   -1.2965    1.3624 O.3       1 RES1    0.0000
      6 O6         5.4206   -0.0522    9.3461 O.2       1 RES1    0.0000
      7 O7         7.5313   -0.4085    9.5345 O.2       1 RES1    0.0000
      8 N1         6.5468   -0.0371    8.9176 N.pl3     1 RES1    0.0000
      9 C1         6.7640    0.5027    7.5532 C.3       1 RES1    0.0000
     10 C2         5.7388   -0.0452    6.5859 C.3       1 RES1    0.0000
     11 C3         6.0395    0.4709    5.1780 C.3       1 RES1    0.0000
     12 C4         5.0682   -0.0727    4.1276 C.3       1 RES1    0.0000
     13 C5         5.2256    0.6566    2.7987 C.3       1 RES1    0.0000
     14 C6         4.5416   -0.0748    1.6531 C.3       1 RES1    0.0000
     15 H1         6.6129    1.4370    7.5867 H         1 RES1    0.0000
     16 H2         7.6258    0.1722    7.2727 H         1 RES1    0.0000
     17 H3         4.8902    0.3229    6.8472 H         1 RES1    0.0000
     18 H4         6.0083    1.4531    5.2063 H         1 RES1    0.0000
     19 H5         5.2837   -1.0011    4.0010 H         1 RES1    0.0000
     20 H6         6.1319    0.7320    2.5728 H         1 RES1    0.0000
     21 H7         4.4781    0.4413    0.8002 H         1 RES1    0.0000
     22 H8         3.5570   -0.2852    1.9346 H         1 RES1    0.0000
     23 H9         5.0348   -1.6846    6.4927 H         1 RES1    0.0000
     24 H10        7.9352    0.7320    4.6999 H         1 RES1    0.0000
     25 H11        3.5380   -0.3283    5.2165 H         1 RES1    0.0000
     26 H12        4.7990    2.4273    2.3499 H         1 RES1    0.0000
     27 H13        5.7453   -1.1948    0.7394 H         1 RES1    0.0000
@<TRIPOS>BOND
     1    1   10 1
     2    2   11 1
     3    3   12 1
     4    4   13 1
     5    5   14 1
     6    6    8 2
     7    7    8 2
     8    8    9 1
     9    9   10 1
    10   10   11 1
    11   11   12 1
    12   12   13 1
    13   13   14 1
    14   14   21 1
    15   15    9 1
    16   16    9 1
    17   17   10 1
    18   18   11 1
    19   19   12 1
    20   20   13 1
    21   22   14 1
    22   23    1 1
    23   24    2 1
    24   25    3 1
    25   26    4 1
    26   27    5 1
@<TRIPOS>SUBSTRUCTURE
     1 RES1 1

@<TRIPOS>CRYSIN
   8.3980    5.3820   10.2060  90.0000  97.0400  90.0000   4 1

