# MOL2 file generated by ConQuest
# Please check atom types

@<TRIPOS>MOLECULE
JERHUK
    29    31     1
SMALL
NO_CHARGES
****
Generated from CSD

@<TRIPOS>ATOM
      1 O1         3.7620   10.7261    4.7852 O.3       1 RES1    0.0000
      2 O2         1.9485   12.3822    2.2967 O.2       1 RES1    0.0000
      3 O3         4.0616   12.1866    2.6366 O.2       1 RES1    0.0000
      4 N1         2.8988   12.0009    2.9345 N.pl3     1 RES1    0.0000
      5 C1         2.6091   11.2368    4.1970 C.3       1 RES1    0.0000
      6 C2         3.1027   11.8678    5.4218 C.3       1 RES1    0.0000
      7 H1         3.5401   12.7398    5.3210 H         1 RES1    0.0000
      8 C3         2.4265   11.6051    6.7263 C.3       1 RES1    0.0000
      9 H2         2.2564   12.4512    7.1684 H         1 RES1    0.0000
     10 H3         3.0241   11.0909    7.2916 H         1 RES1    0.0000
     11 C4         1.1208   10.8552    6.5835 C.3       1 RES1    0.0000
     12 H4         0.4185   11.4891    6.3676 H         1 RES1    0.0000
     13 H5         0.8993   10.4495    7.4358 H         1 RES1    0.0000
     14 C5         1.1505    9.7736    5.5167 C.3       1 RES1    0.0000
     15 H6         0.3076    9.2950    5.5218 H         1 RES1    0.0000
     16 H7         1.8571    9.1400    5.7196 H         1 RES1    0.0000
     17 C6         1.3880   10.3706    4.1250 C.3       1 RES1    0.0000
     18 H8         0.6247   10.9492    3.9143 H         1 RES1    0.0000
     19 C7         1.4917    9.3294    3.0323 C.ar      1 RES1    0.0000
     20 C8         0.4672    9.1798    2.1264 C.ar      1 RES1    0.0000
     21 H9        -0.2830    9.7252    2.1858 H         1 RES1    0.0000
     22 C9         0.5408    8.2206    1.1241 C.ar      1 RES1    0.0000
     23 H10       -0.1639    8.1244    0.5254 H         1 RES1    0.0000
     24 C10        1.6352    7.4194    1.0096 C.ar      1 RES1    0.0000
     25 H11        1.6848    6.7882    0.3298 H         1 RES1    0.0000
     26 C11        2.6576    7.5528    1.9010 C.ar      1 RES1    0.0000
     27 H12        3.4045    7.0046    1.8285 H         1 RES1    0.0000
     28 C12        2.5988    8.4951    2.9142 C.ar      1 RES1    0.0000
     29 H13        3.3024    8.5707    3.5179 H         1 RES1    0.0000
@<TRIPOS>BOND
     1    1    5 1
     2    2    4 2
     3    3    4 2
     4    4    5 1
     5    5    6 1
     6    6    1 1
     7    7    6 1
     8    8    6 1
     9    9    8 1
    10   10    8 1
    11   11    8 1
    12   12   11 1
    13   13   11 1
    14   14   11 1
    15   15   14 1
    16   16   14 1
    17   17    5 1
    18   18   17 1
    19   19   17 1
    20   20   19 ar
    21   21   20 1
    22   22   20 ar
    23   23   22 1
    24   24   22 ar
    25   25   24 1
    26   26   24 ar
    27   27   26 1
    28   28   19 ar
    29   29   28 1
    30   14   17 1
    31   26   28 ar
@<TRIPOS>SUBSTRUCTURE
     1 RES1 1

@<TRIPOS>CRYSIN
   5.7540   26.7250    7.6230  90.0000 108.0610  90.0000  14 1

