# MOL2 file generated by ConQuest
# Please check atom types

@<TRIPOS>MOLECULE
JERJOF
    33    33     1
SMALL
NO_CHARGES
****
Generated from CSD

@<TRIPOS>ATOM
      1 O1         5.9323    1.9171   -3.4747 O.3       1 RES1    0.0000
      2 O2         7.0473    3.8095   -1.7969 O.3       1 RES1    0.0000
      3 O3         5.2677    5.0937    0.0815 O.2       1 RES1    0.0000
      4 O4         3.3470    5.3610   -0.8585 O.2       1 RES1    0.0000
      5 O5         3.7994    2.2903    0.3674 O.3       1 RES1    0.0000
      6 O6         5.1556    0.6866   -1.6180 O.3       1 RES1    0.0000
      7 O7         5.0756    4.8387   -3.4460 O.3       1 RES1    0.0000
      8 O8         3.2329    3.5607   -3.5705 O.2       1 RES1    0.0000
      9 N1         4.4040    4.7604   -0.7092 N.pl3     1 RES1    0.0000
     10 C1         6.0945    1.6098   -2.1091 C.3       1 RES1    0.0000
     11 C2         6.0024    2.9401   -1.3896 C.3       1 RES1    0.0000
     12 C3         4.5821    3.5054   -1.5613 C.3       1 RES1    0.0000
     13 C4         3.5772    2.4608   -1.0182 C.3       1 RES1    0.0000
     14 C5         3.7814    1.1367   -1.7441 C.3       1 RES1    0.0000
     15 C6         2.9116    0.0261   -1.1803 C.3       1 RES1    0.0000
     16 C7         6.2196    0.8525   -4.3875 C.3       1 RES1    0.0000
     17 C8         4.2038    3.9539   -2.9892 C.2       1 RES1    0.0000
     18 C9         4.8964    5.2965   -4.8092 C.3       1 RES1    0.0000
     19 H1         7.0063    3.8403   -2.6354 H         1 RES1    0.0000
     20 H2         3.2029    2.6882    0.9583 H         1 RES1    0.0000
     21 H3         7.0563    1.1060   -1.9725 H         1 RES1    0.0000
     22 H4         6.1655    2.8111   -0.3194 H         1 RES1    0.0000
     23 H5         2.5523    2.8111   -1.1899 H         1 RES1    0.0000
     24 H6         3.5032    1.3210   -2.7871 H         1 RES1    0.0000
     25 H7         3.1428   -0.1536   -0.1517 H         1 RES1    0.0000
     26 H8         3.0628   -0.9063   -1.7489 H         1 RES1    0.0000
     27 H9         1.8817    0.3379   -1.2937 H         1 RES1    0.0000
     28 H10        5.5950   -0.0000   -4.1527 H         1 RES1    0.0000
     29 H11        7.2765    0.5530   -4.2406 H         1 RES1    0.0000
     30 H12        6.1155    1.0753   -5.4305 H         1 RES1    0.0000
     31 H13        3.9135    5.7604   -4.8954 H         1 RES1    0.0000
     32 H14        4.9344    4.4393   -5.4784 H         1 RES1    0.0000
     33 H15        5.6050    6.0215   -5.2069 H         1 RES1    0.0000
@<TRIPOS>BOND
     1    1   10 1
     2    2   11 1
     3    3    9 2
     4    4    9 2
     5    5   13 1
     6    6   10 1
     7    7   17 1
     8    8   17 2
     9    9   12 1
    10   10   11 1
    11   11   12 1
    12   12   13 1
    13   13   14 1
    14   14    6 1
    15   15   14 1
    16   16    1 1
    17   17   12 1
    18   18    7 1
    19   19    2 1
    20   20    5 1
    21   21   10 1
    22   22   11 1
    23   23   13 1
    24   24   14 1
    25   25   15 1
    26   26   15 1
    27   27   15 1
    28   28   16 1
    29   29   16 1
    30   30   16 1
    31   31   18 1
    32   32   18 1
    33   33   18 1
@<TRIPOS>SUBSTRUCTURE
     1 RES1 1

@<TRIPOS>CRYSIN
  10.0090   15.3610    7.9860  90.0000  90.0000  90.0000  19 1

