# MOL2 file generated by ConQuest
# Please check atom types

@<TRIPOS>MOLECULE
JERJAS
    43    45     1
SMALL
NO_CHARGES
****
Generated from CSD

@<TRIPOS>ATOM
      1 O1         1.1043    6.4988    0.8125 O.3       1 RES1    0.0000
      2 O2         1.3432    5.8644   -1.3948 O.3       1 RES1    0.0000
      3 O3         5.8051    4.7428    2.6234 O.2       1 RES1    0.0000
      4 O4         4.6164    5.6575    4.1508 O.2       1 RES1    0.0000
      5 O5         7.2766    2.4954    7.6318 O.3       1 RES1    0.0000
      6 O6         7.9641    1.6770    5.6775 O.2       1 RES1    0.0000
      7 N1         4.9584    4.6889    3.5017 N.pl3     1 RES1    0.0000
      8 C1         4.3537    3.3037    3.8046 C.3       1 RES1    0.0000
      9 C2         3.2129    3.4625    4.7593 C.2       1 RES1    0.0000
     10 H1         3.3199    4.0258    5.4920 H         1 RES1    0.0000
     11 C3         2.0649    2.8395    4.6069 C.2       1 RES1    0.0000
     12 H2         1.4109    2.9732    5.2546 H         1 RES1    0.0000
     13 C4         1.7431    1.9443    3.4807 C.3       1 RES1    0.0000
     14 H3         1.1610    2.4070    2.8586 H         1 RES1    0.0000
     15 H4         1.2680    1.1668    3.8143 H         1 RES1    0.0000
     16 C5         3.0032    1.4952    2.7563 C.3       1 RES1    0.0000
     17 H5         2.7577    1.0655    1.9224 H         1 RES1    0.0000
     18 H6         3.4705    0.8428    3.3017 H         1 RES1    0.0000
     19 C6         3.9391    2.6721    2.4630 C.3       1 RES1    0.0000
     20 H7         4.7492    2.3049    2.0514 H         1 RES1    0.0000
     21 C7         3.2845    3.5968    1.4359 C.ar      1 RES1    0.0000
     22 C8         2.5062    4.7141    1.7624 C.ar      1 RES1    0.0000
     23 H8         2.3832    4.9749    2.6468 H         1 RES1    0.0000
     24 C9         1.9332    5.4067    0.7291 C.ar      1 RES1    0.0000
     25 C10        2.0688    5.0209   -0.5821 C.ar      1 RES1    0.0000
     26 C11        2.7991    3.9331   -0.9283 C.ar      1 RES1    0.0000
     27 H9         2.8805    3.6672   -1.8152 H         1 RES1    0.0000
     28 C12        3.4237    3.2304    0.0989 C.ar      1 RES1    0.0000
     29 H10        3.9497    2.4932   -0.1144 H         1 RES1    0.0000
     30 C13        0.8866    6.8919   -0.5406 C.3       1 RES1    0.0000
     31 H11       -0.0587    7.0506   -0.6903 H         1 RES1    0.0000
     32 H12        1.3669    7.7138   -0.7268 H         1 RES1    0.0000
     33 C14        5.5298    2.5162    4.4205 C.3       1 RES1    0.0000
     34 H13        5.2720    1.5843    4.4997 H         1 RES1    0.0000
     35 H14        6.2859    2.5607    3.8143 H         1 RES1    0.0000
     36 C15        5.9692    3.0191    5.7862 C.3       1 RES1    0.0000
     37 H15        6.1595    3.9683    5.7257 H         1 RES1    0.0000
     38 H16        5.2381    2.9042    6.4136 H         1 RES1    0.0000
     39 C16        7.1800    2.3129    6.3152 C.2       1 RES1    0.0000
     40 C17        8.4663    1.9967    8.2775 C.3       1 RES1    0.0000
     41 H17        8.5220    1.0461    8.1558 H         1 RES1    0.0000
     42 H18        8.4295    2.1979    9.2149 H         1 RES1    0.0000
     43 H19        9.2392    2.4149    7.8903 H         1 RES1    0.0000
@<TRIPOS>BOND
     1    1   24 1
     2    2   25 1
     3    3    7 2
     4    4    7 2
     5    5   39 1
     6    6   39 2
     7    7    8 1
     8    8    9 1
     9    9   10 1
    10   11    9 2
    11   12   11 1
    12   13   11 1
    13   14   13 1
    14   15   13 1
    15   16   13 1
    16   17   16 1
    17   18   16 1
    18   19    8 1
    19   20   19 1
    20   21   19 1
    21   22   21 ar
    22   23   22 1
    23   24   22 ar
    24   25   24 ar
    25   26   25 ar
    26   27   26 1
    27   28   21 ar
    28   29   28 1
    29   30    1 1
    30   31   30 1
    31   32   30 1
    32   33    8 1
    33   34   33 1
    34   35   33 1
    35   36   33 1
    36   37   36 1
    37   38   36 1
    38   39   36 1
    39   40    5 1
    40   41   40 1
    41   42   40 1
    42   43   40 1
    43    2   30 1
    44   16   19 1
    45   26   28 ar
@<TRIPOS>SUBSTRUCTURE
     1 RES1 1

@<TRIPOS>CRYSIN
   9.1020    7.1850   12.2430  90.0000  96.0600  90.0000   4 1

