# MOL2 file generated by ConQuest
# Please check atom types

@<TRIPOS>MOLECULE
JERVUY
    16    16     1
SMALL
NO_CHARGES
****
Generated from CSD

@<TRIPOS>ATOM
      1 N1         5.6797    1.3278    4.4383 N.am      1 RES1    0.0000
      2 H1         6.2205    0.6601    4.4470 H         1 RES1    0.0000
      3 N2         2.7919    2.7357    6.3112 N.pl3     1 RES1    0.0000
      4 N3         5.1003    4.1473    2.2327 N.pl3     1 RES1    0.0000
      5 O1         4.7778    0.5599    6.3686 O.2       1 RES1    0.0000
      6 O2         2.8230    2.1199    7.3567 O.2       1 RES1    0.0000
      7 O3         1.9236    3.5557    6.0473 O.2       1 RES1    0.0000
      8 O4         4.3313    5.0868    2.1345 O.2       1 RES1    0.0000
      9 O5         5.9796    3.9007    1.4133 O.2       1 RES1    0.0000
     10 C1         4.7512    1.3963    5.4763 C.2       1 RES1    0.0000
     11 C2         3.8457    2.5266    5.3203 C.2       1 RES1    0.0000
     12 C3         3.9521    3.4189    4.2966 C.2       1 RES1    0.0000
     13 H2         3.3601    4.1329    4.2283 H         1 RES1    0.0000
     14 C4         4.9602    3.2464    3.3556 C.2       1 RES1    0.0000
     15 C5         5.8118    2.1903    3.4405 C.2       1 RES1    0.0000
     16 H3         6.4808    2.0727    2.8047 H         1 RES1    0.0000
@<TRIPOS>BOND
     1    1    2 1
     2    3    6 2
     3    4    8 2
     4    5   10 2
     5    7    3 2
     6    9    4 2
     7   10    1 1
     8   11    3 1
     9   12   11 2
    10   13   12 1
    11   14    4 1
    12   15    1 1
    13   16   15 1
    14   10   11 1
    15   12   14 1
    16   14   15 2
@<TRIPOS>SUBSTRUCTURE
     1 RES1 1

@<TRIPOS>CRYSIN
  12.3350    9.6360    5.7380  90.0000  90.0000  90.0000  33 1

