# MOL2 file generated by ConQuest
# Please check atom types

@<TRIPOS>MOLECULE
JERVUY01
    16    16     1
SMALL
NO_CHARGES
****
Generated from CSD

@<TRIPOS>ATOM
      1 N1         5.6700    8.3303    1.7351 N.am      1 RES1    0.0000
      2 H1         6.2114    9.0364    1.7471 H         1 RES1    0.0000
      3 C1         4.7373    8.2581    2.7788 C.2       1 RES1    0.0000
      4 C2         3.8237    7.1251    2.6240 C.2       1 RES1    0.0000
      5 C3         3.9287    6.2169    1.5997 C.2       1 RES1    0.0000
      6 H2         3.3226    5.4885    1.5320 H         1 RES1    0.0000
      7 C4         4.9515    6.3896    0.6556 C.2       1 RES1    0.0000
      8 C5         5.8123    7.4589    0.7313 C.2       1 RES1    0.0000
      9 H3         6.4961    7.5767    0.0819 H         1 RES1    0.0000
     10 O1         4.7612    9.1032    3.6700 O.2       1 RES1    0.0000
     11 N2         2.7642    6.9167    3.6159 N.pl3     1 RES1    0.0000
     12 O2         1.8903    6.0859    3.3507 O.2       1 RES1    0.0000
     13 O3         2.7960    7.5435    4.6676 O.2       1 RES1    0.0000
     14 N3         5.0938    5.4907   -0.4758 N.pl3     1 RES1    0.0000
     15 O4         5.9790    5.7407   -1.2981 O.2       1 RES1    0.0000
     16 O5         4.3128    4.5464   -0.5753 O.2       1 RES1    0.0000
@<TRIPOS>BOND
     1    1    2 1
     2    3    1 1
     3    4    3 1
     4    5    4 2
     5    6    5 1
     6    7    5 1
     7    8    1 1
     8    9    8 1
     9   10    3 2
    10   11    4 1
    11   12   11 2
    12   13   11 2
    13   14    7 1
    14   15   14 2
    15   16   14 2
    16    7    8 2
@<TRIPOS>SUBSTRUCTURE
     1 RES1 1

@<TRIPOS>CRYSIN
  12.3243    9.6543    5.6908  90.0000  90.0000  90.0000  33 1

