# MOL2 file generated by ConQuest
# Please check atom types

@<TRIPOS>MOLECULE
JESHEV
    29    31     1
SMALL
NO_CHARGES
****
Generated from CSD

@<TRIPOS>ATOM
      1 N1         5.1455    0.3046   12.9790 N.3       1 RES1    0.0000
      2 N2         5.5017    1.6083   13.1096 N.2       1 RES1    0.0000
      3 N3         7.1892    0.4014   12.2065 N.2       1 RES1    0.0000
      4 N4         6.1159   -1.7433   12.1930 N.2       1 RES1    0.0000
      5 N5         2.7111   -2.3444   12.9016 N.2       1 RES1    0.0000
      6 O1         1.6429   -1.6343   13.3862 O.3       1 RES1    0.0000
      7 H1         0.9255   -2.2552   13.3684 H         1 RES1    0.0000
      8 C1         6.7313    1.5952   12.6232 C.2       1 RES1    0.0000
      9 H2         7.2387    2.3700   12.5566 H         1 RES1    0.0000
     10 C2         6.1552   -0.3916   12.4566 C.2       1 RES1    0.0000
     11 C3         4.9940   -2.3540   12.3951 C.2       1 RES1    0.0000
     12 C4         3.8064   -1.6614   12.9164 C.2       1 RES1    0.0000
     13 C5         3.8771   -0.2525   13.4667 C.3       1 RES1    0.0000
     14 H3         3.1821    0.2793   13.0882 H         1 RES1    0.0000
     15 C6         4.9042   -3.8059   12.0752 C.3       1 RES1    0.0000
     16 H4         4.1596   -3.9932   11.3984 H         1 RES1    0.0000
     17 H5         4.6276   -4.3759   12.8941 H         1 RES1    0.0000
     18 H6         5.7091   -4.0966   11.7646 H         1 RES1    0.0000
     19 C7         3.8339   -0.2369   14.9873 C.ar      1 RES1    0.0000
     20 C8         4.6744   -1.0448   15.7091 C.ar      1 RES1    0.0000
     21 H7         5.3035   -1.5931   15.1993 H         1 RES1    0.0000
     22 C9         4.6255   -1.0376   17.0883 C.ar      1 RES1    0.0000
     23 H8         5.2619   -1.6035   17.5156 H         1 RES1    0.0000
     24 C10        3.7696   -0.2214   17.7515 C.ar      1 RES1    0.0000
     25 H9         3.7852   -0.2690   18.6848 H         1 RES1    0.0000
     26 C11        2.9294    0.5648   17.0436 C.ar      1 RES1    0.0000
     27 H10        2.3502    1.1276   17.3392 H         1 RES1    0.0000
     28 C12        2.9544    0.5700   15.6553 C.ar      1 RES1    0.0000
     29 H11        2.4230    1.1483   15.1332 H         1 RES1    0.0000
@<TRIPOS>BOND
     1    1    2 1
     2    2    8 2
     3    3    8 1
     4    4   10 1
     5    5    6 1
     6    6    7 1
     7    8    9 1
     8   10    1 1
     9   11    4 2
    10   12    5 2
    11   13    1 1
    12   14   13 1
    13   15   11 1
    14   16   15 1
    15   17   15 1
    16   18   15 1
    17   19   13 1
    18   20   19 ar
    19   21   20 1
    20   22   20 ar
    21   23   22 1
    22   24   22 ar
    23   25   24 1
    24   26   24 ar
    25   27   26 1
    26   28   19 ar
    27   29   28 1
    28    3   10 2
    29   11   12 1
    30   12   13 1
    31   26   28 ar
@<TRIPOS>SUBSTRUCTURE
     1 RES1 1

@<TRIPOS>CRYSIN
  10.3990   10.3450   22.0600  90.0000  90.0000  90.0000  61 1

