# MOL2 file generated by ConQuest
# Please check atom types

@<TRIPOS>MOLECULE
JESJIB
    25    25     1
SMALL
NO_CHARGES
****
Generated from CSD

@<TRIPOS>ATOM
      1 O1         0.0837    9.3320    5.9614 O.2       1 RES1    0.0000
      2 O2         0.3235    9.6873    3.7548 O.3       1 RES1    0.0000
      3 O3         3.3071    7.0092    3.1132 O.2       1 RES1    0.0000
      4 O4         4.1379    8.3755    1.6497 O.2       1 RES1    0.0000
      5 O5         2.9218   10.7561    2.5288 O.2       1 RES1    0.0000
      6 O6         1.5262   10.4468    0.8880 O.2       1 RES1    0.0000
      7 O7         1.6591    7.4663    0.4070 O.2       1 RES1    0.0000
      8 O8        -0.1218    8.0040    1.5284 O.2       1 RES1    0.0000
      9 O9        -2.6065   12.4390    5.5614 O.3       1 RES1    0.0000
     10 N1         3.2651    7.9688    2.3735 N.pl3     1 RES1    0.0000
     11 N2         2.1489   10.0986    1.8594 N.pl3     1 RES1    0.0000
     12 N3         1.0712    7.9777    1.3331 N.pl3     1 RES1    0.0000
     13 N4        -2.8103   12.3712    4.1862 N.2       1 RES1    0.0000
     14 N5        -1.6572   11.5427    5.9540 N.2       1 RES1    0.0000
     15 C1         1.9274    8.6837    2.3698 C.3       1 RES1    0.0000
     16 C2         1.3459    8.6820    3.7576 C.3       1 RES1    0.0000
     17 H1         0.9613    7.7952    3.9726 H         1 RES1    0.0000
     18 H2         2.0422    8.8963    4.4282 H         1 RES1    0.0000
     19 C3        -0.2305    9.8997    4.9575 C.2       1 RES1    0.0000
     20 C4        -1.2737   10.9462    4.8642 C.2       1 RES1    0.0000
     21 C5        -2.0004   11.4572    3.7457 C.2       1 RES1    0.0000
     22 C6        -1.9537   11.0598    2.3150 C.3       1 RES1    0.0000
     23 H3        -2.6418   11.5495    1.8178 H         1 RES1    0.0000
     24 H4        -2.1177   10.0963    2.2385 H         1 RES1    0.0000
     25 H5        -1.0712   11.2711    1.9456 H         1 RES1    0.0000
@<TRIPOS>BOND
     1    1   19 2
     2    2   16 1
     3    3   10 2
     4    4   10 2
     5    5   11 2
     6    6   11 2
     7    7   12 2
     8    8   12 2
     9    9   13 1
    10   10   15 1
    11   11   15 1
    12   12   15 1
    13   13   21 2
    14   14    9 1
    15   15   16 1
    16   16   17 1
    17   18   16 1
    18   19    2 1
    19   20   14 2
    20   21   20 1
    21   22   21 1
    22   23   22 1
    23   24   22 1
    24   25   22 1
    25   19   20 1
@<TRIPOS>SUBSTRUCTURE
     1 RES1 1

@<TRIPOS>CRYSIN
   8.2018   11.5058   23.2450  90.0000  90.0000  90.0000  61 1

