# MOL2 file generated by ConQuest
# Please check atom types

@<TRIPOS>MOLECULE
JESZEN
    47    50     1
SMALL
NO_CHARGES
****
Generated from CSD

@<TRIPOS>ATOM
      1 N1         5.7438   -0.3757    4.0247 N.3       1 RES1    0.0000
      2 N2         6.6447    1.2203    5.5460 N.am      1 RES1    0.0000
      3 N3         3.6780    4.8595    1.0737 N.pl3     1 RES1    0.0000
      4 O1         5.9324    1.1607    7.6913 O.2       1 RES1    0.0000
      5 O2         2.8892    5.5959    1.6410 O.2       1 RES1    0.0000
      6 O3         3.9103    4.9273   -0.1112 O.2       1 RES1    0.0000
      7 C1         6.4324    0.8770    4.1421 C.3       1 RES1    0.0000
      8 H1         7.3159    0.7621    3.7335 H         1 RES1    0.0000
      9 C2         5.7730    0.8556    6.5156 C.2       1 RES1    0.0000
     10 C3         4.6344    0.0114    6.0844 C.ar      1 RES1    0.0000
     11 C4         3.5751   -0.2437    6.9569 C.ar      1 RES1    0.0000
     12 H2         3.5323    0.1915    7.7774 H         1 RES1    0.0000
     13 C5         2.5996   -1.1349    6.6036 C.ar      1 RES1    0.0000
     14 H3         1.8918   -1.2997    7.1837 H         1 RES1    0.0000
     15 C6         2.6597   -1.7908    5.3949 C.ar      1 RES1    0.0000
     16 H4         1.9984   -2.4042    5.1703 H         1 RES1    0.0000
     17 C7         3.6844   -1.5489    4.5213 C.ar      1 RES1    0.0000
     18 H5         3.7135   -1.9937    3.7042 H         1 RES1    0.0000
     19 C8         4.6881   -0.6340    4.8542 C.ar      1 RES1    0.0000
     20 C9         5.7138    1.9681    3.3640 C.ar      1 RES1    0.0000
     21 C10        6.1100    2.2529    2.0767 C.ar      1 RES1    0.0000
     22 H6         6.8368    1.8004    1.7155 H         1 RES1    0.0000
     23 C11        5.4560    3.1911    1.3115 C.ar      1 RES1    0.0000
     24 H7         5.7256    3.3688    0.4390 H         1 RES1    0.0000
     25 C12        4.3967    3.8574    1.8674 C.ar      1 RES1    0.0000
     26 C13        3.9804    3.6092    3.1468 C.ar      1 RES1    0.0000
     27 H8         3.2636    4.0775    3.5089 H         1 RES1    0.0000
     28 C14        4.6353    2.6610    3.8867 C.ar      1 RES1    0.0000
     29 H9         4.3502    2.4797    4.7538 H         1 RES1    0.0000
     30 C15        7.8861    1.9246    5.9106 C.3       1 RES1    0.0000
     31 H10        7.7568    2.2845    6.8135 H         1 RES1    0.0000
     32 C16        9.0229    0.9203    5.9919 C.3       1 RES1    0.0000
     33 H11        8.8198    0.2596    6.6589 H         1 RES1    0.0000
     34 H12        9.8354    1.3751    6.2289 H         1 RES1    0.0000
     35 H13        9.1331    0.4915    5.1398 H         1 RES1    0.0000
     36 C17        8.1239    3.1044    4.9964 C.ar      1 RES1    0.0000
     37 C18        9.0948    3.1081    4.0179 C.ar      1 RES1    0.0000
     38 H14        9.6468    2.3674    3.9130 H         1 RES1    0.0000
     39 C19        9.2533    4.1953    3.2008 C.ar      1 RES1    0.0000
     40 H15        9.9082    4.1769    2.5405 H         1 RES1    0.0000
     41 C20        8.4800    5.2907    3.3351 C.ar      1 RES1    0.0000
     42 H16        8.6084    6.0270    2.7832 H         1 RES1    0.0000
     43 C21        7.5027    5.3032    4.2956 C.ar      1 RES1    0.0000
     44 H17        6.9616    6.0528    4.3904 H         1 RES1    0.0000
     45 C22        7.3132    4.2088    5.1274 C.ar      1 RES1    0.0000
     46 H18        6.6419    4.2211    5.7707 H         1 RES1    0.0000
     47 H19        6.0572   -0.8891    3.4875 H         1 RES1    0.0000
@<TRIPOS>BOND
     1    1    7 1
     2    2    7 1
     3    3    5 2
     4    4    9 2
     5    6    3 2
     6    7    8 1
     7    9    2 1
     8   10    9 1
     9   11   10 ar
    10   12   11 1
    11   13   11 ar
    12   14   13 1
    13   15   13 ar
    14   16   15 1
    15   17   15 ar
    16   18   17 1
    17   19    1 1
    18   20    7 1
    19   21   20 ar
    20   22   21 1
    21   23   21 ar
    22   24   23 1
    23   25    3 1
    24   26   25 ar
    25   27   26 1
    26   28   20 ar
    27   29   28 1
    28   30    2 1
    29   31   30 1
    30   32   30 1
    31   33   32 1
    32   34   32 1
    33   35   32 1
    34   36   30 1
    35   37   36 ar
    36   38   37 1
    37   39   37 ar
    38   40   39 1
    39   41   39 ar
    40   42   41 1
    41   43   41 ar
    42   44   43 1
    43   45   36 ar
    44   46   45 1
    45   47    1 1
    46   10   19 ar
    47   17   19 ar
    48   23   25 ar
    49   26   28 ar
    50   43   45 ar
@<TRIPOS>SUBSTRUCTURE
     1 RES1 1

@<TRIPOS>CRYSIN
   9.1085   18.4087   11.2863  90.0000  90.0000  90.0000  19 1

