# MOL2 file generated by ConQuest
# Please check atom types

@<TRIPOS>MOLECULE
JETPOQ
    33    33     1
SMALL
NO_CHARGES
****
Generated from CSD

@<TRIPOS>ATOM
      1 O1         1.1158    2.5801    4.4898 O.3       1 RES1    0.0000
      2 O2        -0.9499    1.8969    3.8716 O.2       1 RES1    0.0000
      3 O3        -0.1648    1.8725    1.2500 O.3       1 RES1    0.0000
      4 H1        -0.6627    1.4012    1.5886 H         1 RES1    0.0000
      5 O4         3.2739    0.1072    1.7697 O.2       1 RES1    0.0000
      6 O5         1.4098    0.0430    2.8654 O.2       1 RES1    0.0000
      7 N1         2.2611    0.6380    2.2204 N.pl3     1 RES1    0.0000
      8 C1         1.1776    0.9031    6.2319 C.3       1 RES1    0.0000
      9 H2         0.6151    0.3148    5.6859 H         1 RES1    0.0000
     10 H3         1.0111    0.7275    7.1817 H         1 RES1    0.0000
     11 H4         2.1212    0.7332    6.0281 H         1 RES1    0.0000
     12 C2         0.8479    2.3427    5.9210 C.3       1 RES1    0.0000
     13 H5        -0.1150    2.5222    6.1211 H         1 RES1    0.0000
     14 C3         0.1654    2.2803    3.6196 C.2       1 RES1    0.0000
     15 C4         0.6491    2.5558    2.1781 C.3       1 RES1    0.0000
     16 C5         0.5217    4.0769    1.9585 C.ar      1 RES1    0.0000
     17 C6        -0.6174    4.5683    1.3257 C.ar      1 RES1    0.0000
     18 H6        -1.2756    3.9666    0.9994 H         1 RES1    0.0000
     19 C7        -0.7919    5.9398    1.1714 C.ar      1 RES1    0.0000
     20 H7        -1.5707    6.2709    0.7388 H         1 RES1    0.0000
     21 C8         0.1597    6.8266    1.6419 C.ar      1 RES1    0.0000
     22 H8         0.0346    7.7623    1.5365 H         1 RES1    0.0000
     23 C9         1.7146    3.3255    6.6586 C.3       1 RES1    0.0000
     24 H9         2.6559    3.1537    6.4474 H         1 RES1    0.0000
     25 H10        1.5724    3.2266    7.6236 H         1 RES1    0.0000
     26 H11        1.4795    4.2372    6.3862 H         1 RES1    0.0000
     27 C10        1.4721    4.9666    2.4403 C.ar      1 RES1    0.0000
     28 H12        2.2436    4.6403    2.8894 H         1 RES1    0.0000
     29 C11        1.2948    6.3409    2.2655 C.ar      1 RES1    0.0000
     30 H13        1.9581    6.9465    2.5767 H         1 RES1    0.0000
     31 C12        2.0929    2.1162    1.9650 C.3       1 RES1    0.0000
     32 H14        2.3648    2.3216    1.0357 H         1 RES1    0.0000
     33 H15        2.6843    2.6239    2.5767 H         1 RES1    0.0000
@<TRIPOS>BOND
     1    1   12 1
     2    2   14 2
     3    3    4 1
     4    5    7 2
     5    6    7 2
     6    7   31 1
     7    8    9 1
     8   10    8 1
     9   11    8 1
    10   12    8 1
    11   13   12 1
    12   14    1 1
    13   15    3 1
    14   16   15 1
    15   17   16 ar
    16   18   17 1
    17   19   17 ar
    18   20   19 1
    19   21   19 ar
    20   22   21 1
    21   23   12 1
    22   24   23 1
    23   25   23 1
    24   26   23 1
    25   27   16 ar
    26   28   27 1
    27   29   21 ar
    28   30   29 1
    29   31   15 1
    30   32   31 1
    31   33   31 1
    32   14   15 1
    33   27   29 ar
@<TRIPOS>SUBSTRUCTURE
     1 RES1 1

@<TRIPOS>CRYSIN
   5.6642    9.5973   22.6622  90.0000  90.0000  90.0000  19 1

