# MOL2 file generated by ConQuest
# Please check atom types

@<TRIPOS>MOLECULE
JETSAF
    23    23     1
SMALL
NO_CHARGES
****
Generated from CSD

@<TRIPOS>ATOM
      1 O1         6.0838    3.8868    2.5353 O.2       1 RES1    0.0000
      2 O2         3.4538    7.1472    0.8530 O.3       1 RES1    0.0000
      3 O3         1.4474    7.8632    2.6918 O.2       1 RES1    0.0000
      4 O4         2.9215    8.9439    3.8446 O.2       1 RES1    0.0000
      5 O5         3.6335    6.2673    5.5506 O.3       1 RES1    0.0000
      6 O6         4.7676    3.3760    5.4120 O.2       1 RES1    0.0000
      7 O7         6.4809    4.6469    5.5272 O.2       1 RES1    0.0000
      8 N1         5.2638    4.8332    2.7367 N.pl3     1 RES1    0.0000
      9 N2         4.7982    5.4888    1.6565 N.ar      1 RES1    0.0000
     10 N3         2.5308    7.9578    3.2385 N.pl3     1 RES1    0.0000
     11 N4         5.4185    4.3231    5.0599 N.pl3     1 RES1    0.0000
     12 C1         3.9122    6.4534    1.8823 C.ar      1 RES1    0.0000
     13 C2         3.4378    6.8119    3.1542 C.ar      1 RES1    0.0000
     14 C3         3.9235    6.1435    4.2621 C.ar      1 RES1    0.0000
     15 C4         4.8659    5.1469    3.9783 C.ar      1 RES1    0.0000
     16 C5         4.0073    6.8345   -0.4612 C.3       1 RES1    0.0000
     17 C6         2.4221    6.9221    5.9901 C.3       1 RES1    0.0000
     18 H1         1.7398    6.7017    5.3580 H         1 RES1    0.0000
     19 H2         3.5522    7.4656   -1.0459 H         1 RES1    0.0000
     20 H3         3.7938    5.9030   -0.7201 H         1 RES1    0.0000
     21 H4         4.9618    6.9447   -0.4858 H         1 RES1    0.0000
     22 H5         2.5775    7.9170    6.0152 H         1 RES1    0.0000
     23 H6         2.2956    6.5888    6.8296 H         1 RES1    0.0000
@<TRIPOS>BOND
     1    1    8 1
     2    2   12 1
     3    3   10 2
     4    4   10 2
     5    5   14 1
     6    6   11 2
     7    7   11 2
     8    8    9 ar
     9    9   12 ar
    10   10   13 1
    11   11   15 1
    12   12   13 ar
    13   13   14 ar
    14   14   15 ar
    15   15    8 ar
    16   16    2 1
    17   17    5 1
    18   18   17 1
    19   19   16 1
    20   20   16 1
    21   21   16 1
    22   22   17 1
    23   23   17 1
@<TRIPOS>SUBSTRUCTURE
     1 RES1 1

@<TRIPOS>CRYSIN
   8.0548    8.6809   28.5759  90.0000  90.0000  90.0000  60 1

