# MOL2 file generated by ConQuest
# Please check atom types

@<TRIPOS>MOLECULE
JETSEJ
    20    20     1
SMALL
NO_CHARGES
****
Generated from CSD

@<TRIPOS>ATOM
      1 O1         4.4573    1.1241    3.7678 O.3       1 RES1    0.0000
      2 O2         4.9614    4.1088    4.3090 O.2       1 RES1    0.0000
      3 O3         3.1885    4.2208    3.1026 O.2       1 RES1    0.0000
      4 O4         5.4147    4.7245    0.9937 O.3       1 RES1    0.0000
      5 N1         5.4525    0.6760    1.7242 N.ar      1 RES1    0.0000
      6 N2         5.9624    1.1513    0.5645 N.ar      1 RES1    0.0000
      7 N3         4.3116    3.8138    3.3283 N.pl3     1 RES1    0.0000
      8 C1         4.9528    1.5389    2.5987 C.ar      1 RES1    0.0000
      9 C2         4.9131    2.9105    2.3458 C.ar      1 RES1    0.0000
     10 C3         5.4394    3.4063    1.1830 C.ar      1 RES1    0.0000
     11 C4         5.9699    2.4415    0.3056 C.ar      1 RES1    0.0000
     12 C5         4.5248   -0.2987    4.0451 C.3       1 RES1    0.0000
     13 C6         6.0480    5.2581   -0.1935 C.3       1 RES1    0.0000
     14 H1         5.9690    6.1945   -0.0978 H         1 RES1    0.0000
     15 H2         6.3493    2.6830   -0.4880 H         1 RES1    0.0000
     16 H3         6.9819    4.9860   -0.2311 H         1 RES1    0.0000
     17 H4         5.5817    4.9404   -0.9735 H         1 RES1    0.0000
     18 H5         4.1168   -0.4104    4.9225 H         1 RES1    0.0000
     19 H6         4.0022   -0.7753    3.3571 H         1 RES1    0.0000
     20 H7         5.4660   -0.5852    4.0664 H         1 RES1    0.0000
@<TRIPOS>BOND
     1    1    8 1
     2    2    7 2
     3    3    7 2
     4    4   10 1
     5    5    6 ar
     6    6   11 ar
     7    7    9 1
     8    8    5 ar
     9    9    8 ar
    10   10    9 ar
    11   11   10 ar
    12   12    1 1
    13   13    4 1
    14   14   13 1
    15   15   11 1
    16   16   13 1
    17   17   13 1
    18   18   12 1
    19   19   12 1
    20   20   12 1
@<TRIPOS>SUBSTRUCTURE
     1 RES1 1

@<TRIPOS>CRYSIN
  17.1783    7.6006   14.4345  90.0000 122.0850  90.0000  15 1

