# MOL2 file generated by ConQuest
# Please check atom types

@<TRIPOS>MOLECULE
JEVGEX
    36    40     1
SMALL
NO_CHARGES
****
Generated from CSD

@<TRIPOS>ATOM
      1 O1         2.1093    2.8576    2.6138 O.3       1 RES1    0.0000
      2 O2         4.7841    2.9029    1.7693 O.2       1 RES1    0.0000
      3 N1         2.7460    1.8332    1.8843 N.am      1 RES1    0.0000
      4 C1         4.0947    1.9061    1.6693 C.2       1 RES1    0.0000
      5 C2         2.3313    0.4249    2.2097 C.3       1 RES1    0.0000
      6 C3         0.8327    0.4041    2.0270 C.ar      1 RES1    0.0000
      7 C4         0.2042    1.3979    2.7768 C.ar      1 RES1    0.0000
      8 C5         1.1577    2.2410    3.6077 C.3       1 RES1    0.0000
      9 C6         2.0114    1.3109    4.4428 C.ar      1 RES1    0.0000
     10 C7         2.6310    0.3031    3.7006 C.ar      1 RES1    0.0000
     11 C8         3.5021   -0.5884    4.2965 C.ar      1 RES1    0.0000
     12 H1         3.9382   -1.2577    3.7828 H         1 RES1    0.0000
     13 C9         3.7271   -0.4843    5.6678 C.ar      1 RES1    0.0000
     14 H2         4.3094   -1.0997    6.0972 H         1 RES1    0.0000
     15 C10        3.1141    0.5021    6.4037 C.ar      1 RES1    0.0000
     16 H3         3.2778    0.5547    7.3382 H         1 RES1    0.0000
     17 C11        2.2587    1.4242    5.8099 C.ar      1 RES1    0.0000
     18 H4         1.8531    2.1137    6.3225 H         1 RES1    0.0000
     19 C12       -1.1711    1.5534    2.7084 C.ar      1 RES1    0.0000
     20 H5        -1.6065    2.2422    3.1965 H         1 RES1    0.0000
     21 C13       -1.9011    0.6772    1.9074 C.ar      1 RES1    0.0000
     22 H6        -2.8469    0.7623    1.8647 H         1 RES1    0.0000
     23 C14       -1.2803   -0.3061    1.1791 C.ar      1 RES1    0.0000
     24 H7        -1.7974   -0.8921    0.6397 H         1 RES1    0.0000
     25 C15        0.1008   -0.4500    1.2239 C.ar      1 RES1    0.0000
     26 H8         0.5345   -1.1236    0.7134 H         1 RES1    0.0000
     27 C16        3.2407   -0.3251    1.2528 C.3       1 RES1    0.0000
     28 H9         2.8443   -0.3735    0.3460 H         1 RES1    0.0000
     29 H10        3.4210   -1.2436    1.5764 H         1 RES1    0.0000
     30 C17        4.5221    0.5217    1.2517 C.3       1 RES1    0.0000
     31 H11        5.1836    0.1537    1.8893 H         1 RES1    0.0000
     32 H12        4.9272    0.5400    0.3482 H         1 RES1    0.0000
     33 C18        0.5527    3.4050    4.3200 C.3       1 RES1    0.0000
     34 H13       -0.0969    3.0835    4.9790 H         1 RES1    0.0000
     35 H14        0.1019    3.9855    3.6718 H         1 RES1    0.0000
     36 H15        1.2571    3.9108    4.7761 H         1 RES1    0.0000
@<TRIPOS>BOND
     1    1    3 1
     2    2    4 2
     3    3    4 1
     4    4   30 1
     5    5    3 1
     6    6    5 1
     7    7    6 ar
     8    8    1 1
     9    9    8 1
    10   10    5 1
    11   11   10 ar
    12   12   11 1
    13   13   11 ar
    14   14   13 1
    15   15   13 ar
    16   16   15 1
    17   17    9 ar
    18   18   17 1
    19   19    7 ar
    20   20   19 1
    21   21   19 ar
    22   22   21 1
    23   23   21 ar
    24   24   23 1
    25   25    6 ar
    26   26   25 1
    27   27    5 1
    28   28   27 1
    29   29   27 1
    30   30   27 1
    31   31   30 1
    32   32   30 1
    33   33    8 1
    34   34   33 1
    35   35   33 1
    36   36   33 1
    37    7    8 1
    38    9   10 ar
    39   15   17 ar
    40   23   25 ar
@<TRIPOS>SUBSTRUCTURE
     1 RES1 1

@<TRIPOS>CRYSIN
  10.4940    6.1230   10.7050  90.0000  93.9230  90.0000   4 1

