# MOL2 file generated by ConQuest
# Please check atom types

@<TRIPOS>MOLECULE
JEWGUQ
    45    47     1
SMALL
NO_CHARGES
****
Generated from CSD

@<TRIPOS>ATOM
      1 O1         3.1142    6.4497   22.1003 O.2       1 RES1    0.0000
      2 N1         3.9685    8.0480   19.2193 N.3       1 RES1    0.0000
      3 C1         4.3372    9.0042   20.1297 C.2       1 RES1    0.0000
      4 O2         3.4007    6.9688   19.9391 O.3       1 RES1    0.0000
      5 C2         4.1597    8.5486   21.4087 C.2       1 RES1    0.0000
      6 C3         3.5123    7.2653   21.2971 C.2       1 RES1    0.0000
      7 C4         3.1867    8.3174   17.9888 C.3       1 RES1    0.0000
      8 H1         3.5413    9.1583   17.5805 H         1 RES1    0.0000
      9 C5         1.7245    8.5310   18.2880 C.2       1 RES1    0.0000
     10 H2         1.1714    7.7615   18.3556 H         1 RES1    0.0000
     11 C6         1.1658    9.6941   18.4611 C.2       1 RES1    0.0000
     12 H3         1.6880   10.4855   18.4008 H         1 RES1    0.0000
     13 H4         0.2363    9.7510   18.6476 H         1 RES1    0.0000
     14 C7         3.4072    7.1864   16.9927 C.3       1 RES1    0.0000
     15 H5         3.0301    6.3526   17.3708 H         1 RES1    0.0000
     16 H6         2.9088    7.3924   16.1619 H         1 RES1    0.0000
     17 C8         4.8612    6.9451   16.6389 C.3       1 RES1    0.0000
     18 H7         5.2472    7.7765   16.2668 H         1 RES1    0.0000
     19 H8         5.3631    6.7198   17.4613 H         1 RES1    0.0000
     20 C9         5.0288    5.8242   15.6321 C.3       1 RES1    0.0000
     21 H9         4.5357    6.0435   14.8132 H         1 RES1    0.0000
     22 H10        4.6795    4.9906   16.0098 H         1 RES1    0.0000
     23 H11        5.9794    5.7148   15.4218 H         1 RES1    0.0000
     24 C10        4.6209    9.1090   22.6908 C.ar      1 RES1    0.0000
     25 C11        5.7422    9.9385   22.7652 C.ar      1 RES1    0.0000
     26 H12        6.2048   10.1746   21.9700 H         1 RES1    0.0000
     27 C12        6.1863   10.4193   23.9820 C.ar      1 RES1    0.0000
     28 H13        6.9523   10.9805   24.0136 H         1 RES1    0.0000
     29 C13        5.5305   10.0934   25.1520 C.ar      1 RES1    0.0000
     30 H14        5.8320   10.4386   25.9832 H         1 RES1    0.0000
     31 C14        4.4319    9.2597   25.0985 C.ar      1 RES1    0.0000
     32 H15        3.9805    9.0221   25.8989 H         1 RES1    0.0000
     33 C15        3.9835    8.7672   23.8837 C.ar      1 RES1    0.0000
     34 H16        3.2304    8.1880   23.8635 H         1 RES1    0.0000
     35 C16        4.8400   10.3012   19.6204 C.ar      1 RES1    0.0000
     36 C17        5.8781   10.3480   18.6856 C.ar      1 RES1    0.0000
     37 H17        6.2893    9.5453   18.3885 H         1 RES1    0.0000
     38 C18        6.3044   11.5743   18.1957 C.ar      1 RES1    0.0000
     39 H18        7.0151   11.6099   17.5661 H         1 RES1    0.0000
     40 C19        5.7011   12.7439   18.6184 C.ar      1 RES1    0.0000
     41 H19        5.9928   13.5796   18.2734 H         1 RES1    0.0000
     42 C20        4.6738   12.6997   19.5438 C.ar      1 RES1    0.0000
     43 H20        4.2635   13.5054   19.8359 H         1 RES1    0.0000
     44 C21        4.2421   11.4811   20.0446 C.ar      1 RES1    0.0000
     45 H21        3.5359   11.4530   20.6788 H         1 RES1    0.0000
@<TRIPOS>BOND
     1    1    6 2
     2    2    3 1
     3    3    5 2
     4    4    2 1
     5    5    6 1
     6    6    4 1
     7    7    2 1
     8    8    7 1
     9    9    7 1
    10   10    9 1
    11   11    9 2
    12   12   11 1
    13   13   11 1
    14   14    7 1
    15   15   14 1
    16   16   14 1
    17   17   14 1
    18   18   17 1
    19   19   17 1
    20   20   17 1
    21   21   20 1
    22   22   20 1
    23   23   20 1
    24   24    5 1
    25   25   24 ar
    26   26   25 1
    27   27   25 ar
    28   28   27 1
    29   29   27 ar
    30   30   29 1
    31   31   29 ar
    32   32   31 1
    33   33   24 ar
    34   34   33 1
    35   35    3 1
    36   36   35 ar
    37   37   36 1
    38   38   36 ar
    39   39   38 1
    40   40   38 ar
    41   41   40 1
    42   42   40 ar
    43   43   42 1
    44   44   35 ar
    45   45   44 1
    46   31   33 ar
    47   42   44 ar
@<TRIPOS>SUBSTRUCTURE
     1 RES1 1

@<TRIPOS>CRYSIN
   8.9834    9.3931   20.5596  90.0000  90.0000  90.0000  19 1

