# MOL2 file generated by ConQuest
# Please check atom types

@<TRIPOS>MOLECULE
JEXFEA
    47    50     1
SMALL
NO_CHARGES
****
Generated from CSD

@<TRIPOS>ATOM
      1 O1        -1.6403    3.5993    5.7093 O.2       1 RES1    0.0000
      2 O2         1.3643    6.1356    3.2427 O.3       1 RES1    0.0000
      3 H1         1.2484    6.8686    3.6368 H         1 RES1    0.0000
      4 O3        -0.9724    4.3670    3.1469 O.3       1 RES1    0.0000
      5 O4        -2.3416    6.1467    3.5042 O.2       1 RES1    0.0000
      6 N1        -0.2783    4.7824    4.2977 N.am      1 RES1    0.0000
      7 C1        -0.5968    4.1933    5.4814 C.2       1 RES1    0.0000
      8 C2         0.5970    4.4041    6.3976 C.3       1 RES1    0.0000
      9 H2         1.0993    3.5421    6.4613 H         1 RES1    0.0000
     10 C3         1.4702    5.4194    5.6175 C.3       1 RES1    0.0000
     11 H3         1.1157    6.3353    5.8060 H         1 RES1    0.0000
     12 C4         2.9679    5.4265    5.9239 C.3       1 RES1    0.0000
     13 H4         3.3695    6.2431    5.5346 H         1 RES1    0.0000
     14 H5         3.0934    5.4676    6.9051 H         1 RES1    0.0000
     15 C5         3.7098    4.2059    5.3820 C.3       1 RES1    0.0000
     16 H6         4.6817    4.3127    5.5367 H         1 RES1    0.0000
     17 H7         3.4093    3.3941    5.8617 H         1 RES1    0.0000
     18 C6         3.4428    4.0461    3.8865 C.3       1 RES1    0.0000
     19 H8         3.9273    3.2529    3.5439 H         1 RES1    0.0000
     20 H9         3.7737    4.8431    3.4015 H         1 RES1    0.0000
     21 C7         1.9404    3.8787    3.6373 C.3       1 RES1    0.0000
     22 H10        1.7779    3.7627    2.6677 H         1 RES1    0.0000
     23 H11        1.6176    3.0657    4.1012 H         1 RES1    0.0000
     24 C8         1.1658    5.0902    4.1403 C.3       1 RES1    0.0000
     25 C9         0.2446    4.8520    7.7977 C.ar      1 RES1    0.0000
     26 C10       -0.8083    5.7335    8.0254 C.ar      1 RES1    0.0000
     27 H12       -1.3609    6.0019    7.3014 H         1 RES1    0.0000
     28 C11       -1.0593    6.2255    9.2997 C.ar      1 RES1    0.0000
     29 H13       -1.7824    6.8245    9.4438 H         1 RES1    0.0000
     30 C12       -0.2529    5.8421   10.3647 C.ar      1 RES1    0.0000
     31 H14       -0.4129    6.1882   11.2353 H         1 RES1    0.0000
     32 C13        0.7835    4.9549   10.1485 C.ar      1 RES1    0.0000
     33 H15        1.3324    4.6872   10.8752 H         1 RES1    0.0000
     34 C14        1.0301    4.4480    8.8721 C.ar      1 RES1    0.0000
     35 H16        1.7360    3.8265    8.7369 H         1 RES1    0.0000
     36 C15       -2.0114    5.2184    2.8229 C.2       1 RES1    0.0000
     37 C16       -2.6055    4.8247    1.5193 C.ar      1 RES1    0.0000
     38 C17       -2.2042    3.6825    0.8307 C.ar      1 RES1    0.0000
     39 H17       -1.5885    3.0774    1.2281 H         1 RES1    0.0000
     40 C18       -2.7069    3.4314   -0.4386 C.ar      1 RES1    0.0000
     41 H18       -2.4324    2.6549   -0.9123 H         1 RES1    0.0000
     42 C19       -3.6100    4.3147   -1.0166 C.ar      1 RES1    0.0000
     43 H19       -3.9395    4.1490   -1.8916 H         1 RES1    0.0000
     44 C20       -4.0321    5.4363   -0.3204 C.ar      1 RES1    0.0000
     45 H20       -4.6632    6.0294   -0.7121 H         1 RES1    0.0000
     46 C21       -3.5348    5.6949    0.9478 C.ar      1 RES1    0.0000
     47 H21       -3.8263    6.4618    1.4262 H         1 RES1    0.0000
@<TRIPOS>BOND
     1    1    7 2
     2    2    3 1
     3    4    6 1
     4    5   36 2
     5    6    7 1
     6    7    8 1
     7    8    9 1
     8   10    8 1
     9   11   10 1
    10   12   10 1
    11   13   12 1
    12   14   12 1
    13   15   12 1
    14   16   15 1
    15   17   15 1
    16   18   15 1
    17   19   18 1
    18   20   18 1
    19   21   18 1
    20   22   21 1
    21   23   21 1
    22   24    2 1
    23   25    8 1
    24   26   25 ar
    25   27   26 1
    26   28   26 ar
    27   29   28 1
    28   30   28 ar
    29   31   30 1
    30   32   30 ar
    31   33   32 1
    32   34   25 ar
    33   35   34 1
    34   36    4 1
    35   37   36 1
    36   38   37 ar
    37   39   38 1
    38   40   38 ar
    39   41   40 1
    40   42   40 ar
    41   43   42 1
    42   44   42 ar
    43   45   44 1
    44   46   37 ar
    45   47   46 1
    46    6   24 1
    47   10   24 1
    48   21   24 1
    49   32   34 ar
    50   44   46 ar
@<TRIPOS>SUBSTRUCTURE
     1 RES1 1

@<TRIPOS>CRYSIN
   8.8731    9.8039   10.3325  90.0000  92.8230  90.0000   4 1

