# MOL2 file generated by ConQuest
# Please check atom types

@<TRIPOS>MOLECULE
JEXKOM
    34    35     1
SMALL
NO_CHARGES
****
Generated from CSD

@<TRIPOS>ATOM
      1 O1        10.1126    3.1507    9.9789 O.2       1 RES1    0.0000
      2 O2         9.4217    0.6449    5.3140 O.3       1 RES1    0.0000
      3 O3         7.0107    3.6740    8.6798 O.2       1 RES1    0.0000
      4 O4         7.3144    2.2644   10.2948 O.2       1 RES1    0.0000
      5 N1         7.5610    2.7114    9.1951 N.pl3     1 RES1    0.0000
      6 C1        10.0168    2.4579    8.9493 C.2       1 RES1    0.0000
      7 C2         8.6961    2.0652    8.4426 C.2       1 RES1    0.0000
      8 C3         8.4434    1.2854    7.4130 C.2       1 RES1    0.0000
      9 C4         9.6397    0.6083    6.7338 C.3       1 RES1    0.0000
     10 C5        10.9726    1.1921    7.1047 C.2       1 RES1    0.0000
     11 C6        11.1642    2.0028    8.1828 C.2       1 RES1    0.0000
     12 C7         7.0698    1.0036    6.8988 C.3       1 RES1    0.0000
     13 C8         9.6275   -0.8756    7.1489 C.3       1 RES1    0.0000
     14 C9        12.1485    0.7779    6.2487 C.3       1 RES1    0.0000
     15 C10       12.5092    2.4510    8.6420 C.ar      1 RES1    0.0000
     16 C11       13.0452    3.6740    8.2453 C.ar      1 RES1    0.0000
     17 C12       14.2843    4.0944    8.7229 C.ar      1 RES1    0.0000
     18 C13       14.9875    3.3153    9.5875 C.ar      1 RES1    0.0000
     19 C14       14.4841    2.1194   10.0048 C.ar      1 RES1    0.0000
     20 C15       13.2185    1.6888    9.5239 C.ar      1 RES1    0.0000
     21 H1         6.9027    0.0385    6.9236 H         1 RES1    0.0000
     22 H2         7.1065    1.3049    5.9673 H         1 RES1    0.0000
     23 H3         6.3484    1.4732    7.3667 H         1 RES1    0.0000
     24 H4        10.3734   -1.3112    6.6842 H         1 RES1    0.0000
     25 H5         8.7879   -1.3213    6.9074 H         1 RES1    0.0000
     26 H6         9.7641   -0.9380    8.1170 H         1 RES1    0.0000
     27 H7        12.2117   -0.1935    6.1344 H         1 RES1    0.0000
     28 H8        13.0228    1.1316    6.5160 H         1 RES1    0.0000
     29 H9        11.8754    1.1902    5.4034 H         1 RES1    0.0000
     30 H10       12.5520    4.2369    7.6448 H         1 RES1    0.0000
     31 H11       14.6512    4.9335    8.4351 H         1 RES1    0.0000
     32 H12       15.8434    3.6071    9.9099 H         1 RES1    0.0000
     33 H13       14.9752    1.5735   10.6236 H         1 RES1    0.0000
     34 H14       12.8598    0.8479    9.8161 H         1 RES1    0.0000
@<TRIPOS>BOND
     1    1    6 2
     2    2    9 1
     3    3    5 2
     4    4    5 2
     5    5    7 1
     6    6    7 1
     7    7    8 2
     8    8    9 1
     9    9   10 1
    10   10   11 2
    11   11    6 1
    12   12    8 1
    13   13    9 1
    14   14   10 1
    15   15   11 1
    16   16   15 ar
    17   17   16 ar
    18   18   17 ar
    19   19   18 ar
    20   20   15 ar
    21   21   12 1
    22   22   12 1
    23   23   12 1
    24   24   13 1
    25   25   13 1
    26   26   13 1
    27   27   14 1
    28   28   14 1
    29   29   14 1
    30   30   16 1
    31   31   17 1
    32   32   18 1
    33   33   19 1
    34   34   20 1
    35   19   20 ar
@<TRIPOS>SUBSTRUCTURE
     1 RES1 1

@<TRIPOS>CRYSIN
  20.3800    6.3040   10.7810  90.0000  90.0000  90.0000  33 1

