# MOL2 file generated by ConQuest
# Please check atom types

@<TRIPOS>MOLECULE
JEXVEO
    25    26     1
SMALL
NO_CHARGES
****
Generated from CSD

@<TRIPOS>ATOM
      1 O1         4.6337    1.7020    3.4831 O.3       1 RES1    0.0000
      2 O2         5.6240    3.4751    2.6275 O.2       1 RES1    0.0000
      3 O3         4.8546   -2.3104   -1.2642 O.2       1 RES1    0.0000
      4 O4         5.3102   -2.6288    0.8296 O.2       1 RES1    0.0000
      5 O5         3.2042    0.6657    5.4996 O.2       1 RES1    0.0000
      6 C1         5.5929    1.5393    1.2489 C.ar      1 RES1    0.0000
      7 C2         5.5151   -0.4775   -0.0141 C.ar      1 RES1    0.0000
      8 C3         4.5030   -0.3739    2.3163 C.2       1 RES1    0.0000
      9 H1         4.2417   -1.2662    2.3106 H         1 RES1    0.0000
     10 N1         5.2021   -1.9125   -0.1586 N.pl3     1 RES1    0.0000
     11 O6         2.9265   -1.2414    4.3353 O.3       1 RES1    0.0000
     12 C4         4.2174    0.4026    3.3667 C.2       1 RES1    0.0000
     13 C5         5.2184    0.1783    1.1906 C.ar      1 RES1    0.0000
     14 C6         6.0745    0.1478   -1.1012 C.ar      1 RES1    0.0000
     15 H2         6.2183   -0.3207   -1.8921 H         1 RES1    0.0000
     16 C7         5.3095    2.3297    2.4601 C.2       1 RES1    0.0000
     17 C8         3.4046   -0.0233    4.5281 C.2       1 RES1    0.0000
     18 C9         6.4219    1.4917   -1.0053 C.ar      1 RES1    0.0000
     19 H3         6.8088    1.9280   -1.7294 H         1 RES1    0.0000
     20 C10        2.1187   -1.8037    5.3971 C.3       1 RES1    0.0000
     21 H4         1.8336   -2.6857    5.1497 H         1 RES1    0.0000
     22 H5         1.3496   -1.2478    5.5428 H         1 RES1    0.0000
     23 H6         2.6374   -1.8489    6.2039 H         1 RES1    0.0000
     24 C11        6.1906    2.1700    0.1674 C.ar      1 RES1    0.0000
     25 H7         6.4379    3.0643    0.2370 H         1 RES1    0.0000
@<TRIPOS>BOND
     1    1   12 1
     2    2   16 2
     3    3   10 2
     4    4   10 2
     5    5   17 2
     6    6   13 ar
     7    7   10 1
     8    8    9 1
     9   11   17 1
    10   12    8 2
    11   13    7 ar
    12   14    7 ar
    13   15   14 1
    14   16    1 1
    15   17   12 1
    16   18   14 ar
    17   19   18 1
    18   20   11 1
    19   21   20 1
    20   22   20 1
    21   23   20 1
    22   24    6 ar
    23   25   24 1
    24    6   16 1
    25    8   13 1
    26   18   24 ar
@<TRIPOS>SUBSTRUCTURE
     1 RES1 1

@<TRIPOS>CRYSIN
   7.4730    7.9390   10.1950  73.0120  69.9450  68.2080   2 1

