# MOL2 file generated by ConQuest
# Please check atom types

@<TRIPOS>MOLECULE
JEYGOK
    48    51     1
SMALL
NO_CHARGES
****
Generated from CSD

@<TRIPOS>ATOM
      1 O1         4.9442    9.0801   20.0022 O.3       1 RES1    0.0000
      2 O2         2.9245    9.6947   19.4206 O.2       1 RES1    0.0000
      3 O3         0.9786    8.7097   16.4623 O.3       1 RES1    0.0000
      4 O4         1.3592    7.1438   14.8886 O.3       1 RES1    0.0000
      5 O5         2.9969    9.7630   14.4609 O.3       1 RES1    0.0000
      6 O6         4.4217   10.8697   12.4605 O.2       1 RES1    0.0000
      7 O7         3.0089    8.5411    8.9760 O.3       1 RES1    0.0000
      8 O8         2.0970    7.8099   10.8574 O.2       1 RES1    0.0000
      9 N1         3.9605    9.0724   15.3593 N.3       1 RES1    0.0000
     10 N2         3.5808    9.5785   10.8467 N.am      1 RES1    0.0000
     11 C1         4.6043    9.4075   21.3804 C.3       1 RES1    0.0000
     12 C2         3.9916    9.3041   19.1217 C.2       1 RES1    0.0000
     13 C3         4.4554    8.9739   17.7323 C.3       1 RES1    0.0000
     14 C4         3.3531    9.1996   16.7017 C.3       1 RES1    0.0000
     15 C5         2.2464    8.1549   16.8089 C.3       1 RES1    0.0000
     16 C6         2.5366    7.1208   15.7053 C.3       1 RES1    0.0000
     17 C7         0.3086    7.7504   15.6494 C.3       1 RES1    0.0000
     18 C8        -0.6283    8.4582   14.7169 C.3       1 RES1    0.0000
     19 C9        -0.3857    6.7186   16.5115 C.3       1 RES1    0.0000
     20 C10        3.7763    7.6574   14.9709 C.3       1 RES1    0.0000
     21 C11        3.6997    7.7186   13.4582 C.3       1 RES1    0.0000
     22 C12        3.0131    9.0772   13.2181 C.3       1 RES1    0.0000
     23 C13        3.7310    9.9213   12.1798 C.2       1 RES1    0.0000
     24 C14        4.2663   10.3352    9.8051 C.3       1 RES1    0.0000
     25 C15        3.9333    9.5687    8.5704 C.3       1 RES1    0.0000
     26 C16        2.8231    8.5719   10.2945 C.2       1 RES1    0.0000
     27 H1         5.3863    9.1111   21.8299 H         1 RES1    0.0000
     28 H2         3.7499    8.9561   21.6044 H         1 RES1    0.0000
     29 H3         4.3420   10.5366   21.3790 H         1 RES1    0.0000
     30 H4         5.2301    9.4984   17.5094 H         1 RES1    0.0000
     31 H5         4.7285    8.0367   17.7265 H         1 RES1    0.0000
     32 H6         3.0007   10.1038   16.7959 H         1 RES1    0.0000
     33 H7         2.2614    7.7175   17.7100 H         1 RES1    0.0000
     34 H8         2.7055    6.2197   16.0410 H         1 RES1    0.0000
     35 H9        -1.2829    9.0388   15.2406 H         1 RES1    0.0000
     36 H10       -1.1184    7.7785   14.2023 H         1 RES1    0.0000
     37 H11       -0.0740    9.0181   14.0824 H         1 RES1    0.0000
     38 H12       -0.8141    6.0637   15.8817 H         1 RES1    0.0000
     39 H13       -1.0444    7.2000   17.0523 H         1 RES1    0.0000
     40 H14        0.3372    6.2290   17.1206 H         1 RES1    0.0000
     41 H15        4.5311    7.1917   15.3005 H         1 RES1    0.0000
     42 H16        3.1989    7.0037   13.0917 H         1 RES1    0.0000
     43 H17        4.5804    7.7041   13.0483 H         1 RES1    0.0000
     44 H18        2.1299    8.9582   12.9345 H         1 RES1    0.0000
     45 H19        3.9637   11.2287    9.7847 H         1 RES1    0.0000
     46 H20        5.1807   10.3300   10.0246 H         1 RES1    0.0000
     47 H21        4.7367    9.1007    8.1342 H         1 RES1    0.0000
     48 H22        3.4785   10.0511    7.9047 H         1 RES1    0.0000
@<TRIPOS>BOND
     1    1   11 1
     2    2   12 2
     3    3   15 1
     4    4   16 1
     5    5    9 1
     6    6   23 2
     7    7   25 1
     8    8   26 2
     9    9   14 1
    10   10   23 1
    11   11   27 1
    12   12    1 1
    13   13   12 1
    14   14   13 1
    15   15   14 1
    16   16   15 1
    17   17    3 1
    18   18   17 1
    19   19   17 1
    20   20    9 1
    21   21   20 1
    22   22    5 1
    23   23   22 1
    24   24   10 1
    25   25   24 1
    26   26    7 1
    27   28   11 1
    28   29   11 1
    29   30   13 1
    30   31   13 1
    31   32   14 1
    32   33   15 1
    33   34   16 1
    34   35   18 1
    35   36   18 1
    36   37   18 1
    37   38   19 1
    38   39   19 1
    39   40   19 1
    40   41   20 1
    41   42   21 1
    42   43   21 1
    43   44   22 1
    44   45   24 1
    45   46   24 1
    46   47   25 1
    47   48   25 1
    48    4   17 1
    49   10   26 1
    50   16   20 1
    51   21   22 1
@<TRIPOS>SUBSTRUCTURE
     1 RES1 1

@<TRIPOS>CRYSIN
   8.2234   10.3300   20.6820  90.0000  90.0000  90.0000  19 1

