# MOL2 file generated by ConQuest
# Please check atom types

@<TRIPOS>MOLECULE
JEYKAC
    47    48     1
SMALL
NO_CHARGES
****
Generated from CSD

@<TRIPOS>ATOM
      1 O1         3.5873    1.1457   14.2614 O.2       1 RES1    0.0000
      2 H1         1.5791    3.6771   12.8450 H         1 RES1    0.0000
      3 C1         3.6714    4.1122   16.2689 C.ar      1 RES1    0.0000
      4 N1         2.2903    3.2277   12.8142 N.am      1 RES1    0.0000
      5 O2         5.4505    2.3633   13.9684 O.3       1 RES1    0.0000
      6 C2         4.1253    5.4060   16.5259 C.ar      1 RES1    0.0000
      7 H2         3.8264    6.1264   15.9837 H         1 RES1    0.0000
      8 N2        -1.2608    2.5767    7.3926 N.pl3     1 RES1    0.0000
      9 O3         3.7067    2.2097   11.3857 O.2       1 RES1    0.0000
     10 C3         5.0119    5.6498   17.5710 C.ar      1 RES1    0.0000
     11 H3         5.3107    6.5350   17.7410 H         1 RES1    0.0000
     12 O4        -0.8228    2.4630    6.2544 O.2       1 RES1    0.0000
     13 C4         5.4598    4.6059   18.3615 C.ar      1 RES1    0.0000
     14 H4         6.0721    4.7727   19.0695 H         1 RES1    0.0000
     15 C5         1.6241    4.8919   15.0218 C.2       1 RES1    0.0000
     16 H5         1.8984    5.7505   14.7209 H         1 RES1    0.0000
     17 C6         2.6624    3.8099   15.1591 C.3       1 RES1    0.0000
     18 H6         2.1780    2.9771   15.4290 H         1 RES1    0.0000
     19 C7         4.1296    3.0717   17.0808 C.ar      1 RES1    0.0000
     20 H7         3.8327    2.1838   16.9217 H         1 RES1    0.0000
     21 O5        -2.4472    2.6107    7.6446 O.2       1 RES1    0.0000
     22 C8         5.0150    3.3237   18.1184 C.ar      1 RES1    0.0000
     23 H8         5.3174    2.6080   18.6662 H         1 RES1    0.0000
     24 C9         0.3522    4.6971   15.3007 C.2       1 RES1    0.0000
     25 H9         0.0569    3.8466   15.6023 H         1 RES1    0.0000
     26 H10       -0.2702    5.4080   15.2009 H         1 RES1    0.0000
     27 C10        3.3577    3.5048   13.7877 C.3       1 RES1    0.0000
     28 C11        4.1245    2.1919   14.0010 C.2       1 RES1    0.0000
     29 C12        4.2344    4.6495   13.2850 C.3       1 RES1    0.0000
     30 H11        4.6442    4.3961   12.4326 H         1 RES1    0.0000
     31 H12        4.9364    4.8360   13.9417 H         1 RES1    0.0000
     32 H13        3.6844    5.4502   13.1589 H         1 RES1    0.0000
     33 C13        6.2219    1.1760   14.2530 C.3       1 RES1    0.0000
     34 H14        6.0122    0.4835   13.5914 H         1 RES1    0.0000
     35 H15        6.0002    0.8491   15.1498 H         1 RES1    0.0000
     36 H16        7.1777    1.3891   14.2100 H         1 RES1    0.0000
     37 C14        2.5977    2.6775   11.6180 C.2       1 RES1    0.0000
     38 C15        1.5237    2.6713   10.5596 C.ar      1 RES1    0.0000
     39 C16        1.9648    2.7006    9.2355 C.ar      1 RES1    0.0000
     40 H17        2.8953    2.7231    9.0457 H         1 RES1    0.0000
     41 C17        1.0475    2.6965    8.1990 C.ar      1 RES1    0.0000
     42 H18        1.3383    2.7326    7.2957 H         1 RES1    0.0000
     43 C18       -0.2924    2.6393    8.5024 C.ar      1 RES1    0.0000
     44 C19       -0.7649    2.6121    9.8030 C.ar      1 RES1    0.0000
     45 H19       -1.6973    2.5746    9.9837 H         1 RES1    0.0000
     46 C20        0.1626    2.6420   10.8366 C.ar      1 RES1    0.0000
     47 H20       -0.1353    2.6427   11.7392 H         1 RES1    0.0000
@<TRIPOS>BOND
     1    1   28 2
     2    2    4 1
     3    3    6 ar
     4    4   27 1
     5    5   28 1
     6    6    7 1
     7    8   12 2
     8    9   37 2
     9   10    6 ar
    10   11   10 1
    11   13   10 ar
    12   14   13 1
    13   15   16 1
    14   17    3 1
    15   18   17 1
    16   19    3 ar
    17   20   19 1
    18   21    8 2
    19   22   13 ar
    20   23   22 1
    21   24   15 2
    22   25   24 1
    23   26   24 1
    24   27   17 1
    25   28   27 1
    26   29   27 1
    27   30   29 1
    28   31   29 1
    29   32   29 1
    30   33    5 1
    31   34   33 1
    32   35   33 1
    33   36   33 1
    34   37    4 1
    35   38   37 1
    36   39   38 ar
    37   40   39 1
    38   41   39 ar
    39   42   41 1
    40   43    8 1
    41   44   43 ar
    42   45   44 1
    43   46   38 ar
    44   47   46 1
    45   15   17 1
    46   19   22 ar
    47   41   43 ar
    48   44   46 ar
@<TRIPOS>SUBSTRUCTURE
     1 RES1 1

@<TRIPOS>CRYSIN
   7.2492    6.8094   18.2540  90.0000  91.4280  90.0000   4 1

