# MOL2 file generated by ConQuest
# Please check atom types

@<TRIPOS>MOLECULE
JIDBON
    44    45     1
SMALL
NO_CHARGES
****
Generated from CSD

@<TRIPOS>ATOM
      1 C1         0.1556    0.1524    4.3281 C.3       1 RES1    0.0000
      2 C2         1.1097    1.2156    3.7774 C.3       1 RES1    0.0000
      3 C3         1.3425    1.2133    2.2607 C.3       1 RES1    0.0000
      4 C4         0.2697    1.9186    1.4260 C.3       1 RES1    0.0000
      5 C5        -1.0464    1.2225    1.3004 C.3       1 RES1    0.0000
      6 C6        -1.2623   -0.0416    2.1273 C.3       1 RES1    0.0000
      7 C7        -1.2095    0.1524    3.6364 C.3       1 RES1    0.0000
      8 C8         0.0532    0.2805    5.9222 C.3       1 RES1    0.0000
      9 C9        -0.7842    1.5111    6.2719 C.3       1 RES1    0.0000
     10 C10       -1.0040    1.7789    7.7829 C.3       1 RES1    0.0000
     11 C11        0.1603    2.4473    8.5133 C.3       1 RES1    0.0000
     12 C12        1.4002    1.6069    8.7799 C.3       1 RES1    0.0000
     13 C13        1.4685    0.2563    8.1230 C.3       1 RES1    0.0000
     14 C14        1.4286    0.2563    6.5907 C.3       1 RES1    0.0000
     15 O1         2.0237   -1.2895    4.0035 O.2       1 RES1    0.0000
     16 O2         0.0832   -2.1772    3.8663 O.2       1 RES1    0.0000
     17 O3        -1.9248   -0.9166    6.4999 O.2       1 RES1    0.0000
     18 O4        -0.0634   -1.9659    6.6468 O.2       1 RES1    0.0000
     19 N1         0.8018   -1.2271    4.0344 N.pl3     1 RES1    0.0000
     20 N2        -0.7156   -0.9685    6.4014 N.pl3     1 RES1    0.0000
     21 H1         0.7440    2.0895    3.9996 H         1 RES1    0.0000
     22 H2         1.9654    1.0967    4.2122 H         1 RES1    0.0000
     23 H3         1.3656    0.2886    1.9708 H         1 RES1    0.0000
     24 H4         2.2014    1.6277    2.0674 H         1 RES1    0.0000
     25 H5         0.6162    2.0433    0.5217 H         1 RES1    0.0000
     26 H6         0.1248    2.7821    1.8356 H         1 RES1    0.0000
     27 H7        -1.7139    1.8470    1.6230 H         1 RES1    0.0000
     28 H8        -1.1904    1.0274    0.3671 H         1 RES1    0.0000
     29 H9        -2.0939   -0.4387    1.8742 H         1 RES1    0.0000
     30 H10       -0.5185   -0.6234    1.9129 H         1 RES1    0.0000
     31 H11       -1.7447   -0.5310    4.0383 H         1 RES1    0.0000
     32 H12       -1.6092    1.0159    3.8064 H         1 RES1    0.0000
     33 H13       -0.3211    2.2973    5.9318 H         1 RES1    0.0000
     34 H14       -1.6392    1.4199    5.8352 H         1 RES1    0.0000
     35 H15       -1.1425    0.9120    8.1925 H         1 RES1    0.0000
     36 H16       -1.7914    2.3319    7.9027 H         1 RES1    0.0000
     37 H17       -0.1482    2.7821    9.3711 H         1 RES1    0.0000
     38 H18        0.4270    3.1977    7.9606 H         1 RES1    0.0000
     39 H19        1.4715    1.4776    9.7383 H         1 RES1    0.0000
     40 H20        2.1687    2.1010    8.4630 H         1 RES1    0.0000
     41 H21        2.2716   -0.1962    8.4244 H         1 RES1    0.0000
     42 H22        0.6833   -0.2193    8.4244 H         1 RES1    0.0000
     43 H23        1.8903   -0.5310    6.2796 H         1 RES1    0.0000
     44 H24        1.9160    1.0505    6.2990 H         1 RES1    0.0000
@<TRIPOS>BOND
     1    1    2 1
     2    2    3 1
     3    3    4 1
     4    4    5 1
     5    5    6 1
     6    6    7 1
     7    7    1 1
     8    8    1 1
     9    9    8 1
    10   10    9 1
    11   11   10 1
    12   12   11 1
    13   13   12 1
    14   14    8 1
    15   15   19 2
    16   16   19 2
    17   17   20 2
    18   18   20 2
    19   19    1 1
    20   20    8 1
    21   21    2 1
    22   22    2 1
    23   23    3 1
    24   24    3 1
    25   25    4 1
    26   26    4 1
    27   27    5 1
    28   28    5 1
    29   29    6 1
    30   30    6 1
    31   31    7 1
    32   32    7 1
    33   33    9 1
    34   34    9 1
    35   35   10 1
    36   36   10 1
    37   37   11 1
    38   38   11 1
    39   39   12 1
    40   40   12 1
    41   41   13 1
    42   42   13 1
    43   43   14 1
    44   44   14 1
    45   13   14 1
@<TRIPOS>SUBSTRUCTURE
     1 RES1 1

@<TRIPOS>CRYSIN
   6.4306   11.5440   19.3220  90.0000  90.1200  90.0000 231 1

