# MOL2 file generated by ConQuest
# Please check atom types

@<TRIPOS>MOLECULE
JIDBED
    40    33     2
SMALL
NO_CHARGES
****
Generated from CSD

@<TRIPOS>ATOM
      1 C1         5.4547    1.9580    8.0356 C.3       1 RES1    0.0000
      2 C2         4.9288    0.8080    9.1280 C.3       1 RES1    0.0000
      3 C3         4.3037    1.8134    8.8186 Du        2 SUP2    0.0000
      4 C4         3.5583    0.4769    8.4819 C.3       1 RES1    0.0000
      5 C5         3.7814    0.5047    7.0225 C.3       1 RES1    0.0000
      6 C6         4.6152    1.8173    6.9117 C.3       1 RES1    0.0000
      7 C7         5.3090    0.8299    6.7814 Du        2 SUP2    0.0000
      8 N1         5.0008    3.2493    8.9413 N.pl3     1 RES1    0.0000
      9 N2         5.3058    3.2629    7.0138 Du        2 SUP2    0.0000
     10 O1         5.9537    3.9166    9.5331 O.2       1 RES1    0.0000
     11 O2         3.8207    3.5094    8.9641 O.2       1 RES1    0.0000
     12 O3         4.1822    3.5230    6.6348 Du        2 SUP2    0.0000
     13 H1         4.8196    1.1874   10.0120 H         1 RES1    0.0000
     14 H2         5.5219    0.0387    9.1758 H         1 RES1    0.0000
     15 H3         4.5728    1.7876    9.7513 Du        2 SUP2    0.0000
     16 H4         3.7071    2.5685    8.6763 Du        2 SUP2    0.0000
     17 H5         2.5997    0.9551    8.6872 H         1 RES1    0.0000
     18 H6         3.2055   -0.3549    9.0781 H         1 RES1    0.0000
     19 H7         3.0335    0.8906    6.4502 H         1 RES1    0.0000
     20 H8         3.7976   -0.3356    6.7217 H         1 RES1    0.0000
     21 H9         4.0104    2.5749    6.8520 H         1 RES1    0.0000
     22 H10        5.1768    1.7812    6.1136 H         1 RES1    0.0000
     23 H11        5.8847    0.0581    6.8954 Du        2 SUP2    0.0000
     24 H12        5.4669    1.2326    5.9181 Du        2 SUP2    0.0000
     25 C1B        6.9239    1.9580    8.2528 C.3       1 RES1    0.0000
     26 C2B        7.4497    0.8080    7.1604 C.3       1 RES1    0.0000
     27 C6B        7.7634    1.8173    9.3767 C.3       1 RES1    0.0000
     28 N1B        7.3778    3.2493    7.3472 N.pl3     1 RES1    0.0000
     29 C4B        8.8203    0.4769    7.8065 C.3       1 RES1    0.0000
     30 H1B        7.5589    1.1874    6.2765 H         1 RES1    0.0000
     31 H2B        6.8567    0.0387    7.1126 H         1 RES1    0.0000
     32 C5B        8.5971    0.5047    9.2659 C.3       1 RES1    0.0000
     33 H9B        8.3682    2.5749    9.4364 H         1 RES1    0.0000
     34 H10B       7.2017    1.7812   10.1748 H         1 RES1    0.0000
     35 O1B        6.4249    3.9166    6.7554 O.2       1 RES1    0.0000
     36 O2B        8.5578    3.5094    7.3244 O.2       1 RES1    0.0000
     37 H5B        9.7788    0.9551    7.6013 H         1 RES1    0.0000
     38 H6B        9.1731   -0.3549    7.2103 H         1 RES1    0.0000
     39 H7B        9.3451    0.8906    9.8382 H         1 RES1    0.0000
     40 H8B        8.5809   -0.3356    9.5667 H         1 RES1    0.0000
@<TRIPOS>BOND
     1    1    2 1
     2    2    4 1
     3    4    5 1
     4    5    6 1
     5    6    1 1
     6    8    1 1
     7   10    8 2
     8   11    8 2
     9   13    2 1
    10   14    2 1
    11   17    4 1
    12   18    4 1
    13   19    5 1
    14   20    5 1
    15   21    6 1
    16   22    6 1
    17   25    1 1
    18   26   25 1
    19   27   25 1
    20   28   25 1
    21   29   26 1
    22   30   26 1
    23   31   26 1
    24   32   27 1
    25   33   27 1
    26   34   27 1
    27   35   28 2
    28   36   28 2
    29   37   29 1
    30   38   29 1
    31   39   32 1
    32   40   32 1
    33   29   32 1
@<TRIPOS>SUBSTRUCTURE
     1 RES1 1
     2 SUP2 3

@<TRIPOS>CRYSIN
  16.2470    6.4535   11.1610  90.0000 103.3600  90.0000  15 1

