# MOL2 file generated by ConQuest
# Please check atom types

@<TRIPOS>MOLECULE
JIDBIH
    38    39     1
SMALL
NO_CHARGES
****
Generated from CSD

@<TRIPOS>ATOM
      1 C1         3.0978    6.2427   14.2716 C.3       1 RES1    0.0000
      2 C2         3.9415    7.4144   14.7857 C.3       1 RES1    0.0000
      3 C3         4.0125    7.4705   16.3137 C.3       1 RES1    0.0000
      4 C4         2.6342    7.5036   16.9321 C.3       1 RES1    0.0000
      5 C5         1.8265    6.3110   16.4845 C.3       1 RES1    0.0000
      6 C6         1.7360    6.2273   14.9637 C.3       1 RES1    0.0000
      7 N1         3.8422    4.9422   14.6689 N.pl3     1 RES1    0.0000
      8 O1         3.1787    3.9555   14.9187 O.2       1 RES1    0.0000
      9 O2         5.0538    4.9554   14.7084 O.2       1 RES1    0.0000
     10 H1         3.5436    8.2370   14.4711 H         1 RES1    0.0000
     11 H2         4.8499    7.3780   14.3812 H         1 RES1    0.0000
     12 H3         4.4980    6.6843   16.6463 H         1 RES1    0.0000
     13 H4         4.5185    8.2920   16.5564 H         1 RES1    0.0000
     14 H5         2.1589    8.3251   16.6643 H         1 RES1    0.0000
     15 H6         2.6920    7.4992   17.9226 H         1 RES1    0.0000
     16 H7         0.9744    6.3099   16.8260 H         1 RES1    0.0000
     17 H8         2.2408    5.4620   16.8260 H         1 RES1    0.0000
     18 H9         1.2276    5.4840   14.7048 H         1 RES1    0.0000
     19 H10        1.2924    7.0036   14.6868 H         1 RES1    0.0000
     20 C1B        3.0197    6.2427   12.6932 C.3       1 RES1    0.0000
     21 C2B        2.1759    7.4144   12.1791 C.3       1 RES1    0.0000
     22 C6B        4.3814    6.2273   12.0011 C.3       1 RES1    0.0000
     23 N1B        2.2753    4.9422   12.2960 N.pl3     1 RES1    0.0000
     24 C3B        2.1050    7.4705   10.6511 C.3       1 RES1    0.0000
     25 H1B        2.5738    8.2370   12.4937 H         1 RES1    0.0000
     26 H2B        1.2675    7.3780   12.5836 H         1 RES1    0.0000
     27 C5B        4.2910    6.3110   10.4803 C.3       1 RES1    0.0000
     28 H9B        4.8898    5.4840   12.2600 H         1 RES1    0.0000
     29 H10B       4.8250    7.0036   12.2780 H         1 RES1    0.0000
     30 O1B        2.9387    3.9555   12.0461 O.2       1 RES1    0.0000
     31 O2B        1.0637    4.9554   12.2564 O.2       1 RES1    0.0000
     32 C4B        3.4832    7.5036   10.0327 C.3       1 RES1    0.0000
     33 H3B        1.6195    6.6843   10.3185 H         1 RES1    0.0000
     34 H4B        1.5989    8.2920   10.4084 H         1 RES1    0.0000
     35 H7B        5.1430    6.3099   10.1388 H         1 RES1    0.0000
     36 H8B        3.8766    5.4620   10.1388 H         1 RES1    0.0000
     37 H5B        3.9586    8.3251   10.3006 H         1 RES1    0.0000
     38 H6B        3.4254    7.4992    9.0422 H         1 RES1    0.0000
@<TRIPOS>BOND
     1    1    2 1
     2    2    3 1
     3    3    4 1
     4    4    5 1
     5    5    6 1
     6    6    1 1
     7    7    1 1
     8    8    7 2
     9    9    7 2
    10   10    2 1
    11   11    2 1
    12   12    3 1
    13   13    3 1
    14   14    4 1
    15   15    4 1
    16   16    5 1
    17   17    5 1
    18   18    6 1
    19   19    6 1
    20   20    1 1
    21   21   20 1
    22   22   20 1
    23   23   20 1
    24   24   21 1
    25   25   21 1
    26   26   21 1
    27   27   22 1
    28   28   22 1
    29   29   22 1
    30   30   23 2
    31   31   23 2
    32   32   24 1
    33   33   24 1
    34   34   24 1
    35   35   27 1
    36   36   27 1
    37   37   32 1
    38   38   32 1
    39   27   32 1
@<TRIPOS>SUBSTRUCTURE
     1 RES1 1

@<TRIPOS>CRYSIN
   6.4610   11.0120   17.9780  90.0000  90.7300  90.0000  15 1

