# MOL2 file generated by ConQuest
# Please check atom types

@<TRIPOS>MOLECULE
JIFLEP
    26    24     2
SMALL
USER_CHARGES
****
Generated from CSD

@<TRIPOS>ATOM
      1 O1         1.8818   -1.6957    6.0897 O.2       1 RES1   -1.0000
      2 O2         7.5533    0.5627    4.9570 O.2       1 RES1    0.0000
      3 O3         8.0650   -1.0497    6.2802 O.2       1 RES1    0.0000
      4 N1         7.2274   -0.3915    5.6542 N.pl3     1 RES1    0.0000
      5 N2         3.2691   -2.5811    9.0083 N.4       1 RES1    1.0000
      6 C1         3.1238   -1.3959    5.9717 C.ar      1 RES1    0.0000
      7 C2         4.1227   -2.1053    6.7127 C.ar      1 RES1    0.0000
      8 C3         5.4518   -1.7901    6.5736 C.ar      1 RES1    0.0000
      9 C4         5.8498   -0.7510    5.7389 C.ar      1 RES1    0.0000
     10 C5         4.9048   -0.0389    4.9979 C.ar      1 RES1    0.0000
     11 C6         3.5831   -0.3606    5.1037 C.ar      1 RES1    0.0000
     12 C7         3.6921   -3.1583    7.6775 C.3       1 RES1    0.0000
     13 C8         4.3248   -1.7282    9.6056 C.3       1 RES1    0.0000
     14 C9         2.9117   -3.6613    9.9640 C.3       1 RES1    0.0000
     15 H1         2.4719   -2.0269    8.9069 H         1 RES1    0.0000
     16 H2         6.1429   -2.2776    7.0469 H         1 RES1    0.0000
     17 H3         5.1864    0.6774    4.4308 H         1 RES1    0.0000
     18 H4         2.9432    0.1440    4.5820 H         1 RES1    0.0000
     19 H5         4.4078    3.7658    7.8635 Du        2 SUP2    0.0000
     20 H6         2.9396   -3.6058    7.3191 H         1 RES1    0.0000
     21 H7         5.1368   -2.2723    9.6933 H         1 RES1    0.0000
     22 H8         4.4969   -1.0028    9.0128 H         1 RES1    0.0000
     23 H9         4.0137   -1.3922   10.4645 H         1 RES1    0.0000
     24 H10        2.3149   -4.2405    9.5874 H         1 RES1    0.0000
     25 H11        3.7483    4.1819   10.1923 Du        2 SUP2    0.0000
     26 H12        2.5742   -3.2591   10.7670 H         1 RES1    0.0000
@<TRIPOS>BOND
     1    1    6 1
     2    2    4 2
     3    3    4 2
     4    4    9 1
     5    5   12 1
     6    6    7 ar
     7    7    8 ar
     8    8    9 ar
     9    9   10 ar
    10   10   11 ar
    11   11    6 ar
    12   12    7 1
    13   13    5 1
    14   14    5 1
    15   15    5 1
    16   16    8 1
    17   17   10 1
    18   18   11 1
    19   20   12 1
    20   21   13 1
    21   22   13 1
    22   23   13 1
    23   24   14 1
    24   26   14 1
@<TRIPOS>SUBSTRUCTURE
     1 RES1 1
     2 SUP2 19

@<TRIPOS>CRYSIN
  23.4370    5.3340   17.4440  90.0000 119.9000  90.0000  15 1

