# MOL2 file generated by ConQuest
# Please check atom types

@<TRIPOS>MOLECULE
JIGBEG
    31    30     1
SMALL
NO_CHARGES
****
Generated from CSD

@<TRIPOS>ATOM
      1 O1         1.5616    7.6736    2.8001 O.3       1 RES1    0.0000
      2 O2        -0.3876    9.2676    0.1267 O.3       1 RES1    0.0000
      3 O3        -0.2633   10.8746    2.3034 O.3       1 RES1    0.0000
      4 O4         2.5367   11.2076   -0.0318 O.3       1 RES1    0.0000
      5 O5         2.4744   12.7951    2.5480 O.3       1 RES1    0.0000
      6 O6         3.4704   13.8830    0.1448 O.3       1 RES1    0.0000
      7 O7         1.9773   16.5346   -0.9014 O.2       1 RES1    0.0000
      8 O8         3.4505   17.0299    0.5970 O.2       1 RES1    0.0000
      9 N1         2.4867   16.3919    0.2060 N.pl3     1 RES1    0.0000
     10 C1         0.4139    8.0153    2.0156 C.3       1 RES1    0.0000
     11 C2         0.7293    9.1076    1.0017 C.3       1 RES1    0.0000
     12 C3         0.9509   10.4550    1.6824 C.3       1 RES1    0.0000
     13 C4         1.3726   11.5667    0.7208 C.3       1 RES1    0.0000
     14 C5         1.5970   12.9033    1.4269 C.3       1 RES1    0.0000
     15 C6         2.0791   13.9890    0.4610 C.3       1 RES1    0.0000
     16 C7         1.9168   15.3494    1.1040 C.3       1 RES1    0.0000
     17 H1        -0.2621    8.2835    2.7061 H         1 RES1    0.0000
     18 H2         0.1406    7.2238    1.5219 H         1 RES1    0.0000
     19 H3         1.5024    8.8242    0.5040 H         1 RES1    0.0000
     20 H4         1.7043   10.3814    2.4321 H         1 RES1    0.0000
     21 H5         0.6722   11.7656    0.0147 H         1 RES1    0.0000
     22 H6         0.7544   13.2147    1.7812 H         1 RES1    0.0000
     23 H7         1.5693   13.9284   -0.4355 H         1 RES1    0.0000
     24 H8         2.3731   15.3559    2.0699 H         1 RES1    0.0000
     25 H9         1.0925   15.5505    1.3702 H         1 RES1    0.0000
     26 H10        2.1046    7.1156    2.1825 H         1 RES1    0.0000
     27 H11       -0.3229    8.6512   -0.4698 H         1 RES1    0.0000
     28 H12       -0.2299   10.8789    3.0927 H         1 RES1    0.0000
     29 H13        2.7942   10.6842    0.3719 H         1 RES1    0.0000
     30 H14        3.1240   12.2631    2.2216 H         1 RES1    0.0000
     31 H15        3.6086   13.1498   -0.4796 H         1 RES1    0.0000
@<TRIPOS>BOND
     1    1   10 1
     2    2   11 1
     3    3   12 1
     4    4   13 1
     5    5   14 1
     6    6   15 1
     7    7    9 2
     8    8    9 2
     9    9   16 1
    10   10   11 1
    11   11   12 1
    12   12   13 1
    13   13   14 1
    14   14   15 1
    15   15   16 1
    16   16   24 1
    17   17   10 1
    18   18   10 1
    19   19   11 1
    20   20   12 1
    21   21   13 1
    22   22   14 1
    23   23   15 1
    24   25   16 1
    25   26    1 1
    26   27    2 1
    27   28    3 1
    28   29    4 1
    29   30    5 1
    30   31    6 1
@<TRIPOS>SUBSTRUCTURE
     1 RES1 1

@<TRIPOS>CRYSIN
   4.7830   21.6280    5.4140  90.0000 115.3300  90.0000   4 1

