# MOL2 file generated by ConQuest
# Please check atom types

@<TRIPOS>MOLECULE
JIGBUW
    31    30     1
SMALL
NO_CHARGES
****
Generated from CSD

@<TRIPOS>ATOM
      1 O1        -0.4065   11.6568    3.8189 O.3       1 RES1    0.0000
      2 O2         2.2424   10.9516    1.4417 O.3       1 RES1    0.0000
      3 O3        -0.1180    9.4315    1.2725 O.3       1 RES1    0.0000
      4 O4         2.3799    7.9370    1.3921 O.3       1 RES1    0.0000
      5 O5        -0.1372    6.9703    3.8165 O.3       1 RES1    0.0000
      6 O6         2.3527    5.5319    3.7525 O.3       1 RES1    0.0000
      7 O7        -0.1892   14.6294    2.6539 O.2       1 RES1    0.0000
      8 O8         0.7387   14.7392    4.5680 O.2       1 RES1    0.0000
      9 N1         0.5988   14.2254    3.4843 N.pl3     1 RES1    0.0000
     10 C1         1.4537   13.0555    3.1599 C.3       1 RES1    0.0000
     11 C2         0.5779   11.8576    2.8211 C.3       1 RES1    0.0000
     12 C3         1.4665   10.6317    2.6015 C.3       1 RES1    0.0000
     13 C4         0.6566    9.3474    2.4651 C.3       1 RES1    0.0000
     14 C5         1.5096    8.0678    2.5057 C.3       1 RES1    0.0000
     15 C6         0.6397    6.8115    2.6272 C.3       1 RES1    0.0000
     16 C7         1.4383    5.5272    2.6623 C.3       1 RES1    0.0000
     17 H1         2.0568   13.3801    2.3926 H         1 RES1    0.0000
     18 H2         1.8929   12.9131    3.9441 H         1 RES1    0.0000
     19 H3         0.0160   12.0024    1.9300 H         1 RES1    0.0000
     20 H4         2.0512   10.5079    3.3039 H         1 RES1    0.0000
     21 H5        -0.0038    9.3638    3.2525 H         1 RES1    0.0000
     22 H6         2.1078    8.1261    3.3740 H         1 RES1    0.0000
     23 H7        -0.0172    6.7251    1.8272 H         1 RES1    0.0000
     24 H8         1.9615    5.3941    1.8459 H         1 RES1    0.0000
     25 H9         0.7733    4.6936    2.7431 H         1 RES1    0.0000
     26 H10        0.0390   11.2785    4.5376 H         1 RES1    0.0000
     27 H11        2.9810   10.5313    1.3692 H         1 RES1    0.0000
     28 H12       -0.7028    8.9668    1.2524 H         1 RES1    0.0000
     29 H13        1.9463    7.6825    0.7010 H         1 RES1    0.0000
     30 H14       -0.7907    6.4916    3.7805 H         1 RES1    0.0000
     31 H15        2.1842    4.8337    4.1263 H         1 RES1    0.0000
@<TRIPOS>BOND
     1    1   11 1
     2    2   12 1
     3    3   13 1
     4    4   14 1
     5    5   15 1
     6    6   16 1
     7    7    9 2
     8    8    9 2
     9    9   10 1
    10   10   11 1
    11   11   12 1
    12   12   13 1
    13   13   14 1
    14   14   15 1
    15   15   16 1
    16   16   24 1
    17   17   10 1
    18   18   10 1
    19   19   11 1
    20   20   12 1
    21   21   13 1
    22   22   14 1
    23   23   15 1
    24   25   16 1
    25   26    1 1
    26   27    2 1
    27   28    3 1
    28   29    4 1
    29   30    5 1
    30   31    6 1
@<TRIPOS>SUBSTRUCTURE
     1 RES1 1

@<TRIPOS>CRYSIN
   4.7460   23.3510    4.8490  90.0000 105.4800  90.0000   4 1

