# MOL2 file generated by ConQuest
# Please check atom types

@<TRIPOS>MOLECULE
JIGXAB
    36    39     1
SMALL
NO_CHARGES
****
Generated from CSD

@<TRIPOS>ATOM
      1 O1         7.9618    1.1526   12.4416 O.2       1 RES1    0.0000
      2 O2         7.1555    2.9078   11.4166 O.2       1 RES1    0.0000
      3 N1         4.3615    2.7823   18.2381 N.2       1 RES1    0.0000
      4 N2         3.5577    3.3464   19.2048 N.3       1 RES1    0.0000
      5 N3         3.2063    4.6695   18.7836 N.3       1 RES1    0.0000
      6 N4         2.7718    5.5290   16.6810 N.2       1 RES1    0.0000
      7 N5         7.2450    2.1737   12.4060 N.pl3     1 RES1    0.0000
      8 C1         4.3359    3.5406   17.1497 C.2       1 RES1    0.0000
      9 C2         3.4637    4.6890   17.3959 C.2       1 RES1    0.0000
     10 C3         1.8224    5.2200   18.9098 C.3       1 RES1    0.0000
     11 H1         1.6908    5.7072   19.7610 H         1 RES1    0.0000
     12 H2         1.1312    4.5179   18.8159 H         1 RES1    0.0000
     13 C4         1.8604    6.1784   17.6834 C.3       1 RES1    0.0000
     14 H3         0.9528    6.2932   17.3042 H         1 RES1    0.0000
     15 H4         2.2091    7.0663   17.9464 H         1 RES1    0.0000
     16 C5         5.0444    3.1730   15.9190 C.ar      1 RES1    0.0000
     17 C6         5.7572    1.9494   15.8346 C.ar      1 RES1    0.0000
     18 H5         5.7475    1.3467   16.5694 H         1 RES1    0.0000
     19 C7         6.4667    1.6255   14.6923 C.ar      1 RES1    0.0000
     20 H6         6.9459    0.8069   14.6370 H         1 RES1    0.0000
     21 C8         6.4702    2.5212   13.6170 C.ar      1 RES1    0.0000
     22 C9         5.7586    3.7170   13.6470 C.ar      1 RES1    0.0000
     23 H7         5.7541    4.2983   12.8954 H         1 RES1    0.0000
     24 C10        5.0491    4.0449   14.8120 C.ar      1 RES1    0.0000
     25 H8         4.5669    4.8624   14.8558 H         1 RES1    0.0000
     26 C11        3.8448    3.0972   20.5810 C.ar      1 RES1    0.0000
     27 C12        3.6434    4.0852   21.5492 C.ar      1 RES1    0.0000
     28 H9         3.3205    4.9418   21.2951 H         1 RES1    0.0000
     29 C13        3.9172    3.8076   22.8884 C.ar      1 RES1    0.0000
     30 H10        3.7799    4.4818   23.5444 H         1 RES1    0.0000
     31 C14        4.3906    2.5526   23.2818 C.ar      1 RES1    0.0000
     32 H11        4.5753    2.3691   24.1950 H         1 RES1    0.0000
     33 C15        4.5864    1.5711   22.3017 C.ar      1 RES1    0.0000
     34 H12        4.9049    0.7139   22.5571 H         1 RES1    0.0000
     35 C16        4.3216    1.8286   20.9549 C.ar      1 RES1    0.0000
     36 H13        4.4624    1.1549   20.2995 H         1 RES1    0.0000
@<TRIPOS>BOND
     1    1    7 2
     2    2    7 2
     3    3    4 1
     4    4    5 1
     5    5    9 1
     6    6    9 2
     7    7   21 1
     8    8    3 2
     9    9    8 1
    10   10    5 1
    11   11   10 1
    12   12   10 1
    13   13    6 1
    14   14   13 1
    15   15   13 1
    16   16    8 1
    17   17   16 ar
    18   18   17 1
    19   19   17 ar
    20   20   19 1
    21   21   19 ar
    22   22   21 ar
    23   23   22 1
    24   24   16 ar
    25   25   24 1
    26   26    4 1
    27   27   26 ar
    28   28   27 1
    29   29   27 ar
    30   30   29 1
    31   31   29 ar
    32   32   31 1
    33   33   31 ar
    34   34   33 1
    35   35   26 ar
    36   36   35 1
    37   10   13 1
    38   22   24 ar
    39   33   35 ar
@<TRIPOS>SUBSTRUCTURE
     1 RES1 1

@<TRIPOS>CRYSIN
   8.7063    5.9197   28.0660  90.0000  92.1800  90.0000 231 1

