# MOL2 file generated by ConQuest
# Please check atom types

@<TRIPOS>MOLECULE
JIHDEJ
    28    25     2
SMALL
NO_CHARGES
****
Generated from CSD

@<TRIPOS>ATOM
      1 O1         8.4064    5.2864    6.3840 O.3       1 RES1    0.0000
      2 O2         7.3878    4.7528    4.4724 O.2       1 RES1    0.0000
      3 O3         8.7807    4.4089    8.4978 O.3       1 RES1    0.0000
      4 O4         6.5475    5.3213   10.0038 O.2       1 RES1    0.0000
      5 O5         4.8374    4.6224    8.8354 O.2       1 RES1    0.0000
      6 O6         7.7474    2.7171    7.4037 O.2       1 RES1    0.0000
      7 N1         6.6472    5.3334    7.7836 N.3       1 RES1    0.0000
      8 N2         5.9776    5.0538    8.9499 N.pl3     1 RES1    0.0000
      9 C1         7.3159    4.9312    5.6501 C.2       1 RES1    0.0000
     10 C2         6.0741    4.8752    6.5192 C.3       1 RES1    0.0000
     11 C3         8.1164    5.4246    7.7764 C.3       1 RES1    0.0000
     12 C4         4.9553    5.7645    5.9855 C.3       1 RES1    0.0000
     13 C5         8.6658    6.7328    8.2708 C.3       1 RES1    0.0000
     14 C6         8.5585    3.0846    8.1995 C.2       1 RES1    0.0000
     15 C7         9.4710    2.2233    9.0057 C.3       1 RES1    0.0000
     16 H1         5.6222    3.9889    6.5749 H         1 RES1    0.0000
     17 H2         4.6123    5.3893    5.1196 H         1 RES1    0.0000
     18 H3         4.2096    5.8014    6.6472 H         1 RES1    0.0000
     19 H4         5.3105    6.6866    5.8317 H         1 RES1    0.0000
     20 H5         9.6647    6.7080    8.2367 H         1 RES1    0.0000
     21 H6         8.3250    7.4745    7.6896 H         1 RES1    0.0000
     22 H7         8.3714    6.8857    9.2173 H         1 RES1    0.0000
     23 H8         9.2992    1.2602    8.7837 H         1 RES1    0.0000
     24 H9        10.4201    2.4554    8.7941 H         1 RES1    0.0000
     25 H10        9.2988    2.3748    9.9811 H         1 RES1    0.0000
     26 H11        4.9362    5.7102    4.9854 Du        2 SUP2    0.0000
     27 H12        4.0795    5.4533    6.3478 Du        2 SUP2    0.0000
     28 H13        5.1238    6.7137    6.2653 Du        2 SUP2    0.0000
@<TRIPOS>BOND
     1    1    9 1
     2    2    9 2
     3    3   11 1
     4    4    8 2
     5    5    8 2
     6    6   14 2
     7    7    8 1
     8    9   10 1
     9   10    7 1
    10   11    1 1
    11   12   10 1
    12   13   11 1
    13   14    3 1
    14   15   14 1
    15   16   10 1
    16   17   12 1
    17   18   12 1
    18   19   12 1
    19   20   13 1
    20   21   13 1
    21   22   13 1
    22   23   15 1
    23   24   15 1
    24   25   15 1
    25    7   11 1
@<TRIPOS>SUBSTRUCTURE
     1 RES1 1
     2 SUP2 26

@<TRIPOS>CRYSIN
   7.0650    7.1510   10.4200  83.7700  82.9800  64.5500   2 1

