# MOL2 file generated by ConQuest
# Please check atom types

@<TRIPOS>MOLECULE
JIJCOU
    29    30     1
SMALL
NO_CHARGES
****
Generated from CSD

@<TRIPOS>ATOM
      1 O1         0.8542    1.7627    6.8672 O.2       1 RES1    0.0000
      2 O2        -1.7764    1.3834    1.0358 O.3       1 RES1    0.0000
      3 N1         1.7997    1.1722    6.3156 N.pl3     1 RES1    0.0000
      4 N2         1.8585    0.8139    5.1075 N.2       1 RES1    0.0000
      5 C1         0.8419    1.0363    4.2030 C.ar      1 RES1    0.0000
      6 C2         1.1275    0.5872    2.9117 C.ar      1 RES1    0.0000
      7 C3         0.2476    0.7227    1.9008 C.ar      1 RES1    0.0000
      8 C4        -0.9625    1.2829    2.1149 C.ar      1 RES1    0.0000
      9 C5        -1.2751    1.7446    3.3954 C.ar      1 RES1    0.0000
     10 C6        -0.3996    1.6175    4.4231 C.ar      1 RES1    0.0000
     11 C7         2.9504    0.9070    7.1180 C.ar      1 RES1    0.0000
     12 C8         4.0350    0.3198    6.5766 C.ar      1 RES1    0.0000
     13 C9         5.1422    0.1355    7.3607 C.ar      1 RES1    0.0000
     14 C10        5.1503    0.4897    8.6616 C.ar      1 RES1    0.0000
     15 C11        4.0332    1.0562    9.2255 C.ar      1 RES1    0.0000
     16 C12        2.9441    1.2770    8.4524 C.ar      1 RES1    0.0000
     17 C13       -2.9743    2.0090    1.1926 C.3       1 RES1    0.0000
     18 H1         2.1234    0.1108    2.7519 H         1 RES1    0.0000
     19 H2         0.4679    0.3324    1.0796 H         1 RES1    0.0000
     20 H3        -2.1572    1.9942    3.5457 H         1 RES1    0.0000
     21 H4        -0.6067    1.7726    5.3344 H         1 RES1    0.0000
     22 H5         3.9612    0.1108    5.6837 H         1 RES1    0.0000
     23 H6         5.8954   -0.2216    6.9962 H         1 RES1    0.0000
     24 H7         5.9054    0.4801    9.2188 H         1 RES1    0.0000
     25 H8         4.0064    1.1818   10.2137 H         1 RES1    0.0000
     26 H9         2.0736    1.6249    8.8166 H         1 RES1    0.0000
     27 H10       -2.9010    2.9544    1.6511 H         1 RES1    0.0000
     28 H11       -3.4761    2.0312    0.4128 H         1 RES1    0.0000
     29 H12       -3.6482    1.5511    1.7781 H         1 RES1    0.0000
@<TRIPOS>BOND
     1    1    3 1
     2    2    8 1
     3    3    4 2
     4    4    5 1
     5    5    6 ar
     6    6    7 ar
     7    7    8 ar
     8    8    9 ar
     9    9   10 ar
    10   10    5 ar
    11   11    3 1
    12   12   11 ar
    13   13   12 ar
    14   14   13 ar
    15   15   14 ar
    16   16   11 ar
    17   17    2 1
    18   18    6 1
    19   19    7 1
    20   20    9 1
    21   21   10 1
    22   22   12 1
    23   23   13 1
    24   24   14 1
    25   25   15 1
    26   26   16 1
    27   27   17 1
    28   28   17 1
    29   29   17 1
    30   15   16 ar
@<TRIPOS>SUBSTRUCTURE
     1 RES1 1

@<TRIPOS>CRYSIN
  13.3050    3.6930   11.1480  90.0000 108.3000  90.0000   4 1

