# MOL2 file generated by ConQuest
# Please check atom types

@<TRIPOS>MOLECULE
JIKGAL
    45    48     1
SMALL
NO_CHARGES
****
Generated from CSD

@<TRIPOS>ATOM
      1 O1         4.3318    7.9500   13.7448 O.3       1 RES1    0.0000
      2 C1         5.6189    8.3546   13.8658 C.ar      1 RES1    0.0000
      3 C2         5.8645    9.7122   13.8955 C.ar      1 RES1    0.0000
      4 C3         7.1697   10.1596   13.9826 C.ar      1 RES1    0.0000
      5 C4         8.1919    9.2420   14.0463 C.ar      1 RES1    0.0000
      6 C5         7.9567    7.8895   14.0590 C.ar      1 RES1    0.0000
      7 C6         6.6489    7.4155   13.9762 C.ar      1 RES1    0.0000
      8 C7         6.2754    6.0214   14.0654 C.2       1 RES1    0.0000
      9 C8         5.0322    5.5928   13.8403 C.2       1 RES1    0.0000
     10 C9         4.0023    6.5722   13.3116 C.3       1 RES1    0.0000
     11 N1         2.6647    6.3491   13.8127 N.3       1 RES1    0.0000
     12 C10        1.7692    6.9403   12.9081 C.ar      1 RES1    0.0000
     13 C11        0.4510    7.3172   13.1205 C.ar      1 RES1    0.0000
     14 C12       -0.2326    7.8832   12.0460 C.ar      1 RES1    0.0000
     15 C13        0.3606    8.0685   10.8357 C.ar      1 RES1    0.0000
     16 C14        1.6839    7.6941   10.6340 C.ar      1 RES1    0.0000
     17 C15        2.3817    7.1332   11.6808 C.ar      1 RES1    0.0000
     18 C16        3.8019    6.6088   11.7488 C.3       1 RES1    0.0000
     19 N2         9.5682    9.7311   14.1015 N.pl3     1 RES1    0.0000
     20 O2        10.4663    8.9143   14.2608 O.2       1 RES1    0.0000
     21 O3         9.7698   10.9260   13.9720 O.2       1 RES1    0.0000
     22 C17        2.4231    6.5017   15.2396 C.3       1 RES1    0.0000
     23 C18        4.8086    7.4962   11.0141 C.3       1 RES1    0.0000
     24 C19        3.8304    5.1933   11.1436 C.3       1 RES1    0.0000
     25 C20        4.6264    4.1672   14.0994 C.3       1 RES1    0.0000
     26 H1         5.1382   10.3386   13.8573 H         1 RES1    0.0000
     27 H2         7.3596   11.1012   13.9975 H         1 RES1    0.0000
     28 H3         8.6894    7.2731   14.1227 H         1 RES1    0.0000
     29 H4         6.9500    5.3773   14.2926 H         1 RES1    0.0000
     30 H5         0.0271    7.1899   13.9720 H         1 RES1    0.0000
     31 H6        -1.1463    8.1542   12.1650 H         1 RES1    0.0000
     32 H7        -0.1409    8.4567   10.1138 H         1 RES1    0.0000
     33 H8         2.1039    7.8252    9.7804 H         1 RES1    0.0000
     34 H9         3.1636    6.1033   15.7004 H         1 RES1    0.0000
     35 H10        1.6115    6.0504   15.4860 H         1 RES1    0.0000
     36 H11        2.3584    7.4294   15.4775 H         1 RES1    0.0000
     37 H12        5.6978    7.1861   11.2073 H         1 RES1    0.0000
     38 H13        4.7130    8.4000   11.3198 H         1 RES1    0.0000
     39 H14        4.6549    7.4596   10.0692 H         1 RES1    0.0000
     40 H15        4.7091    4.8176   11.2264 H         1 RES1    0.0000
     41 H16        3.6003    5.2689   10.2157 H         1 RES1    0.0000
     42 H17        3.1959    4.6223   11.5853 H         1 RES1    0.0000
     43 H18        4.2555    3.7727   13.3073 H         1 RES1    0.0000
     44 H19        3.9661    4.1697   14.7959 H         1 RES1    0.0000
     45 H20        5.3889    3.6567   14.3839 H         1 RES1    0.0000
@<TRIPOS>BOND
     1    1    2 1
     2    2    3 ar
     3    3    4 ar
     4    4    5 ar
     5    5    6 ar
     6    6    7 ar
     7    7    2 ar
     8    8    7 1
     9    9    8 2
    10   10    1 1
    11   11   10 1
    12   12   11 1
    13   13   12 ar
    14   14   13 ar
    15   15   14 ar
    16   16   15 ar
    17   17   12 ar
    18   18   10 1
    19   19    5 1
    20   20   19 2
    21   21   19 2
    22   22   11 1
    23   23   18 1
    24   24   18 1
    25   25    9 1
    26   26    3 1
    27   27    4 1
    28   28    6 1
    29   29    8 1
    30   30   13 1
    31   31   14 1
    32   32   15 1
    33   33   16 1
    34   34   22 1
    35   35   22 1
    36   36   22 1
    37   37   23 1
    38   38   23 1
    39   39   23 1
    40   40   24 1
    41   41   24 1
    42   42   24 1
    43   43   25 1
    44   44   25 1
    45   45   25 1
    46    9   10 1
    47   16   17 ar
    48   17   18 1
@<TRIPOS>SUBSTRUCTURE
     1 RES1 1

@<TRIPOS>CRYSIN
  12.9230   12.6050   21.2340  90.0000  90.0000  90.0000  60 1

