# MOL2 file generated by ConQuest
# Please check atom types

@<TRIPOS>MOLECULE
JILMUP
    27    28     1
SMALL
NO_CHARGES
****
Generated from CSD

@<TRIPOS>ATOM
      1 O1         6.3384    5.6750    8.2127 O.2       1 RES1    0.0000
      2 O2         3.8869    3.2669   12.4436 O.2       1 RES1    0.0000
      3 O3         2.5540    2.5705   10.8858 O.2       1 RES1    0.0000
      4 N1         4.3938    5.2184   10.3390 N.3       1 RES1    0.0000
      5 H1         4.2877    6.0203   10.7234 H         1 RES1    0.0000
      6 H2         4.2160    5.4165    9.4751 H         1 RES1    0.0000
      7 N2         7.8154    5.8128    9.9653 N.am      1 RES1    0.0000
      8 H3         8.4822    6.2413    9.4452 H         1 RES1    0.0000
      9 N3         3.6675    2.7993   11.3373 N.pl3     1 RES1    0.0000
     10 C1         5.7784    4.7524   10.4271 C.3       1 RES1    0.0000
     11 C2         6.6703    5.4659    9.3831 C.2       1 RES1    0.0000
     12 C3         7.9244    5.4327   11.3647 C.3       1 RES1    0.0000
     13 H4         8.3029    6.1691   11.9079 H         1 RES1    0.0000
     14 H5         8.4874    4.6259   11.4744 H         1 RES1    0.0000
     15 C4         6.4674    5.1504   11.7494 C.3       1 RES1    0.0000
     16 H6         6.0442    5.9573   12.1368 H         1 RES1    0.0000
     17 H7         6.4150    4.4140   12.4088 H         1 RES1    0.0000
     18 C5         5.8436    3.2431   10.1794 C.ar      1 RES1    0.0000
     19 C6         4.8226    2.3579   10.5338 C.ar      1 RES1    0.0000
     20 C7         4.8348    1.0161   10.2422 C.ar      1 RES1    0.0000
     21 H8         4.0938    0.4662   10.4673 H         1 RES1    0.0000
     22 C8         5.9490    0.4762    9.6127 C.ar      1 RES1    0.0000
     23 H9         5.9758   -0.4489    9.3980 H         1 RES1    0.0000
     24 C9         7.0195    1.2942    9.3008 C.ar      1 RES1    0.0000
     25 H10        7.8041    0.9224    8.9153 H         1 RES1    0.0000
     26 C10        6.9500    2.6649    9.5511 C.ar      1 RES1    0.0000
     27 H11        7.6740    3.2200    9.2873 H         1 RES1    0.0000
@<TRIPOS>BOND
     1    1   11 2
     2    2    9 2
     3    3    9 2
     4    4    5 1
     5    6    4 1
     6    7    8 1
     7    9   19 1
     8   10    4 1
     9   11    7 1
    10   12    7 1
    11   13   12 1
    12   14   12 1
    13   15   10 1
    14   16   15 1
    15   17   15 1
    16   18   10 1
    17   19   18 ar
    18   20   19 ar
    19   21   20 1
    20   22   20 ar
    21   23   22 1
    22   24   22 ar
    23   25   24 1
    24   26   18 ar
    25   27   26 1
    26   10   11 1
    27   12   15 1
    28   24   26 ar
@<TRIPOS>SUBSTRUCTURE
     1 RES1 1

@<TRIPOS>CRYSIN
   7.1701    8.5032   16.5997  90.0000  90.0000  90.0000  19 1

