# MOL2 file generated by ConQuest
# Please check atom types

@<TRIPOS>MOLECULE
JILXAG
    52    55     1
SMALL
NO_CHARGES
****
Generated from CSD

@<TRIPOS>ATOM
      1 C1         9.8195   12.1124    3.7615 C.3       1 RES1    0.0000
      2 H1        10.1722   11.3184    4.2144 H         1 RES1    0.0000
      3 C2         8.6352   11.6705    2.8838 C.3       1 RES1    0.0000
      4 H2         8.3152   12.4523    2.3882 H         1 RES1    0.0000
      5 C3         7.6089   11.3419    3.9645 C.3       1 RES1    0.0000
      6 H3         7.7666   10.4286    4.2837 H         1 RES1    0.0000
      7 C4         7.9257   12.3605    5.1450 C.3       1 RES1    0.0000
      8 C5        10.9653   12.7980    3.0656 C.ar      1 RES1    0.0000
      9 C6        12.2553   12.4350    3.3809 C.ar      1 RES1    0.0000
     10 H4        12.4036   11.7428    3.9857 H         1 RES1    0.0000
     11 C7        13.3332   13.0848    2.8130 C.ar      1 RES1    0.0000
     12 H5        14.1989   12.8276    3.0372 H         1 RES1    0.0000
     13 C8        13.1405   14.0940    1.9294 C.ar      1 RES1    0.0000
     14 H6        13.8678   14.5343    1.5533 H         1 RES1    0.0000
     15 C9        11.8723   14.4587    1.5990 C.ar      1 RES1    0.0000
     16 H7        11.7338   15.1469    0.9883 H         1 RES1    0.0000
     17 C10       10.7858   13.8142    2.1653 C.ar      1 RES1    0.0000
     18 H8         9.9233   14.0741    1.9324 H         1 RES1    0.0000
     19 C11        8.8974   10.5606    1.8911 C.ar      1 RES1    0.0000
     20 C12        8.4007   10.6408    0.6225 C.ar      1 RES1    0.0000
     21 H9         7.8900   11.3794    0.3776 H         1 RES1    0.0000
     22 C13        8.6420    9.6462   -0.3061 C.ar      1 RES1    0.0000
     23 H10        8.2698    9.7032   -1.1565 H         1 RES1    0.0000
     24 C14        9.4309    8.5720    0.0280 C.ar      1 RES1    0.0000
     25 H11        9.6495    7.9315   -0.6107 H         1 RES1    0.0000
     26 C15        9.8822    8.4567    1.2907 C.ar      1 RES1    0.0000
     27 H12       10.3713    7.7048    1.5400 H         1 RES1    0.0000
     28 C16        9.6246    9.4393    2.2127 C.ar      1 RES1    0.0000
     29 H13        9.9525    9.3452    3.0785 H         1 RES1    0.0000
     30 C17        8.0512   11.6140    6.4850 C.ar      1 RES1    0.0000
     31 C18        9.0673   11.9523    7.3661 C.ar      1 RES1    0.0000
     32 H14        9.6636   12.6313    7.1454 H         1 RES1    0.0000
     33 C19        9.1994   11.2800    8.5817 C.ar      1 RES1    0.0000
     34 H15        9.8789   11.5174    9.1707 H         1 RES1    0.0000
     35 C20        8.3380   10.2748    8.9092 C.ar      1 RES1    0.0000
     36 H16        8.4440    9.8133    9.7091 H         1 RES1    0.0000
     37 C21        7.3088    9.9419    8.0501 C.ar      1 RES1    0.0000
     38 H17        6.7115    9.2683    8.2812 H         1 RES1    0.0000
     39 C22        7.1660   10.6115    6.8464 C.ar      1 RES1    0.0000
     40 H18        6.4691   10.3848    6.2736 H         1 RES1    0.0000
     41 C23        6.8825   13.4866    5.2329 C.2       1 RES1    0.0000
     42 C24        4.7366   14.1099    5.9447 C.3       1 RES1    0.0000
     43 H19        5.0331   14.7915    6.5509 H         1 RES1    0.0000
     44 H20        3.9358   13.7041    6.2839 H         1 RES1    0.0000
     45 H21        4.5580   14.5011    5.0861 H         1 RES1    0.0000
     46 N1         9.1995   12.9738    4.7748 N.3       1 RES1    0.0000
     47 H22        9.0251   13.7585    4.4489 H         1 RES1    0.0000
     48 N2         6.2048   11.4357    3.4367 N.pl3     1 RES1    0.0000
     49 O1         5.8999   12.4130    2.7770 O.2       1 RES1    0.0000
     50 O2         5.4530   10.5228    3.7055 O.2       1 RES1    0.0000
     51 O3         7.0967   14.5863    4.8079 O.2       1 RES1    0.0000
     52 O4         5.7740   13.0952    5.8085 O.3       1 RES1    0.0000
@<TRIPOS>BOND
     1    1    2 1
     2    3    1 1
     3    4    3 1
     4    5    3 1
     5    6    5 1
     6    7    5 1
     7    8    1 1
     8    9    8 ar
     9   10    9 1
    10   11    9 ar
    11   12   11 1
    12   13   11 ar
    13   14   13 1
    14   15   13 ar
    15   16   15 1
    16   17    8 ar
    17   18   17 1
    18   19    3 1
    19   20   19 ar
    20   21   20 1
    21   22   20 ar
    22   23   22 1
    23   24   22 ar
    24   25   24 1
    25   26   24 ar
    26   27   26 1
    27   28   19 ar
    28   29   28 1
    29   30    7 1
    30   31   30 ar
    31   32   31 1
    32   33   31 ar
    33   34   33 1
    34   35   33 ar
    35   36   35 1
    36   37   35 ar
    37   38   37 1
    38   39   30 ar
    39   40   39 1
    40   41    7 1
    41   42   43 1
    42   44   42 1
    43   45   42 1
    44   46    1 1
    45   47   46 1
    46   48    5 1
    47   49   48 2
    48   50   48 2
    49   51   41 2
    50   52   41 1
    51    7   46 1
    52   15   17 ar
    53   26   28 ar
    54   37   39 ar
    55   42   52 1
@<TRIPOS>SUBSTRUCTURE
     1 RES1 1

@<TRIPOS>CRYSIN
  10.8215   13.2612   14.7510  90.0000  90.0000  90.0000  19 1

