# MOL2 file generated by ConQuest
# Please check atom types

@<TRIPOS>MOLECULE
JIMCEN
    41    42     1
SMALL
NO_CHARGES
****
Generated from CSD

@<TRIPOS>ATOM
      1 O1        10.4409    0.1301    8.7303 O.2       1 RES1    0.0000
      2 N1         9.2875    0.2807    9.1970 N.pl3     1 RES1    0.0000
      3 N2         8.4433    1.0938    8.7481 N.2       1 RES1    0.0000
      4 C1         8.8980   -0.5677   10.3422 C.2       1 RES1    0.0000
      5 C2         9.8295   -1.3654   10.8268 C.2       1 RES1    0.0000
      6 C3         8.9545    1.8642    7.6246 C.3       1 RES1    0.0000
      7 C4         7.9005    2.7834    7.0748 C.3       1 RES1    0.0000
      8 C5         8.3772    3.5177    5.8426 C.3       1 RES1    0.0000
      9 C6         7.3891    4.5026    5.2987 C.3       1 RES1    0.0000
     10 C7         7.4926   -0.4154   10.8090 C.ar      1 RES1    0.0000
     11 C8         7.0834    0.6950   11.5052 C.ar      1 RES1    0.0000
     12 C9         5.7812    0.7760   11.9898 C.ar      1 RES1    0.0000
     13 C10        4.8987   -0.2556   11.7604 C.ar      1 RES1    0.0000
     14 C11        5.3035   -1.3706   11.0721 C.ar      1 RES1    0.0000
     15 C12        6.6115   -1.4642   10.5994 C.ar      1 RES1    0.0000
     16 C13        9.7628   -2.2892   11.9601 C.ar      1 RES1    0.0000
     17 C14       10.6160   -3.3859   11.9601 C.ar      1 RES1    0.0000
     18 C15       10.6086   -4.3126   12.9827 C.ar      1 RES1    0.0000
     19 C16        9.7427   -4.1580   14.0448 C.ar      1 RES1    0.0000
     20 C17        8.9070   -3.0539   14.0804 C.ar      1 RES1    0.0000
     21 C18        8.9010   -2.1272   13.0499 C.ar      1 RES1    0.0000
     22 H1        10.6648   -1.3346   10.3759 H         1 RES1    0.0000
     23 H2         7.6897    1.4105   11.6575 H         1 RES1    0.0000
     24 H3         5.5003    1.5423   12.4763 H         1 RES1    0.0000
     25 H4         4.0064   -0.1940   12.0788 H         1 RES1    0.0000
     26 H5         4.6893   -2.0804   10.9178 H         1 RES1    0.0000
     27 H6         6.8953   -2.2436   10.1326 H         1 RES1    0.0000
     28 H7        11.2225   -3.4989   11.2362 H         1 RES1    0.0000
     29 H8        11.1975   -5.0567   12.9550 H         1 RES1    0.0000
     30 H9         9.7193   -4.8005   14.7430 H         1 RES1    0.0000
     31 H10        8.3248   -2.9312   14.8201 H         1 RES1    0.0000
     32 H11        8.3136   -1.3809   13.0835 H         1 RES1    0.0000
     33 H12        9.2315    1.2644    6.9383 H         1 RES1    0.0000
     34 H13        9.6982    2.3788    7.9114 H         1 RES1    0.0000
     35 H14        7.6716    3.4202    7.7394 H         1 RES1    0.0000
     36 H15        7.1339    2.2710    6.8474 H         1 RES1    0.0000
     37 H16        8.5633    2.8764    5.1662 H         1 RES1    0.0000
     38 H17        9.1741    3.9851    6.0621 H         1 RES1    0.0000
     39 H18        7.8473    5.0230    4.6381 H         1 RES1    0.0000
     40 H19        7.0703    5.0641    5.9949 H         1 RES1    0.0000
     41 H20        6.6566    4.0501    4.9011 H         1 RES1    0.0000
@<TRIPOS>BOND
     1    1    2 1
     2    2    3 2
     3    3    6 1
     4    4    2 1
     5    5    4 2
     6    6    7 1
     7    7    8 1
     8    8    9 1
     9    9   39 1
    10   10    4 1
    11   11   10 ar
    12   12   11 ar
    13   13   12 ar
    14   14   13 ar
    15   15   10 ar
    16   16    5 1
    17   17   16 ar
    18   18   17 ar
    19   19   18 ar
    20   20   19 ar
    21   21   16 ar
    22   22    5 1
    23   23   11 1
    24   24   12 1
    25   25   13 1
    26   26   14 1
    27   27   15 1
    28   28   17 1
    29   29   18 1
    30   30   19 1
    31   31   20 1
    32   32   21 1
    33   33    6 1
    34   34    6 1
    35   35    7 1
    36   36    7 1
    37   37    8 1
    38   38    8 1
    39   40    9 1
    40   41    9 1
    41   14   15 ar
    42   20   21 ar
@<TRIPOS>SUBSTRUCTURE
     1 RES1 1

@<TRIPOS>CRYSIN
  13.6950    5.7060   20.1710  90.0000 101.3200  90.0000  14 1

