# MOL2 file generated by ConQuest
# Please check atom types

@<TRIPOS>MOLECULE
JIMHIX
    43    46     1
SMALL
NO_CHARGES
****
Generated from CSD

@<TRIPOS>ATOM
      1 N1         4.5253    7.9736   29.5947 N.pl3     1 RES1    0.0000
      2 N2         8.3148    9.6786   26.9811 N.pl3     1 RES1    0.0000
      3 O1         7.6465   10.0106   32.9744 O.3       1 RES1    0.0000
      4 O2         9.4387   10.7510   31.7961 O.2       1 RES1    0.0000
      5 O3         4.0519    7.7487   30.7035 O.2       1 RES1    0.0000
      6 O4         3.9961    7.6311   28.5387 O.2       1 RES1    0.0000
      7 O5         7.7932    9.2137   25.9787 O.2       1 RES1    0.0000
      8 O6         9.3949   10.2598   26.9858 O.2       1 RES1    0.0000
      9 C1         7.3284    7.7600   35.8038 C.3       1 RES1    0.0000
     10 H1         6.9186    6.8705   35.8333 H         1 RES1    0.0000
     11 H2         6.6449    8.4271   35.5828 H         1 RES1    0.0000
     12 H3         7.7175    7.9687   36.6791 H         1 RES1    0.0000
     13 C2         8.4091    7.7819   34.7540 C.3       1 RES1    0.0000
     14 C3         9.1406    6.4757   34.5491 C.3       1 RES1    0.0000
     15 H4        10.1058    6.5157   34.3331 H         1 RES1    0.0000
     16 H5         8.8695    5.7025   35.1053 H         1 RES1    0.0000
     17 C4         8.1661    6.9709   33.5099 C.3       1 RES1    0.0000
     18 H6         8.5353    7.3125   32.6561 H         1 RES1    0.0000
     19 H7         7.2990    6.4993   33.4283 H         1 RES1    0.0000
     20 C5         9.1569    9.0930   34.6423 C.3       1 RES1    0.0000
     21 C6        10.5993    9.1268   34.2058 C.3       1 RES1    0.0000
     22 H8        10.9054    9.9128   33.6876 H         1 RES1    0.0000
     23 H9        11.0235    8.2691   33.9529 H         1 RES1    0.0000
     24 C7        10.2545    9.3347   35.6585 C.3       1 RES1    0.0000
     25 H10       10.3475   10.2486   36.0278 H         1 RES1    0.0000
     26 H11       10.4656    8.6040   36.2931 H         1 RES1    0.0000
     27 C8         8.3098   10.2611   34.2376 C.3       1 RES1    0.0000
     28 C9         8.6284   11.6932   34.5170 C.3       1 RES1    0.0000
     29 H12        8.4322   12.3570   33.8085 H         1 RES1    0.0000
     30 H13        9.4311   11.8896   35.0640 H         1 RES1    0.0000
     31 C10        7.4620   11.0243   35.1975 C.3       1 RES1    0.0000
     32 H14        7.5489   10.8113   36.1604 H         1 RES1    0.0000
     33 H15        6.5500   11.2787   34.9078 H         1 RES1    0.0000
     34 C11        8.3416   10.2513   31.8580 C.2       1 RES1    0.0000
     35 C12        7.5989    9.8024   30.6381 C.ar      1 RES1    0.0000
     36 C13        6.3732    9.1539   30.7011 C.ar      1 RES1    0.0000
     37 H16        5.9359    9.0215   31.5332 H         1 RES1    0.0000
     38 C14        5.7991    8.7032   29.5205 C.ar      1 RES1    0.0000
     39 C15        6.3932    8.8641   28.2829 C.ar      1 RES1    0.0000
     40 H17        5.9853    8.5432   27.4865 H         1 RES1    0.0000
     41 C16        7.6145    9.5168   28.2637 C.ar      1 RES1    0.0000
     42 C17        8.2211    9.9939   29.4073 C.ar      1 RES1    0.0000
     43 H18        9.0538   10.4483   29.3551 H         1 RES1    0.0000
@<TRIPOS>BOND
     1    1    5 2
     2    2    7 2
     3    3   27 1
     4    4   34 2
     5    6    1 2
     6    8    2 2
     7    9   10 1
     8   11    9 1
     9   12    9 1
    10   13    9 1
    11   14   13 1
    12   15   14 1
    13   16   14 1
    14   17   13 1
    15   18   17 1
    16   19   17 1
    17   20   13 1
    18   21   20 1
    19   22   21 1
    20   23   21 1
    21   24   20 1
    22   25   24 1
    23   26   24 1
    24   27   20 1
    25   28   27 1
    26   29   28 1
    27   30   28 1
    28   31   27 1
    29   32   31 1
    30   33   31 1
    31   34    3 1
    32   35   34 1
    33   36   35 ar
    34   37   36 1
    35   38    1 1
    36   39   38 ar
    37   40   39 1
    38   41    2 1
    39   42   35 ar
    40   43   42 1
    41   14   17 1
    42   21   24 1
    43   28   31 1
    44   36   38 ar
    45   39   41 ar
    46   41   42 ar
@<TRIPOS>SUBSTRUCTURE
     1 RES1 1

@<TRIPOS>CRYSIN
   6.2470    9.0760   29.4730  90.0000  90.0000  90.0000  19 1

