# MOL2 file generated by ConQuest
# Please check atom types

@<TRIPOS>MOLECULE
JINSEE
    21    22     1
SMALL
NO_CHARGES
****
Generated from CSD

@<TRIPOS>ATOM
      1 C1         3.5894    6.8772    0.9720 C.ar      1 RES1    0.0000
      2 C2         4.8122    6.4071    0.4704 C.ar      1 RES1    0.0000
      3 C3         5.9798    7.1206    0.6506 C.ar      1 RES1    0.0000
      4 C4         5.9206    8.3118    1.3339 C.ar      1 RES1    0.0000
      5 C5         4.7472    8.8116    1.8631 C.ar      1 RES1    0.0000
      6 C6         3.5750    8.0795    1.7014 C.ar      1 RES1    0.0000
      7 C7         2.3639    6.1135    0.6300 C.ar      1 RES1    0.0000
      8 C8         1.3301    6.7100   -0.0887 C.ar      1 RES1    0.0000
      9 C9         0.2020    5.9927   -0.4385 C.ar      1 RES1    0.0000
     10 C10        0.1173    4.6827   -0.0319 C.ar      1 RES1    0.0000
     11 C11        1.1360    4.0379    0.6421 C.ar      1 RES1    0.0000
     12 C12        2.2671    4.7663    0.9550 C.ar      1 RES1    0.0000
     13 C13        2.3673    8.5979    2.4215 C.2       1 RES1    0.0000
     14 N1        -1.1273    3.9320   -0.3044 N.pl3     1 RES1    0.0000
     15 N2         7.1655    9.0829    1.5134 N.pl3     1 RES1    0.0000
     16 O1        -2.0042    4.4857   -0.9543 O.2       1 RES1    0.0000
     17 O2        -1.2201    2.7947    0.1490 O.2       1 RES1    0.0000
     18 O3         8.1966    8.6314    1.0330 O.2       1 RES1    0.0000
     19 O4         7.1113   10.1328    2.1285 O.2       1 RES1    0.0000
     20 O5         2.2172    9.8150    2.5691 O.co2     1 RES1    0.0000
     21 O6         1.5757    7.7023    2.9075 O.co2     1 RES1    0.0000
@<TRIPOS>BOND
     1    1    2 ar
     2    2    3 ar
     3    3    4 ar
     4    4    5 ar
     5    5    6 ar
     6    6    1 ar
     7    7    1 1
     8    8    7 ar
     9    9    8 ar
    10   10    9 ar
    11   11   10 ar
    12   12    7 ar
    13   13    6 1
    14   14   10 1
    15   15    4 1
    16   16   14 2
    17   17   14 2
    18   18   15 2
    19   19   15 2
    20   20   13 1
    21   21   13 2
    22   11   12 ar
@<TRIPOS>SUBSTRUCTURE
     1 RES1 1

