# MOL2 file generated by ConQuest
# Please check atom types

@<TRIPOS>MOLECULE
JINYEK
    38    39     1
SMALL
NO_CHARGES
****
Generated from CSD

@<TRIPOS>ATOM
      1 N1         4.9200    0.6032   11.1140 N.3       1 RES1    0.0000
      2 C1         3.5887    0.8724   11.6626 C.3       1 RES1    0.0000
      3 N2         5.5628   -0.3139   11.8577 N.2       1 RES1    0.0000
      4 N3         6.6715   -0.7759   11.4972 N.2       1 RES1    0.0000
      5 N4         7.2269   -0.3285   10.2799 N.pl3     1 RES1    0.0000
      6 C2         8.5640   -0.8870   10.0763 C.3       1 RES1    0.0000
      7 C3         6.5688    0.4012    9.3666 C.2       1 RES1    0.0000
      8 C4         5.0676    0.5718    9.6295 C.3       1 RES1    0.0000
      9 N5         6.9881    0.8360    8.2383 N.2       1 RES1    0.0000
     10 C5         8.2579    0.8255    7.6997 C.ar      1 RES1    0.0000
     11 C6         9.2594    1.7265    8.1125 C.ar      1 RES1    0.0000
     12 C7        10.4368    1.8551    7.4141 C.ar      1 RES1    0.0000
     13 C8        10.6249    1.0967    6.2590 C.ar      1 RES1    0.0000
     14 N6        11.8295    1.2855    5.4644 N.pl3     1 RES1    0.0000
     15 C9         9.6927    0.1992    5.8334 C.ar      1 RES1    0.0000
     16 C10        8.5388    0.0650    6.5672 C.ar      1 RES1    0.0000
     17 N7         7.5261   -0.8912    6.0808 N.pl3     1 RES1    0.0000
     18 C11        4.3515   -0.6417    9.0428 C.3       1 RES1    0.0000
     19 C12        4.5699    1.8768    9.0583 C.3       1 RES1    0.0000
     20 O1        11.9261    0.7053    4.3970 O.2       1 RES1    0.0000
     21 O2        12.7187    2.0089    5.9183 O.2       1 RES1    0.0000
     22 O3         6.9948   -1.6105    6.9263 O.2       1 RES1    0.0000
     23 O4         7.2937   -0.9206    4.8876 O.2       1 RES1    0.0000
     24 H1         3.1657    1.5308   11.1070 H         1 RES1    0.0000
     25 H2         3.6619    1.2079   12.5590 H         1 RES1    0.0000
     26 H3         3.0629    0.0692   11.6640 H         1 RES1    0.0000
     27 H4         8.9229   -0.5711    9.2436 H         1 RES1    0.0000
     28 H5         8.5096   -1.8454   10.0579 H         1 RES1    0.0000
     29 H6         9.1365   -0.6123   10.7959 H         1 RES1    0.0000
     30 H7         9.1251    2.2515    8.9042 H         1 RES1    0.0000
     31 H8        11.1148    2.4661    7.7110 H         1 RES1    0.0000
     32 H9         9.8387   -0.3278    5.0459 H         1 RES1    0.0000
     33 H10        3.4067   -0.5522    9.1870 H         1 RES1    0.0000
     34 H11        4.6667   -1.4378    9.4768 H         1 RES1    0.0000
     35 H12        4.5280   -0.6997    8.0998 H         1 RES1    0.0000
     36 H13        4.6507    1.8740    8.1012 H         1 RES1    0.0000
     37 H14        5.0997    2.5891    9.4231 H         1 RES1    0.0000
     38 H15        3.6495    2.0061    9.3015 H         1 RES1    0.0000
@<TRIPOS>BOND
     1    1    2 1
     2    2   24 1
     3    3    1 1
     4    4    3 2
     5    5    4 1
     6    6    5 1
     7    7    5 1
     8    8    1 1
     9    9    7 2
    10   10    9 1
    11   11   10 ar
    12   12   11 ar
    13   13   12 ar
    14   14   13 1
    15   15   13 ar
    16   16   10 ar
    17   17   16 1
    18   18    8 1
    19   19    8 1
    20   20   14 2
    21   21   14 2
    22   22   17 2
    23   23   17 2
    24   25    2 1
    25   26    2 1
    26   27    6 1
    27   28    6 1
    28   29    6 1
    29   30   11 1
    30   31   12 1
    31   32   15 1
    32   33   18 1
    33   34   18 1
    34   35   18 1
    35   36   19 1
    36   37   19 1
    37   38   19 1
    38    7    8 1
    39   15   16 ar
@<TRIPOS>SUBSTRUCTURE
     1 RES1 1

@<TRIPOS>CRYSIN
  15.6270    6.9900   15.9800  90.0000 117.7800  90.0000  14 1

