# MOL2 file generated by ConQuest
# Please check atom types

@<TRIPOS>MOLECULE
JIPDOC
    58    61     1
SMALL
NO_CHARGES
****
Generated from CSD

@<TRIPOS>ATOM
      1 O1         2.6700    3.8173    1.0283 O.3       1 RES1    0.0000
      2 H1         3.4680    3.5347    0.4256 H         1 RES1    0.0000
      3 O2         0.1619    9.7633    3.3942 O.3       1 RES1    0.0000
      4 O3        -0.0743    8.1086    5.0212 O.3       1 RES1    0.0000
      5 O4         3.4949    6.4045    4.0796 O.3       1 RES1    0.0000
      6 N1         2.5704    5.1990    0.6905 N.2       1 RES1    0.0000
      7 C1         2.3672    9.3347    4.2741 C.3       1 RES1    0.0000
      8 H2         2.3013    9.1784    5.2594 H         1 RES1    0.0000
      9 C2         3.8327    9.6458    3.9401 C.3       1 RES1    0.0000
     10 H3         4.0480   10.5513    4.2769 H         1 RES1    0.0000
     11 H4         4.4097    9.0023    4.4234 H         1 RES1    0.0000
     12 C3         4.1776    9.5860    2.4537 C.3       1 RES1    0.0000
     13 H5         5.1595    9.6492    2.3436 H         1 RES1    0.0000
     14 H6         3.7690   10.3607    1.9932 H         1 RES1    0.0000
     15 C4         3.6777    8.2890    1.8016 C.3       1 RES1    0.0000
     16 H7         3.8658    8.3015    0.8296 H         1 RES1    0.0000
     17 H8         4.1368    7.5080    2.2009 H         1 RES1    0.0000
     18 C5         2.1682    8.1949    2.0450 C.3       1 RES1    0.0000
     19 H9         1.8349    9.1016    1.7867 H         1 RES1    0.0000
     20 C6         1.3770    7.2445    1.1188 C.3       1 RES1    0.0000
     21 H10        1.6530    7.4576    0.1810 H         1 RES1    0.0000
     22 C7        -0.1218    7.6172    1.2408 C.3       1 RES1    0.0000
     23 H11       -0.2082    8.5635    0.9290 H         1 RES1    0.0000
     24 C8        -0.5948    7.5890    2.6987 C.3       1 RES1    0.0000
     25 H12       -1.5145    7.9534    2.7400 H         1 RES1    0.0000
     26 H13       -0.6315    6.6471    2.9999 H         1 RES1    0.0000
     27 C9         0.2824    8.3741    3.6645 C.3       1 RES1    0.0000
     28 C10        1.7974    8.0902    3.5529 C.3       1 RES1    0.0000
     29 C11        1.3463   10.4277    3.8960 C.3       1 RES1    0.0000
     30 H14        1.1209   10.9751    4.6898 H         1 RES1    0.0000
     31 H15        1.7242   11.0236    3.2013 H         1 RES1    0.0000
     32 C12        1.6383    5.7790    1.3272 C.2       1 RES1    0.0000
     33 H16        1.1036    5.2850    1.9384 H         1 RES1    0.0000
     34 C13       -1.4219    8.4115    5.3388 C.3       1 RES1    0.0000
     35 H17       -1.6595    9.2839    4.9587 H         1 RES1    0.0000
     36 H18       -1.5297    8.4402    6.3121 H         1 RES1    0.0000
     37 H19       -2.0094    7.7220    4.9650 H         1 RES1    0.0000
     38 C14       -1.0343    6.7795    0.3525 C.3       1 RES1    0.0000
     39 H20       -0.9441    5.8331    0.5913 H         1 RES1    0.0000
     40 H21       -0.7827    6.9052   -0.5862 H         1 RES1    0.0000
     41 H22       -1.9644    7.0619    0.4817 H         1 RES1    0.0000
     42 C15        2.1256    6.7821    4.2722 C.3       1 RES1    0.0000
     43 H23        1.9483    6.8875    5.2403 H         1 RES1    0.0000
     44 H24        1.5364    6.0638    3.9302 H         1 RES1    0.0000
     45 C16        3.7645    5.1467    4.6866 C.3       1 RES1    0.0000
     46 H25        3.1331    4.4670    4.3419 H         1 RES1    0.0000
     47 H26        3.6423    5.2149    5.6660 H         1 RES1    0.0000
     48 C17        5.1773    4.7318    4.3788 C.ar      1 RES1    0.0000
     49 C18        6.1737    4.7945    5.3340 C.ar      1 RES1    0.0000
     50 H27        5.9813    5.1463    6.1948 H         1 RES1    0.0000
     51 C19        7.4586    4.3448    5.0405 C.ar      1 RES1    0.0000
     52 H28        8.1416    4.3960    5.6991 H         1 RES1    0.0000
     53 C20        7.7387    3.8274    3.7990 C.ar      1 RES1    0.0000
     54 H29        8.6066    3.4909    3.6078 H         1 RES1    0.0000
     55 C21        6.7584    3.7979    2.8301 C.ar      1 RES1    0.0000
     56 H30        6.9585    3.4652    1.9626 H         1 RES1    0.0000
     57 C22        5.4832    4.2512    3.1181 C.ar      1 RES1    0.0000
     58 H31        4.8131    4.2328    2.4456 H         1 RES1    0.0000
@<TRIPOS>BOND
     1    1    2 1
     2    3   27 1
     3    4   27 1
     4    5   42 1
     5    6    1 1
     6    7    8 1
     7    9    7 1
     8   10    9 1
     9   11    9 1
    10   12    9 1
    11   13   12 1
    12   14   12 1
    13   15   12 1
    14   16   15 1
    15   17   15 1
    16   18   15 1
    17   19   18 1
    18   20   18 1
    19   21   20 1
    20   22   20 1
    21   23   22 1
    22   24   22 1
    23   25   24 1
    24   26   24 1
    25   27   24 1
    26   28    7 1
    27   29    3 1
    28   30   29 1
    29   31   29 1
    30   32    6 2
    31   33   32 1
    32   34    4 1
    33   35   34 1
    34   36   34 1
    35   37   34 1
    36   38   22 1
    37   39   38 1
    38   40   38 1
    39   41   38 1
    40   42   28 1
    41   43   42 1
    42   44   42 1
    43   45    5 1
    44   46   45 1
    45   47   45 1
    46   48   45 1
    47   49   48 ar
    48   50   49 1
    49   51   49 ar
    50   52   51 1
    51   53   51 ar
    52   54   53 1
    53   55   53 ar
    54   56   55 1
    55   57   48 ar
    56   58   57 1
    57    7   29 1
    58   18   28 1
    59   20   32 1
    60   27   28 1
    61   55   57 ar
@<TRIPOS>SUBSTRUCTURE
     1 RES1 1

@<TRIPOS>CRYSIN
   8.3990    9.0280   13.4630  96.8150 106.6310  95.8280   2 1

