# MOL2 file generated by ConQuest
# Please check atom types

@<TRIPOS>MOLECULE
JIPPUU
    53    56     1
SMALL
USER_CHARGES
****
Generated from CSD

@<TRIPOS>ATOM
      1 C1         3.0843   11.4263   10.0740 C.3       1 RES1    0.0000
      2 H1         2.1684   11.7141    9.8310 H         1 RES1    0.0000
      3 C2         4.0513   12.5753    9.8462 C.3       1 RES1    0.0000
      4 H2         4.5731   12.4908    9.0085 H         1 RES1    0.0000
      5 C3         4.9250   12.6123   11.1084 C.3       1 RES1    0.0000
      6 H3         5.8880   12.5301   10.8935 H         1 RES1    0.0000
      7 C4         4.4318   11.4492   11.9627 C.3       1 RES1    0.0000
      8 H4         5.0403   10.6784   11.8388 H         1 RES1    0.0000
      9 O1         3.1248   11.1073   11.4364 O.3       1 RES1    0.0000
     10 O2         3.2899   13.7810    9.9205 O.3       1 RES1    0.0000
     11 C5         4.0299   14.6998   10.7300 C.3       1 RES1    0.0000
     12 O3         4.6236   13.8571   11.7289 O.3       1 RES1    0.0000
     13 C6         5.0859   15.4028    9.9243 C.3       1 RES1    0.0000
     14 H5         5.6675   14.7458    9.5113 H         1 RES1    0.0000
     15 H6         5.6080   15.9760   10.5067 H         1 RES1    0.0000
     16 H7         4.6630   15.9399    9.2360 H         1 RES1    0.0000
     17 C7         3.0748   15.6338   11.4179 C.3       1 RES1    0.0000
     18 H8         2.4235   15.1192   11.9185 H         1 RES1    0.0000
     19 H9         2.6183   16.1753   10.7547 H         1 RES1    0.0000
     20 H10        3.5662   16.2098   12.0231 H         1 RES1    0.0000
     21 C8         4.3252   11.7627   13.4474 C.3       1 RES1    0.0000
     22 H11        5.1681   12.1864   13.7477 H         1 RES1    0.0000
     23 C9         3.1555   12.6226   13.8983 C.3       1 RES1    0.0000
     24 H12        3.4117   13.5673   13.9593 H         1 RES1    0.0000
     25 H13        2.3941   12.5348   13.2870 H         1 RES1    0.0000
     26 O4         2.8479   12.0858   15.1874 O.3       1 RES1    0.0000
     27 C10        3.1170   10.6924   15.1389 C.3       1 RES1    0.0000
     28 O5         4.1415   10.5381   14.1617 O.3       1 RES1    0.0000
     29 C11        1.9137    9.9151   14.6885 C.3       1 RES1    0.0000
     30 H14        1.6273   10.2375   13.8194 H         1 RES1    0.0000
     31 H15        1.1953   10.0303   15.3289 H         1 RES1    0.0000
     32 H16        2.1420    8.9743   14.6236 H         1 RES1    0.0000
     33 C12        3.6376   10.2681   16.4756 C.3       1 RES1    0.0000
     34 H17        4.4119   10.8055   16.7066 H         1 RES1    0.0000
     35 H18        3.8912    9.3320   16.4415 H         1 RES1    0.0000
     36 H19        2.9473   10.3912   17.1457 H         1 RES1    0.0000
     37 N1         3.4584   10.2224    9.2668 N.pl3     1 RES1    1.0000
     38 O6         4.6974    9.8762    9.3398 O.2       1 RES1   -1.0000
     39 C13        2.5297    9.6280    8.5701 C.2       1 RES1    0.0000
     40 H20        1.6656    9.9942    8.6218 H         1 RES1    0.0000
     41 C14        2.6916    8.4580    7.7209 C.ar      1 RES1    0.0000
     42 C15        1.6635    8.2298    6.8013 C.ar      1 RES1    0.0000
     43 H21        0.9090    8.7907    6.7982 H         1 RES1    0.0000
     44 C16        1.7461    7.1883    5.8979 C.ar      1 RES1    0.0000
     45 H22        1.0611    7.0394    5.2716 H         1 RES1    0.0000
     46 C17        2.8485    6.3769    5.9365 C.ar      1 RES1    0.0000
     47 C18        3.8648    6.5409    6.8505 C.ar      1 RES1    0.0000
     48 H23        4.5985    5.9535    6.8630 H         1 RES1    0.0000
     49 C19        3.7838    7.5940    7.7553 C.ar      1 RES1    0.0000
     50 H24        4.4651    7.7220    8.3897 H         1 RES1    0.0000
     51 N2         2.9439    5.2713    4.9656 N.pl3     1 RES1    0.0000
     52 O7         1.9575    4.9824    4.3246 O.2       1 RES1    0.0000
     53 O8         3.9994    4.6968    4.8450 O.2       1 RES1    0.0000
@<TRIPOS>BOND
     1    1    2 1
     2    3    1 1
     3    4    3 1
     4    5    3 1
     5    6    5 1
     6    7    5 1
     7    8    7 1
     8    9    1 1
     9   10    3 1
    10   11   10 1
    11   12    5 1
    12   13   11 1
    13   14   13 1
    14   15   13 1
    15   16   13 1
    16   17   11 1
    17   18   17 1
    18   19   17 1
    19   20   17 1
    20   21    7 1
    21   22   21 1
    22   23   21 1
    23   24   23 1
    24   25   23 1
    25   26   23 1
    26   27   26 1
    27   28   21 1
    28   29   27 1
    29   30   29 1
    30   31   29 1
    31   32   29 1
    32   33   27 1
    33   34   33 1
    34   35   33 1
    35   36   33 1
    36   37    1 1
    37   38   37 1
    38   39   37 2
    39   40   39 1
    40   41   39 1
    41   42   41 ar
    42   43   42 1
    43   44   42 ar
    44   45   44 1
    45   46   44 ar
    46   47   46 ar
    47   48   47 1
    48   49   41 ar
    49   50   49 1
    50   51   46 1
    51   52   51 2
    52   53   51 2
    53    7    9 1
    54   11   12 1
    55   27   28 1
    56   47   49 ar
@<TRIPOS>SUBSTRUCTURE
     1 RES1 1

@<TRIPOS>CRYSIN
   5.4727   15.6920   11.3916  90.0000  93.0140  90.0000   4 1

