# MOL2 file generated by ConQuest
# Please check atom types

@<TRIPOS>MOLECULE
JIRGIB
    75    79     1
SMALL
USER_CHARGES
****
Generated from CSD

@<TRIPOS>ATOM
      1 C1         6.4223    4.5117    3.5090 C.3       1 RES1    0.0000
      2 N1         6.2924    3.5208    2.3586 N.pl3     1 RES1    1.0000
      3 C2         5.6832    4.0139    1.2936 C.2       1 RES1    0.0000
      4 C3         5.3408    5.4098    1.5241 C.2       1 RES1    0.0000
      5 C4         5.8061    5.7796    2.9265 C.3       1 RES1    0.0000
      6 C5         4.6431    6.1078    3.8560 C.2       1 RES1    0.0000
      7 C6         4.4678    4.9594    4.7908 C.2       1 RES1    0.0000
      8 C7         5.4387    4.0820    4.5570 C.2       1 RES1    0.0000
      9 N2         4.1731    3.3604   -0.3906 N.ar      1 RES1    0.0000
     10 C8         5.3898    3.2196    0.0894 C.ar      1 RES1    0.0000
     11 C9         6.3567    2.3540   -0.4354 C.ar      1 RES1    0.0000
     12 C10        6.0756    1.6137   -1.5587 C.ar      1 RES1    0.0000
     13 C11        4.8122    1.8505   -2.2034 C.ar      1 RES1    0.0000
     14 C12        4.4002    1.3310   -3.4540 C.ar      1 RES1    0.0000
     15 C13        3.1348    1.4854   -3.9244 C.ar      1 RES1    0.0000
     16 C14        2.2009    2.2212   -3.2009 C.ar      1 RES1    0.0000
     17 C15        2.5398    2.8455   -2.0343 C.ar      1 RES1    0.0000
     18 C16        3.8694    2.6773   -1.5351 C.ar      1 RES1    0.0000
     19 C17        7.9026    4.6253    3.9912 C.3       1 RES1    0.0000
     20 C18        8.0125    5.8443    4.9143 C.3       1 RES1    0.0000
     21 H1         7.4281    5.7291    5.6667 H         1 RES1    0.0000
     22 H2         7.7594    6.6340    4.4312 H         1 RES1    0.0000
     23 H3         8.9173    5.9320    5.2216 H         1 RES1    0.0000
     24 C19        8.8261    4.7941    2.7870 C.3       1 RES1    0.0000
     25 H4         8.7502    4.0268    2.2149 H         1 RES1    0.0000
     26 H5         9.7335    4.8800    3.0893 H         1 RES1    0.0000
     27 H6         8.5756    5.5821    2.2990 H         1 RES1    0.0000
     28 C20        8.3343    3.3922    4.7921 C.3       1 RES1    0.0000
     29 H7         7.7555    3.2849    5.5511 H         1 RES1    0.0000
     30 H8         9.2381    3.5061    5.0929 H         1 RES1    0.0000
     31 H9         8.2788    2.6125    4.2342 H         1 RES1    0.0000
     32 C21        3.3587    4.8735    5.8176 C.3       1 RES1    0.0000
     33 C22        3.4417    3.5667    6.5870 C.3       1 RES1    0.0000
     34 H10        2.7333    3.5309    7.2330 H         1 RES1    0.0000
     35 H11        4.2882    3.5148    7.0374 H         1 RES1    0.0000
     36 H12        3.3577    2.8301    5.9778 H         1 RES1    0.0000
     37 C23        3.5070    6.0149    6.7997 C.3       1 RES1    0.0000
     38 H13        2.8072    5.9670    7.4549 H         1 RES1    0.0000
     39 H14        3.4506    6.8503    6.3310 H         1 RES1    0.0000
     40 H15        4.3599    5.9511    7.2382 H         1 RES1    0.0000
     41 C24        2.0049    4.9227    5.1139 C.3       1 RES1    0.0000
     42 H16        1.3030    4.8695    5.7664 H         1 RES1    0.0000
     43 H17        1.9334    4.1839    4.5047 H         1 RES1    0.0000
     44 H18        1.9266    5.7472    4.6268 H         1 RES1    0.0000
     45 N3         6.9557    0.6451   -2.0587 N.3       1 RES1    0.0000
     46 C25        6.4857   -0.7298   -1.8526 C.3       1 RES1    0.0000
     47 H19        5.5565   -0.7971   -2.1243 H         1 RES1    0.0000
     48 H20        6.5394   -0.9513   -0.9099 H         1 RES1    0.0000
     49 C26        7.3137   -1.7111   -2.6469 C.3       1 RES1    0.0000
     50 H21        7.0291   -2.6145   -2.4394 H         1 RES1    0.0000
     51 H22        7.1684   -1.5616   -3.5948 H         1 RES1    0.0000
     52 C27        8.7816   -1.5650   -2.3357 C.3       1 RES1    0.0000
     53 H23        8.9501   -1.8616   -1.4285 H         1 RES1    0.0000
     54 H24        9.2961   -2.1275   -2.9357 H         1 RES1    0.0000
     55 C28        9.2287   -0.1359   -2.4854 C.3       1 RES1    0.0000
     56 H25        9.1858    0.1191   -3.4202 H         1 RES1    0.0000
     57 H26       10.1499   -0.0538   -2.1939 H         1 RES1    0.0000
     58 C29        8.3550    0.7947   -1.6674 C.3       1 RES1    0.0000
     59 H27        8.4536    0.5896   -0.7247 H         1 RES1    0.0000
     60 H28        8.6363    1.7132   -1.8079 H         1 RES1    0.0000
     61 N4         5.3746    0.7736   -4.4179 N.pl3     1 RES1    0.0000
     62 C30        1.5696    3.7217   -1.3011 C.3       1 RES1    0.0000
     63 H29        1.9858    4.0687   -0.5094 H         1 RES1    0.0000
     64 H30        0.7965    3.2072   -1.0569 H         1 RES1    0.0000
     65 H31        1.3034    4.4497   -1.8683 H         1 RES1    0.0000
     66 O1         6.6908    2.3349    2.5145 O.2       1 RES1   -1.0000
     67 O2         4.8039    6.1670    0.7477 O.2       1 RES1    0.0000
     68 O3         3.9950    7.1248    3.8018 O.2       1 RES1    0.0000
     69 O4         6.2910    1.4963   -4.7633 O.2       1 RES1    0.0000
     70 O5         5.1604   -0.3398   -4.8727 O.2       1 RES1    0.0000
     71 H32        6.3782    6.4949    2.8491 H         1 RES1    0.0000
     72 H33        5.5585    3.2368    4.9892 H         1 RES1    0.0000
     73 H34        7.2027    2.2729    0.0131 H         1 RES1    0.0000
     74 H35        2.9446    1.0943   -4.7660 H         1 RES1    0.0000
     75 H36        1.3333    2.3297   -3.5449 H         1 RES1    0.0000
@<TRIPOS>BOND
     1    1    2 1
     2    2    3 2
     3    3    4 1
     4    4    5 1
     5    5    1 1
     6    6    5 1
     7    7    6 1
     8    8    1 1
     9    9   10 ar
    10   10    3 1
    11   11   10 ar
    12   12   11 ar
    13   13   12 ar
    14   14   13 ar
    15   15   14 ar
    16   16   15 ar
    17   17   16 ar
    18   18    9 ar
    19   19    1 1
    20   20   19 1
    21   21   20 1
    22   22   20 1
    23   23   20 1
    24   24   19 1
    25   25   24 1
    26   26   24 1
    27   27   24 1
    28   28   19 1
    29   29   28 1
    30   30   28 1
    31   31   28 1
    32   32    7 1
    33   33   32 1
    34   34   33 1
    35   35   33 1
    36   36   33 1
    37   37   32 1
    38   38   37 1
    39   39   37 1
    40   40   37 1
    41   41   32 1
    42   42   41 1
    43   43   41 1
    44   44   41 1
    45   45   12 1
    46   46   45 1
    47   47   46 1
    48   48   46 1
    49   49   46 1
    50   50   49 1
    51   51   49 1
    52   52   49 1
    53   53   52 1
    54   54   52 1
    55   55   52 1
    56   56   55 1
    57   57   55 1
    58   58   45 1
    59   59   58 1
    60   60   58 1
    61   61   14 1
    62   62   17 1
    63   63   62 1
    64   64   62 1
    65   65   62 1
    66   66    2 1
    67   67    4 2
    68   68    6 2
    69   69   61 2
    70   70   61 2
    71   71    5 1
    72   72    8 1
    73   73   11 1
    74   74   15 1
    75   75   16 1
    76    7    8 2
    77   13   18 ar
    78   17   18 ar
    79   55   58 1
@<TRIPOS>SUBSTRUCTURE
     1 RES1 1

@<TRIPOS>CRYSIN
  10.0550   11.3760   14.4890  67.3800  74.1700  74.4100   2 1

