# MOL2 file generated by ConQuest
# Please check atom types

@<TRIPOS>MOLECULE
JIRGEX
    74    78     1
SMALL
USER_CHARGES
****
Generated from CSD

@<TRIPOS>ATOM
      1 C1        -2.6526    9.0068   -0.1959 C.3       1 RES1    0.0000
      2 N1        -2.6791    9.6036    1.2127 N.pl3     1 RES1    1.0000
      3 C2        -2.5567    8.7229    2.1848 C.2       1 RES1    0.0000
      4 C3        -2.6174    7.3773    1.6057 C.2       1 RES1    0.0000
      5 C4        -2.6325    7.5143    0.0895 C.3       1 RES1    0.0000
      6 C5        -3.9075    6.9747   -0.5840 C.2       1 RES1    0.0000
      7 C6        -4.6429    8.1074   -1.1740 C.2       1 RES1    0.0000
      8 C7        -3.9913    9.2399   -0.8524 C.2       1 RES1    0.0000
      9 N2        -1.5131    8.4018    4.2850 N.ar      1 RES1    0.0000
     10 C8        -2.4111    9.1009    3.6104 C.ar      1 RES1    0.0000
     11 C9        -3.1249   10.1803    4.1230 C.ar      1 RES1    0.0000
     12 C10       -2.9020   10.5762    5.4155 C.ar      1 RES1    0.0000
     13 C11       -2.0375    9.7907    6.2438 C.ar      1 RES1    0.0000
     14 C12       -1.8552   10.0057    7.6197 C.ar      1 RES1    0.0000
     15 C13       -0.9519    9.2980    8.3561 C.ar      1 RES1    0.0000
     16 C14       -0.1931    8.3157    7.6947 C.ar      1 RES1    0.0000
     17 C15       -0.3704    8.0064    6.3743 C.ar      1 RES1    0.0000
     18 C16       -1.3066    8.7356    5.5993 C.ar      1 RES1    0.0000
     19 C17       -1.4480    9.5653   -0.9697 C.3       1 RES1    0.0000
     20 C18       -1.3013    8.7588   -2.2779 C.3       1 RES1    0.0000
     21 H1        -1.1983    7.8269   -2.0700 H         1 RES1    0.0000
     22 H2        -0.5282    9.0657   -2.7592 H         1 RES1    0.0000
     23 H3        -2.0839    8.8812   -2.8184 H         1 RES1    0.0000
     24 C19       -0.1652    9.4121   -0.1354 C.3       1 RES1    0.0000
     25 H4        -0.0599    8.4927    0.1245 H         1 RES1    0.0000
     26 H5        -0.2276    9.9595    0.6505 H         1 RES1    0.0000
     27 H6         0.5925    9.6858   -0.6577 H         1 RES1    0.0000
     28 C20       -1.6036   11.0282   -1.3566 C.3       1 RES1    0.0000
     29 H7        -0.8222   11.3186   -1.8342 H         1 RES1    0.0000
     30 H8        -1.7090   11.5588   -0.5634 H         1 RES1    0.0000
     31 H9        -2.3769   11.1313   -1.9152 H         1 RES1    0.0000
     32 C21       -5.8943    7.9608   -2.0289 C.3       1 RES1    0.0000
     33 C22       -6.4790    9.3196   -2.3759 C.3       1 RES1    0.0000
     34 H10       -6.7251    9.7771   -1.5682 H         1 RES1    0.0000
     35 H11       -7.2557    9.2027   -2.9260 H         1 RES1    0.0000
     36 H12       -5.8249    9.8384   -2.8510 H         1 RES1    0.0000
     37 C23       -5.4948    7.2312   -3.3093 C.3       1 RES1    0.0000
     38 H13       -5.1277    6.3727   -3.0880 H         1 RES1    0.0000
     39 H14       -4.8378    7.7490   -3.7820 H         1 RES1    0.0000
     40 H15       -6.2687    7.1144   -3.8655 H         1 RES1    0.0000
     41 C24       -6.9453    7.1395   -1.3094 C.3       1 RES1    0.0000
     42 H16       -6.5848    6.2760   -1.0930 H         1 RES1    0.0000
     43 H17       -7.7109    7.0322   -1.8777 H         1 RES1    0.0000
     44 H18       -7.2062    7.5882   -0.5030 H         1 RES1    0.0000
     45 N3        -3.5206   11.6983    5.9947 N.3       1 RES1    0.0000
     46 C25       -4.6771   12.2446    5.2995 C.3       1 RES1    0.0000
     47 H19       -5.2918   11.5312    5.0673 H         1 RES1    0.0000
     48 H20       -4.3959   12.6870    4.4833 H         1 RES1    0.0000
     49 C26       -5.3536   13.2350    6.2244 C.3       1 RES1    0.0000
     50 H21       -6.1401   13.6000    5.7916 H         1 RES1    0.0000
     51 H22       -5.6377   12.7835    7.0345 H         1 RES1    0.0000
     52 O1        -4.4490   14.2968    6.5545 O.3       1 RES1    0.0000
     53 C27       -3.3254   13.7790    7.2364 C.3       1 RES1    0.0000
     54 H23       -3.6144   13.3443    8.0538 H         1 RES1    0.0000
     55 H24       -2.7278   14.5051    7.4746 H         1 RES1    0.0000
     56 C28       -2.5909   12.7843    6.3623 C.3       1 RES1    0.0000
     57 H25       -2.2626   13.2245    5.5630 H         1 RES1    0.0000
     58 H26       -1.8322   12.4195    6.8435 H         1 RES1    0.0000
     59 C29       -0.7439    9.5953    9.8263 C.3       1 RES1    0.0000
     60 H27       -0.0801    9.0022   10.1818 H         1 RES1    0.0000
     61 H28       -1.5709    9.4702   10.2991 H         1 RES1    0.0000
     62 H29       -0.4510   10.5030    9.9303 H         1 RES1    0.0000
     63 C30        0.4424    6.9106    5.7214 C.3       1 RES1    0.0000
     64 H30        0.1860    6.8268    4.8001 H         1 RES1    0.0000
     65 H31        0.2817    6.0798    6.1748 H         1 RES1    0.0000
     66 H32        1.3756    7.1289    5.7746 H         1 RES1    0.0000
     67 O2        -2.7648   10.8482    1.3312 O.2       1 RES1   -1.0000
     68 O3        -2.6586    6.3369    2.1993 O.2       1 RES1    0.0000
     69 O4        -4.2078    5.8066   -0.6082 O.2       1 RES1    0.0000
     70 H33       -1.8009    7.0356   -0.2418 H         1 RES1    0.0000
     71 H34       -4.3356   10.0857   -1.1970 H         1 RES1    0.0000
     72 H35       -3.7033   10.6839    3.4822 H         1 RES1    0.0000
     73 H36       -2.4261   10.7103    8.0284 H         1 RES1    0.0000
     74 H37        0.4665    7.7231    8.1977 H         1 RES1    0.0000
@<TRIPOS>BOND
     1    1    2 1
     2    2    3 2
     3    3    4 1
     4    4    5 1
     5    5    1 1
     6    6    5 1
     7    7    6 1
     8    8    1 1
     9    9   10 ar
    10   10    3 1
    11   11   10 ar
    12   12   11 ar
    13   13   12 ar
    14   14   13 ar
    15   15   14 ar
    16   16   15 ar
    17   17   16 ar
    18   18    9 ar
    19   19    1 1
    20   20   19 1
    21   21   20 1
    22   22   20 1
    23   23   20 1
    24   24   19 1
    25   25   24 1
    26   26   24 1
    27   27   24 1
    28   28   19 1
    29   29   28 1
    30   30   28 1
    31   31   28 1
    32   32    7 1
    33   33   32 1
    34   34   33 1
    35   35   33 1
    36   36   33 1
    37   37   32 1
    38   38   37 1
    39   39   37 1
    40   40   37 1
    41   41   32 1
    42   42   41 1
    43   43   41 1
    44   44   41 1
    45   45   12 1
    46   46   45 1
    47   47   46 1
    48   48   46 1
    49   49   46 1
    50   50   49 1
    51   51   49 1
    52   52   49 1
    53   53   52 1
    54   54   53 1
    55   55   53 1
    56   56   45 1
    57   57   56 1
    58   58   56 1
    59   59   15 1
    60   60   59 1
    61   61   59 1
    62   62   59 1
    63   63   17 1
    64   64   63 1
    65   65   63 1
    66   66   63 1
    67   67    2 1
    68   68    4 2
    69   69    6 2
    70   70    5 1
    71   71    8 1
    72   72   11 1
    73   73   14 1
    74   74   16 1
    75    7    8 2
    76   13   18 ar
    77   17   18 ar
    78   53   56 1
@<TRIPOS>SUBSTRUCTURE
     1 RES1 1

@<TRIPOS>CRYSIN
   9.9460   12.2600   13.0420 110.7200  90.0600 109.1400   2 1

