# MOL2 file generated by ConQuest
# Please check atom types

@<TRIPOS>MOLECULE
JIRTUA
    30    31     1
SMALL
NO_CHARGES
****
Generated from CSD

@<TRIPOS>ATOM
      1 N1         3.3769    7.1741    9.2883 N.2       1 RES1    0.0000
      2 C1         2.7680    7.5857    8.1941 C.2       1 RES1    0.0000
      3 N2         1.4471    7.5767    8.1547 N.3       1 RES1    0.0000
      4 N3         3.4208    8.0243    7.0883 N.am      1 RES1    0.0000
      5 C2         4.8133    8.1690    7.0663 C.2       1 RES1    0.0000
      6 O1         5.3614    8.6580    6.0727 O.2       1 RES1    0.0000
      7 C3         5.4518    7.7910    8.2785 C.2       1 RES1    0.0000
      8 N4         6.8300    8.1611    8.3548 N.pl3     1 RES1    0.0000
      9 O2         7.5777    7.8863    7.4156 O.2       1 RES1    0.0000
     10 O3         7.2240    8.7545    9.3739 O.2       1 RES1    0.0000
     11 C4         4.7291    7.2492    9.3531 C.2       1 RES1    0.0000
     12 N5         5.2763    6.7725   10.4947 N.pl3     1 RES1    0.0000
     13 C5         4.3871    6.3519   11.5971 C.3       1 RES1    0.0000
     14 C6         6.6589    6.4114   10.6150 C.ar      1 RES1    0.0000
     15 C7         7.2410    5.5589    9.7059 C.ar      1 RES1    0.0000
     16 C8         8.5798    5.2224    9.8296 C.ar      1 RES1    0.0000
     17 C9         9.3150    5.7227   10.8892 C.ar      1 RES1    0.0000
     18 C10        8.7284    6.5403   11.8088 C.ar      1 RES1    0.0000
     19 C11        7.3924    6.8892   11.6966 C.ar      1 RES1    0.0000
     20 H1         0.9877    7.2986    8.8511 H         1 RES1    0.0000
     21 H2         1.0262    7.8482    7.4306 H         1 RES1    0.0000
     22 H3         2.9578    8.2239    6.3676 H         1 RES1    0.0000
     23 H4         3.9939    5.4804   11.3854 H         1 RES1    0.0000
     24 H5         3.6733    7.0137   11.7116 H         1 RES1    0.0000
     25 H6         4.9055    6.2846   12.4264 H         1 RES1    0.0000
     26 H7         6.7261    5.2022    8.9922 H         1 RES1    0.0000
     27 H8         8.9899    4.6504    9.1911 H         1 RES1    0.0000
     28 H9        10.2338    5.4950   10.9771 H         1 RES1    0.0000
     29 H10        9.2416    6.8746   12.5340 H         1 RES1    0.0000
     30 H11        6.9840    7.4466   12.3478 H         1 RES1    0.0000
@<TRIPOS>BOND
     1    1    2 2
     2    2    3 1
     3    3   20 1
     4    4    2 1
     5    5    4 1
     6    6    5 2
     7    7    5 1
     8    8    7 1
     9    9    8 2
    10   10    8 2
    11   11    1 1
    12   12   11 1
    13   13   12 1
    14   14   12 1
    15   15   14 ar
    16   16   15 ar
    17   17   16 ar
    18   18   17 ar
    19   19   14 ar
    20   21    3 1
    21   22    4 1
    22   23   13 1
    23   24   13 1
    24   25   13 1
    25   26   15 1
    26   27   16 1
    27   28   17 1
    28   29   18 1
    29   30   19 1
    30    7   11 2
    31   18   19 ar
@<TRIPOS>SUBSTRUCTURE
     1 RES1 1

@<TRIPOS>CRYSIN
   8.9550   11.2165   11.5670  90.0000  90.0000  90.0000  19 1

