# MOL2 file generated by ConQuest
# Please check atom types

@<TRIPOS>MOLECULE
JISKAY
    42    41     1
SMALL
NO_CHARGES
****
Generated from CSD

@<TRIPOS>ATOM
      1 O1         3.6092    1.2592    0.8346 O.3       1 RES1    0.0000
      2 O2         3.1871    1.5904    4.2623 O.2       1 RES1    0.0000
      3 O3         3.9213    5.6111    3.2734 O.3       1 RES1    0.0000
      4 N1         3.6610    0.9384    2.1920 N.am      1 RES1    0.0000
      5 C1         3.3818    1.9085    3.0867 C.2       1 RES1    0.0000
      6 C2         3.3376    3.3435    2.6246 C.3       1 RES1    0.0000
      7 C3         4.0951    4.2418    3.6298 C.3       1 RES1    0.0000
      8 C4         5.5901    3.9406    3.6850 C.3       1 RES1    0.0000
      9 C5         6.2490    4.7046    4.8525 C.3       1 RES1    0.0000
     10 C6         5.7418    4.4017    6.2227 C.2       1 RES1    0.0000
     11 C7         5.2587    5.3555    7.0019 C.2       1 RES1    0.0000
     12 C8         4.7582    5.2385    8.4069 C.3       1 RES1    0.0000
     13 C9         1.8686    3.7547    2.4847 C.3       1 RES1    0.0000
     14 C10        6.3092    4.2694    2.3842 C.3       1 RES1    0.0000
     15 C11        5.8508    2.9792    6.6438 C.3       1 RES1    0.0000
     16 C12        3.4969   -0.4764    2.4874 C.3       1 RES1    0.0000
     17 C13        4.8922    1.1225    0.2366 C.3       1 RES1    0.0000
     18 H1         3.2574    5.9095    3.6512 H         1 RES1    0.0000
     19 H2         3.7546    3.4163    1.7630 H         1 RES1    0.0000
     20 H3         3.7203    4.0806    4.4989 H         1 RES1    0.0000
     21 H4         5.6797    2.9974    3.8348 H         1 RES1    0.0000
     22 H5         7.2015    4.5196    4.8360 H         1 RES1    0.0000
     23 H6         6.1378    5.6555    4.6926 H         1 RES1    0.0000
     24 H7         5.1986    6.2536    6.6703 H         1 RES1    0.0000
     25 H8         3.8099    5.3833    8.4215 H         1 RES1    0.0000
     26 H9         5.1914    5.8951    8.9559 H         1 RES1    0.0000
     27 H10        4.9534    4.3605    8.7439 H         1 RES1    0.0000
     28 H11        1.8256    4.6653    2.1851 H         1 RES1    0.0000
     29 H12        1.4288    3.6770    3.3352 H         1 RES1    0.0000
     30 H13        1.4318    3.1863    1.8462 H         1 RES1    0.0000
     31 H14        7.2432    4.0681    2.4765 H         1 RES1    0.0000
     32 H15        6.2011    5.2021    2.1842 H         1 RES1    0.0000
     33 H16        5.9371    3.7432    1.6726 H         1 RES1    0.0000
     34 H17        5.4952    2.8757    7.5290 H         1 RES1    0.0000
     35 H18        6.7705    2.7060    6.6347 H         1 RES1    0.0000
     36 H19        5.3489    2.4347    6.0318 H         1 RES1    0.0000
     37 H20        3.5602   -0.6202    3.4338 H         1 RES1    0.0000
     38 H21        4.1774   -0.9854    2.0398 H         1 RES1    0.0000
     39 H22        2.6321   -0.7573    2.1778 H         1 RES1    0.0000
     40 H23        4.8426    1.3391   -0.6970 H         1 RES1    0.0000
     41 H24        5.1839    0.2128    0.3389 H         1 RES1    0.0000
     42 H25        5.5163    1.7091    0.6696 H         1 RES1    0.0000
@<TRIPOS>BOND
     1    1    4 1
     2    2    5 2
     3    3    7 1
     4    4    5 1
     5    5    6 1
     6    6    7 1
     7    7    8 1
     8    8    9 1
     9    9   10 1
    10   10   11 2
    11   11   12 1
    12   12   25 1
    13   13    6 1
    14   14    8 1
    15   15   10 1
    16   16    4 1
    17   17    1 1
    18   18    3 1
    19   19    6 1
    20   20    7 1
    21   21    8 1
    22   22    9 1
    23   23    9 1
    24   24   11 1
    25   26   12 1
    26   27   12 1
    27   28   13 1
    28   29   13 1
    29   30   13 1
    30   31   14 1
    31   32   14 1
    32   33   14 1
    33   34   15 1
    34   35   15 1
    35   36   15 1
    36   37   16 1
    37   38   16 1
    38   39   16 1
    39   40   17 1
    40   41   17 1
    41   42   17 1
@<TRIPOS>SUBSTRUCTURE
     1 RES1 1

@<TRIPOS>CRYSIN
   8.5218    9.5856    9.8281  90.0000 111.6480  90.0000   4 1

