# MOL2 file generated by ConQuest
# Please check atom types

@<TRIPOS>MOLECULE
JISVUC
    59    61     1
SMALL
NO_CHARGES
****
Generated from CSD

@<TRIPOS>ATOM
      1 C1         2.0382   10.6776   -0.1720 C.3       1 RES1    0.0000
      2 O1         3.3738   10.6538    0.4292 O.3       1 RES1    0.0000
      3 C2         1.3962   11.8654    0.6537 C.2       1 RES1    0.0000
      4 O2         0.4624   11.5443    1.3160 O.2       1 RES1    0.0000
      5 C3         1.8653   13.2334    0.5075 C.ar      1 RES1    0.0000
      6 C4         2.8665   13.5879   -0.3096 C.ar      1 RES1    0.0000
      7 C5         3.2728   14.9774   -0.3870 C.ar      1 RES1    0.0000
      8 C6         2.5410   15.7927    0.5763 C.ar      1 RES1    0.0000
      9 C7         1.5713   15.4942    1.3934 C.ar      1 RES1    0.0000
     10 C8         1.2929   14.2289    1.3676 C.ar      1 RES1    0.0000
     11 N1         3.9933    9.3801    0.1428 N.3       1 RES1    0.0000
     12 C9         5.3783    9.6021   -0.3526 C.3       1 RES1    0.0000
     13 C10        6.0270    8.3702    0.1978 C.ar      1 RES1    0.0000
     14 C11        7.3043    7.8426   -0.1720 C.ar      1 RES1    0.0000
     15 C12        7.7195    6.6967    0.5161 C.ar      1 RES1    0.0000
     16 C13        6.9586    6.1153    1.4364 C.ar      1 RES1    0.0000
     17 C14        5.7307    6.6322    1.7804 C.ar      1 RES1    0.0000
     18 C15        5.2975    7.7698    1.1353 C.ar      1 RES1    0.0000
     19 C16        4.0382    8.5576    1.4278 C.3       1 RES1    0.0000
     20 C17        4.1617    9.3586    2.6663 C.3       1 RES1    0.0000
     21 C18        2.7722    7.6683    1.4278 C.3       1 RES1    0.0000
     22 C19        5.3334    9.6964   -1.8406 C.3       1 RES1    0.0000
     23 C20        6.0899   10.8651    0.2236 C.3       1 RES1    0.0000
     24 O3         2.1549   10.9940   -1.4983 O.3       1 RES1    0.0000
     25 C21        1.1628   10.4174   -2.3739 C.3       1 RES1    0.0000
     26 C22        1.4523    8.9886   -2.6233 C.3       1 RES1    0.0000
     27 C23       -0.1863   10.7075   -1.9352 C.3       1 RES1    0.0000
     28 C24        1.4097   11.1850   -3.6898 C.3       1 RES1    0.0000
     29 H1         1.5174    9.8397   -0.1015 H         1 RES1    0.0000
     30 H2         3.3468   12.9039   -0.8945 H         1 RES1    0.0000
     31 H3         3.9641   15.3522   -0.9779 H         1 RES1    0.0000
     32 H4         2.7430   16.7058    0.6958 H         1 RES1    0.0000
     33 H5         1.0550   16.0839    1.9800 H         1 RES1    0.0000
     34 H6         0.6442   13.8768    2.0341 H         1 RES1    0.0000
     35 H7         7.8789    8.3249   -0.8360 H         1 RES1    0.0000
     36 H8         8.5703    6.2478    0.3114 H         1 RES1    0.0000
     37 H9         7.2324    5.3263    1.9808 H         1 RES1    0.0000
     38 H10        5.1359    6.1893    2.4539 H         1 RES1    0.0000
     39 H11        5.0034    9.8826    2.6173 H         1 RES1    0.0000
     40 H12        3.4613    9.9949    2.7394 H         1 RES1    0.0000
     41 H13        4.2200    8.8847    3.4920 H         1 RES1    0.0000
     42 H14        1.9686    8.1661    1.3650 H         1 RES1    0.0000
     43 H15        2.7879    7.0655    0.6425 H         1 RES1    0.0000
     44 H16        2.7834    7.1312    2.2027 H         1 RES1    0.0000
     45 H17        4.9900    8.8608   -2.2363 H         1 RES1    0.0000
     46 H18        4.7633   10.3935   -2.1563 H         1 RES1    0.0000
     47 H19        6.2088    9.8253   -2.2182 H         1 RES1    0.0000
     48 H20        5.5803   11.6374    0.0206 H         1 RES1    0.0000
     49 H21        6.1550   10.7719    1.1723 H         1 RES1    0.0000
     50 H22        6.9855   11.0226   -0.0981 H         1 RES1    0.0000
     51 H23        2.3637    8.9181   -3.0413 H         1 RES1    0.0000
     52 H24        1.5107    8.4896   -1.8191 H         1 RES1    0.0000
     53 H25        0.8597    8.5791   -3.2262 H         1 RES1    0.0000
     54 H26       -0.3345   10.3148   -1.0674 H         1 RES1    0.0000
     55 H27       -0.3547   11.6207   -1.9051 H         1 RES1    0.0000
     56 H28       -0.8665   10.2969   -2.5210 H         1 RES1    0.0000
     57 H29        1.2683   12.1423   -3.6193 H         1 RES1    0.0000
     58 H30        2.2986   11.0668   -4.0502 H         1 RES1    0.0000
     59 H31        0.7699   10.8269   -4.3203 H         1 RES1    0.0000
@<TRIPOS>BOND
     1    1    2 1
     2    2   11 1
     3    3    1 1
     4    4    3 2
     5    5    3 1
     6    6    5 ar
     7    7    6 ar
     8    8    7 ar
     9    9    8 ar
    10   10    5 ar
    11   11   12 1
    12   12   13 1
    13   13   14 ar
    14   14   15 ar
    15   15   16 ar
    16   16   17 ar
    17   17   18 ar
    18   18   13 ar
    19   19   11 1
    20   20   19 1
    21   21   19 1
    22   22   12 1
    23   23   12 1
    24   24    1 1
    25   25   24 1
    26   26   25 1
    27   27   25 1
    28   28   25 1
    29   29    1 1
    30   30    6 1
    31   31    7 1
    32   32    8 1
    33   33    9 1
    34   34   10 1
    35   35   14 1
    36   36   15 1
    37   37   16 1
    38   38   17 1
    39   39   20 1
    40   40   20 1
    41   41   20 1
    42   42   21 1
    43   43   21 1
    44   44   21 1
    45   45   22 1
    46   46   22 1
    47   47   22 1
    48   48   23 1
    49   49   23 1
    50   50   23 1
    51   51   26 1
    52   52   26 1
    53   53   26 1
    54   54   27 1
    55   55   27 1
    56   56   27 1
    57   57   28 1
    58   58   28 1
    59   59   28 1
    60    9   10 ar
    61   18   19 1
@<TRIPOS>SUBSTRUCTURE
     1 RES1 1

@<TRIPOS>CRYSIN
  22.4470   11.9370    8.6010  90.0000  90.0000  90.0000  19 1

