# MOL2 file generated by ConQuest
# Please check atom types

@<TRIPOS>MOLECULE
JITVUD
    31    32     1
SMALL
NO_CHARGES
****
Generated from CSD

@<TRIPOS>ATOM
      1 O1         4.0979    2.8280    7.5368 O.2       1 RES1    0.0000
      2 O2         5.6286    3.2867    5.6604 O.3       1 RES1    0.0000
      3 O3         1.8604   -2.9678   11.1542 O.2       1 RES1    0.0000
      4 O4         0.6828   -1.2993   11.7760 O.2       1 RES1    0.0000
      5 N1         1.5601   -1.7865   11.0965 N.pl3     1 RES1    0.0000
      6 C1         4.3559    1.5714    7.4236 C.2       1 RES1    0.0000
      7 C2         5.2396    1.1121    6.4443 C.2       1 RES1    0.0000
      8 C3         5.8662    1.9982    5.5738 C.2       1 RES1    0.0000
      9 C4         6.8088    1.5938    4.5279 C.ar      1 RES1    0.0000
     10 C5         6.9918    0.2510    4.1504 C.ar      1 RES1    0.0000
     11 C6         7.8697   -0.0712    3.1355 C.ar      1 RES1    0.0000
     12 C7         8.5933    0.9146    2.4893 C.ar      1 RES1    0.0000
     13 C8         8.4311    2.2424    2.8668 C.ar      1 RES1    0.0000
     14 C9         7.5580    2.5837    3.8683 C.ar      1 RES1    0.0000
     15 C10        3.6488    0.6649    8.3762 C.ar      1 RES1    0.0000
     16 C11        3.9430   -0.6968    8.4761 C.ar      1 RES1    0.0000
     17 C12        3.2678   -1.4927    9.3710 C.ar      1 RES1    0.0000
     18 C13        2.2970   -0.9316   10.1616 C.ar      1 RES1    0.0000
     19 C14        1.9652    0.4180   10.0861 C.ar      1 RES1    0.0000
     20 C15        2.6611    1.1969    9.1912 C.ar      1 RES1    0.0000
     21 H1         4.9528    3.2636    6.5508 H         1 RES1    0.0000
     22 H2         5.3945    0.1221    6.3510 H         1 RES1    0.0000
     23 H3         6.4795   -0.4207    4.5523 H         1 RES1    0.0000
     24 H4         7.9776   -1.0652    2.7980 H         1 RES1    0.0000
     25 H5         9.1989    0.7464    1.7765 H         1 RES1    0.0000
     26 H6         8.9441    2.9515    2.3983 H         1 RES1    0.0000
     27 H7         7.3806    3.4264    4.1304 H         1 RES1    0.0000
     28 H8         4.6526   -1.0856    7.9276 H         1 RES1    0.0000
     29 H9         3.4561   -2.3205    9.4599 H         1 RES1    0.0000
     30 H10        1.2709    0.7599   10.6590 H         1 RES1    0.0000
     31 H11        2.5079    2.0830    9.1490 H         1 RES1    0.0000
@<TRIPOS>BOND
     1    1    6 2
     2    2    8 1
     3    3    5 2
     4    4    5 2
     5    5   18 1
     6    6    7 1
     7    7    8 2
     8    8    9 1
     9    9   10 ar
    10   10   11 ar
    11   11   12 ar
    12   12   13 ar
    13   13   14 ar
    14   14    9 ar
    15   15    6 1
    16   16   15 ar
    17   17   16 ar
    18   18   17 ar
    19   19   18 ar
    20   20   15 ar
    21   21    2 1
    22   22    7 1
    23   23   10 1
    24   24   11 1
    25   25   12 1
    26   26   13 1
    27   27   14 1
    28   28   16 1
    29   29   17 1
    30   30   19 1
    31   31   20 1
    32   19   20 ar
@<TRIPOS>SUBSTRUCTURE
     1 RES1 1

@<TRIPOS>CRYSIN
   8.3060    6.7850   22.2330  90.0000  92.8100  90.0000  14 1

