# MOL2 file generated by ConQuest
# Please check atom types

@<TRIPOS>MOLECULE
JITWUE01
    44    41     2
SMALL
NO_CHARGES
****
Generated from CSD

@<TRIPOS>ATOM
      1 O1         5.0778    4.5208    0.9230 O.2       1 RES1    0.0000
      2 H1         5.0749    3.8505    1.4959 Du        2 SUP2    0.0000
      3 O2         5.6313    2.7290    2.6632 O.3       1 RES1    0.0000
      4 H2         5.1687    3.3397    2.2131 H         1 RES1    0.0000
      5 O3         6.4674    2.7530   -1.6869 O.2       1 RES1    0.0000
      6 O4         8.0955    3.1610   -3.0629 O.2       1 RES1    0.0000
      7 N1         7.2767    3.5126   -2.2148 N.pl3     1 RES1    0.0000
      8 C1         6.2355    4.3858    0.4798 C.2       1 RES1    0.0000
      9 C2         7.1798    3.4483    1.0316 C.2       1 RES1    0.0000
     10 C3         6.8262    2.6466    2.0779 C.2       1 RES1    0.0000
     11 C4         7.6993    1.5868    2.6482 C.ar      1 RES1    0.0000
     12 C5         7.3261    0.2419    2.4663 C.ar      1 RES1    0.0000
     13 C6         8.1204   -0.7508    3.0343 C.ar      1 RES1    0.0000
     14 C7         9.2553   -0.4501    3.7807 C.ar      1 RES1    0.0000
     15 C8         9.6107    0.8878    3.9370 C.ar      1 RES1    0.0000
     16 C9         8.8558    1.9167    3.3732 C.ar      1 RES1    0.0000
     17 C10        6.6809    5.3160   -0.6116 C.ar      1 RES1    0.0000
     18 C11        6.5812    6.6890   -0.3575 C.ar      1 RES1    0.0000
     19 C12        7.0361    7.6225   -1.2830 C.ar      1 RES1    0.0000
     20 C13        7.6048    7.2068   -2.4714 C.ar      1 RES1    0.0000
     21 C14        7.7091    5.8539   -2.7541 C.ar      1 RES1    0.0000
     22 C15        7.2422    4.9353   -1.8301 C.ar      1 RES1    0.0000
     23 C16        6.1225   -0.1299    1.6391 C.3       1 RES1    0.0000
     24 C17        9.2770    3.3487    3.5855 C.3       1 RES1    0.0000
     25 C18       10.0802   -1.5483    4.4030 C.3       1 RES1    0.0000
     26 H3         8.0615    3.3657    0.6214 H         1 RES1    0.0000
     27 H4         7.8917   -1.7212    2.9169 H         1 RES1    0.0000
     28 H5        10.4198    1.1045    4.4646 H         1 RES1    0.0000
     29 H6         6.1900    6.9938    0.5005 H         1 RES1    0.0000
     30 H7         6.9746    8.5647   -1.1027 H         1 RES1    0.0000
     31 H8         7.9365    7.8682   -3.1279 H         1 RES1    0.0000
     32 H9         8.0740    5.5641   -3.5766 H         1 RES1    0.0000
     33 H10        6.1410   -1.0769    1.4441 H         1 RES1    0.0000
     34 H11        6.0753    0.4127    0.8055 H         1 RES1    0.0000
     35 H12        5.3146    0.0445    2.1268 H         1 RES1    0.0000
     36 H13       10.9106   -1.7949    3.8547 H         1 RES1    0.0000
     37 H14        9.6080   -2.4699    4.4492 H         1 RES1    0.0000
     38 H15       10.3895   -1.3193    5.3122 H         1 RES1    0.0000
     39 H16       10.2124   -2.2704    3.7991 Du        2 SUP2    0.0000
     40 H17        9.7018   -1.7949    5.2509 Du        2 SUP2    0.0000
     41 H18       10.9835   -1.2487    4.6046 Du        2 SUP2    0.0000
     42 H19        9.5382    3.7753    2.7597 H         1 RES1    0.0000
     43 H20       10.0102    3.3704    4.2114 H         1 RES1    0.0000
     44 H21        8.5888    3.8597    3.9564 H         1 RES1    0.0000
@<TRIPOS>BOND
     1    1    8 2
     2    3    4 1
     3    5    7 2
     4    6    7 2
     5    7   22 1
     6    8    9 1
     7    9   10 2
     8   10    3 1
     9   11   10 1
    10   12   11 ar
    11   13   12 ar
    12   14   13 ar
    13   15   14 ar
    14   16   11 ar
    15   17    8 1
    16   18   17 ar
    17   19   18 ar
    18   20   19 ar
    19   21   20 ar
    20   22   17 ar
    21   23   12 1
    22   24   16 1
    23   25   14 1
    24   26    9 1
    25   27   13 1
    26   28   15 1
    27   29   18 1
    28   30   19 1
    29   31   20 1
    30   32   21 1
    31   33   23 1
    32   34   23 1
    33   35   23 1
    34   36   25 1
    35   37   25 1
    36   38   25 1
    37   42   24 1
    38   43   24 1
    39   44   24 1
    40   15   16 ar
    41   21   22 ar
@<TRIPOS>SUBSTRUCTURE
     1 RES1 1
     2 SUP2 2

@<TRIPOS>CRYSIN
  10.4208   15.3407   19.1777  90.0000  90.0000  90.0000  61 1

