# MOL2 file generated by ConQuest
# Please check atom types

@<TRIPOS>MOLECULE
JITWUE02
    44    41     2
SMALL
NO_CHARGES
****
Generated from CSD

@<TRIPOS>ATOM
      1 O1         5.0784    4.5285    0.9237 O.2       1 RES1    0.0000
      2 H1         4.8740    3.8678    1.3649 Du        2 SUP2    0.0000
      3 O2         5.6319    2.7421    2.6703 O.3       1 RES1    0.0000
      4 H2         5.2107    3.3534    2.2281 H         1 RES1    0.0000
      5 O3         6.4612    2.7546   -1.6850 O.2       1 RES1    0.0000
      6 O4         8.0851    3.1567   -3.0615 O.2       1 RES1    0.0000
      7 N1         7.2694    3.5116   -2.2151 N.pl3     1 RES1    0.0000
      8 C1         6.2341    4.3911    0.4818 C.2       1 RES1    0.0000
      9 C2         7.1748    3.4527    1.0329 C.2       1 RES1    0.0000
     10 C3         6.8249    2.6566    2.0816 C.2       1 RES1    0.0000
     11 C4         7.6984    1.5989    2.6549 C.ar      1 RES1    0.0000
     12 C5         7.3286    0.2544    2.4706 C.ar      1 RES1    0.0000
     13 C6         8.1253   -0.7366    3.0373 C.ar      1 RES1    0.0000
     14 C7         9.2561   -0.4364    3.7863 C.ar      1 RES1    0.0000
     15 C8         9.6037    0.9015    3.9460 C.ar      1 RES1    0.0000
     16 C9         8.8498    1.9294    3.3831 C.ar      1 RES1    0.0000
     17 C10        6.6797    5.3180   -0.6156 C.ar      1 RES1    0.0000
     18 C11        6.5818    6.6899   -0.3628 C.ar      1 RES1    0.0000
     19 C12        7.0387    7.6213   -1.2879 C.ar      1 RES1    0.0000
     20 C13        7.6039    7.2032   -2.4775 C.ar      1 RES1    0.0000
     21 C14        7.7045    5.8506   -2.7572 C.ar      1 RES1    0.0000
     22 C15        7.2372    4.9355   -1.8304 C.ar      1 RES1    0.0000
     23 C16        6.1266   -0.1207    1.6418 C.3       1 RES1    0.0000
     24 C17        9.2655    3.3623    3.6002 C.3       1 RES1    0.0000
     25 C18       10.0827   -1.5325    4.4069 C.3       1 RES1    0.0000
     26 H3         8.0505    3.3641    0.6421 H         1 RES1    0.0000
     27 H4         7.8921   -1.7120    2.9144 H         1 RES1    0.0000
     28 H5        10.3984    1.1239    4.4697 H         1 RES1    0.0000
     29 H6         6.1923    6.9755    0.5037 H         1 RES1    0.0000
     30 H7         6.9656    8.5708   -1.1054 H         1 RES1    0.0000
     31 H8         7.9410    7.8507   -3.1355 H         1 RES1    0.0000
     32 H9         8.0671    5.5429   -3.5873 H         1 RES1    0.0000
     33 H10        6.1527   -1.0610    1.4361 H         1 RES1    0.0000
     34 H11        6.0965    0.4038    0.8209 H         1 RES1    0.0000
     35 H12        5.3253    0.0583    2.1262 H         1 RES1    0.0000
     36 H13       10.8590   -1.7811    3.8449 H         1 RES1    0.0000
     37 H14        9.5563   -2.4567    4.4601 H         1 RES1    0.0000
     38 H15       10.4005   -1.2898    5.3252 H         1 RES1    0.0000
     39 H16       10.1712   -2.3032    3.7872 Du        2 SUP2    0.0000
     40 H17        9.7127   -1.8118    5.2349 Du        2 SUP2    0.0000
     41 H18       10.9841   -1.2284    4.6312 Du        2 SUP2    0.0000
     42 H19        9.5209    3.7895    2.7837 H         1 RES1    0.0000
     43 H20       10.0024    3.4025    4.2236 H         1 RES1    0.0000
     44 H21        8.5538    3.8893    3.9660 H         1 RES1    0.0000
@<TRIPOS>BOND
     1    1    8 2
     2    3    4 1
     3    5    7 2
     4    6    7 2
     5    7   22 1
     6    8    9 1
     7    9   10 2
     8   10    3 1
     9   11   10 1
    10   12   11 ar
    11   13   12 ar
    12   14   13 ar
    13   15   14 ar
    14   16   11 ar
    15   17    8 1
    16   18   17 ar
    17   19   18 ar
    18   20   19 ar
    19   21   20 ar
    20   22   17 ar
    21   23   12 1
    22   24   16 1
    23   25   14 1
    24   26    9 1
    25   27   13 1
    26   28   15 1
    27   29   18 1
    28   30   19 1
    29   31   20 1
    30   32   21 1
    31   33   23 1
    32   34   23 1
    33   35   23 1
    34   36   25 1
    35   37   25 1
    36   38   25 1
    37   42   24 1
    38   43   24 1
    39   44   24 1
    40   15   16 ar
    41   21   22 ar
@<TRIPOS>SUBSTRUCTURE
     1 RES1 1
     2 SUP2 2

@<TRIPOS>CRYSIN
  10.4213   15.3544   19.2246  90.0000  90.0000  90.0000  61 1

