# MOL2 file generated by ConQuest
# Please check atom types

@<TRIPOS>MOLECULE
JITWIS
    40    41     1
SMALL
NO_CHARGES
****
Generated from CSD

@<TRIPOS>ATOM
      1 O1         8.8084    3.6765   -2.9975 O.2       1 RES1    0.0000
      2 O2         9.2229    1.2819   -2.4028 O.3       1 RES1    0.0000
      3 O3         7.7010   -2.9594    3.1353 O.2       1 RES1    0.0000
      4 O4         9.1491   -3.9582    1.9470 O.2       1 RES1    0.0000
      5 N1         8.4539   -2.9993    2.1940 N.pl3     1 RES1    0.0000
      6 C1         8.3590    3.8615   -1.8300 C.2       1 RES1    0.0000
      7 C2         8.2812    2.7944   -0.9128 C.2       1 RES1    0.0000
      8 C3         8.7149    1.5352   -1.2233 C.2       1 RES1    0.0000
      9 C4         8.6686    0.3728   -0.3159 C.ar      1 RES1    0.0000
     10 C5         8.0933    0.4567    0.9434 C.ar      1 RES1    0.0000
     11 C6         8.0211   -0.6417    1.7579 C.ar      1 RES1    0.0000
     12 C7         8.5410   -1.8226    1.3250 C.ar      1 RES1    0.0000
     13 C8         9.1588   -1.9350    0.1049 C.ar      1 RES1    0.0000
     14 C9         9.2050   -0.8437   -0.7193 C.ar      1 RES1    0.0000
     15 C10        7.8944    5.2274   -1.4485 C.ar      1 RES1    0.0000
     16 C11        8.5013    5.9188   -0.4012 C.ar      1 RES1    0.0000
     17 C12        8.0165    7.1666   -0.0590 C.ar      1 RES1    0.0000
     18 C13        6.9573    7.7486   -0.6953 C.ar      1 RES1    0.0000
     19 C14        6.3919    7.0585   -1.7273 C.ar      1 RES1    0.0000
     20 C15        6.8221    5.8008   -2.1350 C.ar      1 RES1    0.0000
     21 C16        9.7001    5.3753    0.3247 C.3       1 RES1    0.0000
     22 C17        6.4474    9.1073   -0.2722 C.3       1 RES1    0.0000
     23 C18        6.1190    5.0950   -3.2632 C.3       1 RES1    0.0000
     24 H1         9.2157    2.2480   -2.8642 H         1 RES1    0.0000
     25 H2         7.9309    2.9310   -0.0765 H         1 RES1    0.0000
     26 H3         8.4755    7.6120    0.6231 H         1 RES1    0.0000
     27 H4         5.7213    7.3701   -2.2083 H         1 RES1    0.0000
     28 H5         7.7389    1.2663    1.2244 H         1 RES1    0.0000
     29 H6         7.6035   -0.5976    2.5909 H         1 RES1    0.0000
     30 H7         9.5038   -2.7745   -0.1530 H         1 RES1    0.0000
     31 H8         9.6008   -0.9533   -1.5742 H         1 RES1    0.0000
     32 H9         9.5192    4.5103    0.8527 H         1 RES1    0.0000
     33 H10       10.0649    6.0042    0.9183 H         1 RES1    0.0000
     34 H11       10.3355    5.0083   -0.2405 H         1 RES1    0.0000
     35 H12        6.9516    9.7035   -0.6231 H         1 RES1    0.0000
     36 H13        5.5724    9.2482   -0.6341 H         1 RES1    0.0000
     37 H14        6.4861    9.3336    0.6669 H         1 RES1    0.0000
     38 H15        5.4272    5.6343   -3.5201 H         1 RES1    0.0000
     39 H16        6.6841    4.9656   -4.0011 H         1 RES1    0.0000
     40 H17        5.9428    4.1830   -3.0282 H         1 RES1    0.0000
@<TRIPOS>BOND
     1    1    6 2
     2    2    8 1
     3    3    5 2
     4    4    5 2
     5    5   12 1
     6    6    7 1
     7    7    8 2
     8    8    9 1
     9    9   10 ar
    10   10   11 ar
    11   11   12 ar
    12   12   13 ar
    13   13   14 ar
    14   14    9 ar
    15   15    6 1
    16   16   15 ar
    17   17   16 ar
    18   18   17 ar
    19   19   18 ar
    20   20   15 ar
    21   21   16 1
    22   22   18 1
    23   23   20 1
    24   24    2 1
    25   25    7 1
    26   26   17 1
    27   27   19 1
    28   28   10 1
    29   29   11 1
    30   30   13 1
    31   31   14 1
    32   32   21 1
    33   33   21 1
    34   34   21 1
    35   35   22 1
    36   36   22 1
    37   37   22 1
    38   38   23 1
    39   39   23 1
    40   40   23 1
    41   19   20 ar
@<TRIPOS>SUBSTRUCTURE
     1 RES1 1

@<TRIPOS>CRYSIN
  10.6320   14.2280   11.3240  90.0000 105.1200  90.0000  14 1

