# MOL2 file generated by ConQuest
# Please check atom types

@<TRIPOS>MOLECULE
JITXAM
    57    63     1
SMALL
NO_CHARGES
****
Generated from CSD

@<TRIPOS>ATOM
      1 O1         1.3503   -2.4686    2.4237 O.3       1 RES1    0.0000
      2 O2         3.4872   -3.2637    2.0894 O.3       1 RES1    0.0000
      3 O3        -0.4251    8.7353   -0.4868 O.3       1 RES1    0.0000
      4 O4        -0.4686    6.9496   -1.9424 O.3       1 RES1    0.0000
      5 O5         0.3096    3.7280    2.5739 O.2       1 RES1    0.0000
      6 O6        -0.3409    2.7373    0.7692 O.2       1 RES1    0.0000
      7 O7         0.7819    0.5436    2.4756 O.3       1 RES1    0.0000
      8 O8         1.0799    4.4169   -1.4022 O.3       1 RES1    0.0000
      9 N1         4.0652    3.1253    2.3023 N.3       1 RES1    0.0000
     10 N2         3.6877    4.4486    1.9099 N.3       1 RES1    0.0000
     11 C1         1.9549    2.9406    1.1144 C.3       1 RES1    0.0000
     12 H1         1.9828    2.3696    0.3181 H         1 RES1    0.0000
     13 C2         2.8157    2.2925    2.2473 C.3       1 RES1    0.0000
     14 H2         2.3368    2.4254    3.0916 H         1 RES1    0.0000
     15 C3         3.0919    0.8248    2.1134 C.ar      1 RES1    0.0000
     16 C4         1.9852   -0.0569    2.2713 C.ar      1 RES1    0.0000
     17 C5         2.2222   -1.4130    2.2318 C.ar      1 RES1    0.0000
     18 C6         2.0786   -3.6146    2.0074 C.3       1 RES1    0.0000
     19 H3         1.8420   -3.8542    1.0981 H         1 RES1    0.0000
     20 H4         1.8841   -4.3675    2.5870 H         1 RES1    0.0000
     21 C7         3.5074   -1.9008    2.0678 C.ar      1 RES1    0.0000
     22 C8         4.5859   -1.0838    1.9238 C.ar      1 RES1    0.0000
     23 H5         5.4401   -1.4346    1.8170 H         1 RES1    0.0000
     24 C9         4.3737    0.3170    1.9401 C.ar      1 RES1    0.0000
     25 C10        5.5277    1.2585    1.8108 C.3       1 RES1    0.0000
     26 H6         5.9870    1.3190    2.6636 H         1 RES1    0.0000
     27 H7         6.1545    0.9069    1.1600 H         1 RES1    0.0000
     28 C11        5.0921    2.6248    1.3883 C.3       1 RES1    0.0000
     29 H8         5.8543    3.2258    1.3906 H         1 RES1    0.0000
     30 H9         4.7383    2.5892    0.4860 H         1 RES1    0.0000
     31 C12        3.1582    5.1906    3.0699 C.3       1 RES1    0.0000
     32 H10        3.8188    5.2164    3.7796 H         1 RES1    0.0000
     33 H11        2.3612    4.7530    3.4097 H         1 RES1    0.0000
     34 C13        2.8290    6.5854    2.6180 C.3       1 RES1    0.0000
     35 H12        3.6524    7.0478    2.3967 H         1 RES1    0.0000
     36 H13        2.4092    7.0642    3.3493 H         1 RES1    0.0000
     37 C14        1.9156    6.6158    1.4239 C.ar      1 RES1    0.0000
     38 C15        1.1723    7.7710    1.1213 C.ar      1 RES1    0.0000
     39 H14        1.1878    8.5116    1.6839 H         1 RES1    0.0000
     40 C16        0.4253    7.7734   -0.0302 C.ar      1 RES1    0.0000
     41 C17       -0.7993    8.3175   -1.7923 C.3       1 RES1    0.0000
     42 H15       -1.7532    8.4433   -1.9200 H         1 RES1    0.0000
     43 H16       -0.3307    8.8472   -2.4563 H         1 RES1    0.0000
     44 C18        0.3791    6.6715   -0.8729 C.ar      1 RES1    0.0000
     45 C19        1.0986    5.5499   -0.6276 C.ar      1 RES1    0.0000
     46 C20        1.8676    5.5104    0.5688 C.ar      1 RES1    0.0000
     47 C21        2.6958    4.2722    0.8195 C.3       1 RES1    0.0000
     48 H17        3.2144    4.1215    0.0015 H         1 RES1    0.0000
     49 N3         0.5304    3.1410    1.5315 N.pl3     1 RES1    0.0000
     50 C22       -0.3981   -0.2144    2.3185 C.3       1 RES1    0.0000
     51 H18       -1.1610    0.3636    2.3843 H         1 RES1    0.0000
     52 H19       -0.4434   -0.8828    3.0057 H         1 RES1    0.0000
     53 H20       -0.3932   -0.6392    1.4580 H         1 RES1    0.0000
     54 C23        1.3800    4.5604   -2.7735 C.3       1 RES1    0.0000
     55 H21        1.3688    3.6989   -3.1961 H         1 RES1    0.0000
     56 H22        2.2505    4.9527   -2.8718 H         1 RES1    0.0000
     57 H23        0.7250    5.1271   -3.1868 H         1 RES1    0.0000
@<TRIPOS>BOND
     1    1   17 1
     2    2   18 1
     3    3   40 1
     4    4   41 1
     5    5   49 2
     6    6   49 2
     7    7   16 1
     8    8   45 1
     9    9   10 1
    10   10   31 1
    11   11   12 1
    12   13    9 1
    13   14   13 1
    14   15   13 1
    15   16   15 ar
    16   17   16 ar
    17   18    1 1
    18   19   18 1
    19   20   18 1
    20   21    2 1
    21   22   21 ar
    22   23   22 1
    23   24   15 ar
    24   25   24 1
    25   26   25 1
    26   27   25 1
    27   28    9 1
    28   29   28 1
    29   30   28 1
    30   31   32 1
    31   33   31 1
    32   34   31 1
    33   35   34 1
    34   36   34 1
    35   37   34 1
    36   38   37 ar
    37   39   38 1
    38   40   38 ar
    39   41    3 1
    40   42   41 1
    41   43   41 1
    42   44    4 1
    43   45   44 ar
    44   46   37 ar
    45   47   10 1
    46   48   47 1
    47   49   11 1
    48   50    7 1
    49   51   50 1
    50   52   50 1
    51   53   50 1
    52   54    8 1
    53   55   54 1
    54   56   54 1
    55   57   54 1
    56   11   13 1
    57   11   47 1
    58   17   21 ar
    59   22   24 ar
    60   25   28 1
    61   40   44 ar
    62   45   46 ar
    63   46   47 1
@<TRIPOS>SUBSTRUCTURE
     1 RES1 1

@<TRIPOS>CRYSIN
   9.3060   14.7780    8.5480  94.5720 113.0550 101.9590   2 1

