# MOL2 file generated by ConQuest
# Please check atom types

@<TRIPOS>MOLECULE
JIVZET
    42    43     1
SMALL
NO_CHARGES
****
Generated from CSD

@<TRIPOS>ATOM
      1 O1         4.1275    3.7394   14.2656 O.2       1 RES1    0.0000
      2 O2         3.3732    4.3776   16.1642 O.2       1 RES1    0.0000
      3 O3         1.8957    1.1685   19.3117 O.2       1 RES1    0.0000
      4 O4         0.8894   -0.5993   18.6282 O.2       1 RES1    0.0000
      5 O5         0.4061    2.7424   13.1378 O.2       1 RES1    0.0000
      6 O6        -0.6678    2.9039   11.2765 O.2       1 RES1    0.0000
      7 O7        -1.0457   -1.1072    8.7332 O.2       1 RES1    0.0000
      8 O8         0.7076   -2.3347    8.4473 O.2       1 RES1    0.0000
      9 O9         4.7863    2.0329   11.6077 O.3       1 RES1    0.0000
     10 O10        5.1519    0.9011   13.5030 O.2       1 RES1    0.0000
     11 N1         3.5089    3.5433   15.2577 N.pl3     1 RES1    0.0000
     12 N2         1.5217    0.4043   18.4392 N.pl3     1 RES1    0.0000
     13 N3         0.1487    2.3715   12.0165 N.pl3     1 RES1    0.0000
     14 N4         0.1118   -1.4158    8.9788 N.pl3     1 RES1    0.0000
     15 C1         2.5577    1.3679   14.4159 C.ar      1 RES1    0.0000
     16 C2         2.8587    2.2167   15.4839 C.ar      1 RES1    0.0000
     17 C3         2.5321    1.9192   16.7976 C.ar      1 RES1    0.0000
     18 C4         1.8917    0.7385   17.0335 C.ar      1 RES1    0.0000
     19 C5         1.5507   -0.1236   16.0430 C.ar      1 RES1    0.0000
     20 C6         1.8983    0.2005   14.7342 C.ar      1 RES1    0.0000
     21 C7         2.1560    0.8555   11.9470 C.ar      1 RES1    0.0000
     22 C8         0.8715    1.1896   11.4849 C.ar      1 RES1    0.0000
     23 C9         0.2101    0.4667   10.5316 C.ar      1 RES1    0.0000
     24 C10        0.8289   -0.6271   10.0065 C.ar      1 RES1    0.0000
     25 C11        2.0675   -1.0237   10.4056 C.ar      1 RES1    0.0000
     26 C12        2.7216   -0.2718   11.3702 C.ar      1 RES1    0.0000
     27 C13        2.9318    1.6820   12.9666 C.3       1 RES1    0.0000
     28 C14        4.4373    1.4837   12.7597 C.2       1 RES1    0.0000
     29 C15        6.1737    1.8145   11.1941 C.3       1 RES1    0.0000
     30 C16        6.3154    2.1721    9.8530 C.3       1 RES1    0.0000
     31 H1         2.7393    2.5241   17.5166 H         1 RES1    0.0000
     32 H2         1.0683   -0.9323   16.2434 H         1 RES1    0.0000
     33 H3         1.6607   -0.4055   14.0233 H         1 RES1    0.0000
     34 H4        -0.6805    0.7118   10.2488 H         1 RES1    0.0000
     35 H5         2.4946   -1.7967   10.0242 H         1 RES1    0.0000
     36 H6         3.5884   -0.5603   11.6756 H         1 RES1    0.0000
     37 H7         2.6557    2.7547   12.7872 H         1 RES1    0.0000
     38 H8         6.4085    0.9123   11.3266 H         1 RES1    0.0000
     39 H9         6.7468    2.3693   11.7354 H         1 RES1    0.0000
     40 H10        6.1052    3.0844    9.7447 H         1 RES1    0.0000
     41 H11        5.7407    1.6330    9.3359 H         1 RES1    0.0000
     42 H12        7.2214    2.0173    9.5945 H         1 RES1    0.0000
@<TRIPOS>BOND
     1    1   11 2
     2    2   11 2
     3    3   12 2
     4    4   12 2
     5    5   13 2
     6    6   13 2
     7    7   14 2
     8    8   14 2
     9    9   28 1
    10   10   28 2
    11   11   16 1
    12   12   18 1
    13   13   22 1
    14   14   24 1
    15   15   16 ar
    16   16   17 ar
    17   17   18 ar
    18   18   19 ar
    19   19   20 ar
    20   20   15 ar
    21   21   22 ar
    22   22   23 ar
    23   23   24 ar
    24   24   25 ar
    25   25   26 ar
    26   26   21 ar
    27   27   15 1
    28   28   27 1
    29   29    9 1
    30   30   29 1
    31   31   17 1
    32   32   19 1
    33   33   20 1
    34   34   23 1
    35   35   25 1
    36   36   26 1
    37   37   27 1
    38   38   29 1
    39   39   29 1
    40   40   30 1
    41   41   30 1
    42   42   30 1
    43   21   27 1
@<TRIPOS>SUBSTRUCTURE
     1 RES1 1

@<TRIPOS>CRYSIN
  10.0790   11.1390   16.1620  90.0000  91.3190  90.0000  14 1

