# MOL2 file generated by ConQuest
# Please check atom types

@<TRIPOS>MOLECULE
JIWPOU
    17    17     1
SMALL
NO_CHARGES
****
Generated from CSD

@<TRIPOS>ATOM
      1 N1         7.4771   -1.3882    6.7466 N.ar      1 RES1    0.0000
      2 C1         6.3703   -1.2539    6.0096 C.ar      1 RES1    0.0000
      3 C2         5.1939   -1.9341    6.2921 C.ar      1 RES1    0.0000
      4 C3         5.1658   -2.7833    7.3617 C.ar      1 RES1    0.0000
      5 C4         6.2926   -2.9467    8.1193 C.ar      1 RES1    0.0000
      6 C5         7.4177   -2.2466    7.7688 C.ar      1 RES1    0.0000
      7 C6         6.4763   -0.3041    4.8744 C.2       1 RES1    0.0000
      8 N2         7.6484    0.3290    4.6792 N.3       1 RES1    0.0000
      9 N3         5.4439   -0.1435    4.1130 N.2       1 RES1    0.0000
     10 O1         5.7615    0.7961    3.0972 O.3       1 RES1    0.0000
     11 H1         4.4533   -1.7906    5.7733 H         1 RES1    0.0000
     12 H2         4.4157   -3.2725    7.5736 H         1 RES1    0.0000
     13 H3         6.3564   -3.5291    8.8294 H         1 RES1    0.0000
     14 H4         8.2161   -2.3490    8.2683 H         1 RES1    0.0000
     15 H5         8.2373    0.3710    5.2853 H         1 RES1    0.0000
     16 H6         7.6305    1.0135    4.0552 H         1 RES1    0.0000
     17 H7         4.9900    1.1971    2.9444 H         1 RES1    0.0000
@<TRIPOS>BOND
     1    1    2 ar
     2    2    3 ar
     3    3    4 ar
     4    4    5 ar
     5    5    6 ar
     6    6    1 ar
     7    7    2 1
     8    8    7 1
     9    9    7 2
    10   10    9 1
    11   11    3 1
    12   12    4 1
    13   13    5 1
    14   14    6 1
    15   15    8 1
    16   16    8 1
    17   17   10 1
@<TRIPOS>SUBSTRUCTURE
     1 RES1 1

@<TRIPOS>CRYSIN
  21.6720    4.6150   13.3980  90.0000 106.5800  90.0000  15 1

