# MOL2 file generated by ConQuest
# Please check atom types

@<TRIPOS>MOLECULE
JIWPOU01
    17    17     1
SMALL
NO_CHARGES
****
Generated from CSD

@<TRIPOS>ATOM
      1 O1         3.1853    0.8469    3.2633 O.3       1 RES1    0.0000
      2 H1         1.2913    1.0436    2.2520 H         1 RES1    0.0000
      3 H2         0.6757    0.3757    1.0790 H         1 RES1    0.0000
      4 H3         3.9849    1.2059    3.4826 H         1 RES1    0.0000
      5 C1         2.5208   -1.2597    0.3995 C.ar      1 RES1    0.0000
      6 C2         3.6903   -1.9647    0.1298 C.ar      1 RES1    0.0000
      7 H4         4.4499   -1.8386    0.6517 H         1 RES1    0.0000
      8 C3         3.7048   -2.8520   -0.9225 C.ar      1 RES1    0.0000
      9 H5         4.4779   -3.3228   -1.1329 H         1 RES1    0.0000
     10 C4         2.5474   -3.0315   -1.6616 C.ar      1 RES1    0.0000
     11 H6         2.5233   -3.6336   -2.3698 H         1 RES1    0.0000
     12 C5         1.4347   -2.2950   -1.3206 C.ar      1 RES1    0.0000
     13 H7         0.6585   -2.4253   -1.8159 H         1 RES1    0.0000
     14 C6         2.4425   -0.2760    1.5126 C.2       1 RES1    0.0000
     15 N1         1.3993   -1.4021   -0.3209 N.ar      1 RES1    0.0000
     16 N2         1.2746    0.3822    1.6968 N.pl3     1 RES1    0.0000
     17 N3         3.4814   -0.1201    2.2659 N.2       1 RES1    0.0000
@<TRIPOS>BOND
     1    1    4 1
     2    2   16 1
     3    3   16 1
     4    5    6 ar
     5    6    7 1
     6    8    6 ar
     7    9    8 1
     8   10    8 ar
     9   11   10 1
    10   12   10 ar
    11   13   12 1
    12   14    5 1
    13   15    5 ar
    14   16   14 1
    15   17    1 1
    16   12   15 ar
    17   14   17 2
@<TRIPOS>SUBSTRUCTURE
     1 RES1 1

@<TRIPOS>CRYSIN
  21.3670    4.6382   13.0030  90.0000 105.4680  90.0000  15 1

