# MOL2 file generated by ConQuest
# Please check atom types

@<TRIPOS>MOLECULE
JIXVAO
    44    46     1
SMALL
NO_CHARGES
****
Generated from CSD

@<TRIPOS>ATOM
      1 O1        -1.2603    3.4787   13.1674 O.3       1 RES1    0.0000
      2 O2         0.2865    5.1842   13.5452 O.3       1 RES1    0.0000
      3 O3         0.3706    1.5672    9.8219 O.3       1 RES1    0.0000
      4 O4         0.1105    3.5371    8.7786 O.2       1 RES1    0.0000
      5 O5        -3.3265   -1.6409    5.0639 O.2       1 RES1    0.0000
      6 O6        -3.7405    0.2339    4.1022 O.2       1 RES1    0.0000
      7 N1         3.4423    2.2723   11.5939 N.ar      1 RES1    0.0000
      8 N2        -3.2442   -0.4263    5.0006 N.pl3     1 RES1    0.0000
      9 C1        -1.0925    4.8335   13.6074 C.3       1 RES1    0.0000
     10 C2         1.1895    4.1568   13.9584 C.3       1 RES1    0.0000
     11 C3         1.6133    3.3204   12.7853 C.ar      1 RES1    0.0000
     12 C4         0.7075    2.8779   11.8161 C.ar      1 RES1    0.0000
     13 C5        -0.7762    3.1702   11.8665 C.3       1 RES1    0.0000
     14 C6         1.2363    2.1499   10.7761 C.ar      1 RES1    0.0000
     15 C7         2.5925    1.8618   10.6494 C.ar      1 RES1    0.0000
     16 C8         2.9464    2.9749   12.6060 C.ar      1 RES1    0.0000
     17 C9        -0.1273    2.3683    8.8473 C.2       1 RES1    0.0000
     18 C10       -0.9839    1.6062    7.9028 C.ar      1 RES1    0.0000
     19 C11       -1.6360    2.3223    6.9111 C.ar      1 RES1    0.0000
     20 C12       -2.4000    1.6589    5.9687 C.ar      1 RES1    0.0000
     21 C13       -2.4910    0.2868    6.0524 C.ar      1 RES1    0.0000
     22 C14       -1.8898   -0.4443    7.0431 C.ar      1 RES1    0.0000
     23 C15       -1.1226    0.2234    7.9844 C.ar      1 RES1    0.0000
     24 C16        3.1600    1.1129    9.4967 C.3       1 RES1    0.0000
     25 C17       -1.6161    4.8529   15.0167 C.3       1 RES1    0.0000
     26 C18       -1.8039    5.8293   12.7284 C.3       1 RES1    0.0000
     27 H1         3.5584    3.2779   13.2232 H         1 RES1    0.0000
     28 H2        -1.5402    3.3241    6.9121 H         1 RES1    0.0000
     29 H3        -2.8443    2.1419    5.2378 H         1 RES1    0.0000
     30 H4        -1.9756   -1.4405    7.1912 H         1 RES1    0.0000
     31 H5        -0.6821   -0.2583    8.7475 H         1 RES1    0.0000
     32 H6         1.9996    4.6135   14.3394 H         1 RES1    0.0000
     33 H7         0.7874    3.5572   14.6614 H         1 RES1    0.0000
     34 H8        -1.0091    3.8827   11.1517 H         1 RES1    0.0000
     35 H9        -1.2510    2.3645   11.5488 H         1 RES1    0.0000
     36 H10        3.3255    1.5959    8.8870 H         1 RES1    0.0000
     37 H11        4.0560    0.6300    9.7564 H         1 RES1    0.0000
     38 H12        2.6166    0.3990    9.2519 H         1 RES1    0.0000
     39 H13       -2.6002    4.7038   15.0049 H         1 RES1    0.0000
     40 H14       -1.4144    5.7537   15.4772 H         1 RES1    0.0000
     41 H15       -1.2289    4.2166   15.5523 H         1 RES1    0.0000
     42 H16       -1.7173    6.7092   13.1481 H         1 RES1    0.0000
     43 H17       -2.7735    5.5773   12.6758 H         1 RES1    0.0000
     44 H18       -1.3946    5.8545   11.8601 H         1 RES1    0.0000
@<TRIPOS>BOND
     1    1    9 1
     2    2    9 1
     3    3   14 1
     4    4   17 2
     5    5    8 2
     6    6    8 2
     7    7   15 ar
     8    8   21 1
     9    9   25 1
    10   10    2 1
    11   11   10 1
    12   12   11 ar
    13   13    1 1
    14   14   12 ar
    15   15   14 ar
    16   16    7 ar
    17   17    3 1
    18   18   17 1
    19   19   18 ar
    20   20   19 ar
    21   21   20 ar
    22   22   21 ar
    23   23   18 ar
    24   24   15 1
    25   25   39 1
    26   26    9 1
    27   27   16 1
    28   28   19 1
    29   29   20 1
    30   30   22 1
    31   31   23 1
    32   32   10 1
    33   33   10 1
    34   34   13 1
    35   35   13 1
    36   36   24 1
    37   37   24 1
    38   38   24 1
    39   40   25 1
    40   41   25 1
    41   42   26 1
    42   43   26 1
    43   44   26 1
    44   11   16 ar
    45   12   13 1
    46   22   23 ar
@<TRIPOS>SUBSTRUCTURE
     1 RES1 1

@<TRIPOS>CRYSIN
   7.6200   20.9990   10.8830  90.0000  99.5200  90.0000 231 1

