# MOL2 file generated by ConQuest
# Please check atom types

@<TRIPOS>MOLECULE
JIZJAD
    66    68     1
SMALL
NO_CHARGES
****
Generated from CSD

@<TRIPOS>ATOM
      1 O1         7.6025   11.0468    6.6916 O.3       1 RES1    0.0000
      2 O2         6.6501    9.0599    6.7663 O.2       1 RES1    0.0000
      3 O3         9.1017    7.1041    6.3527 O.2       1 RES1    0.0000
      4 O4         6.7044   10.4867    3.6135 O.3       1 RES1    0.0000
      5 O5         7.0908   12.0223    2.0176 O.2       1 RES1    0.0000
      6 O6         2.7907    7.5531    2.3209 O.2       1 RES1    0.0000
      7 O7         0.9436    8.6441    2.0854 O.2       1 RES1    0.0000
      8 O8         1.1951   13.0783    0.2103 O.2       1 RES1    0.0000
      9 O9         3.1196   14.0254   -0.0057 O.2       1 RES1    0.0000
     10 O10       10.3803   12.5933    8.3864 O.3       1 RES1    0.0000
     11 N1         2.1652    8.5727    2.1359 N.pl3     1 RES1    0.0000
     12 N2         2.4008   13.1133    0.3723 N.pl3     1 RES1    0.0000
     13 C1         7.4478    9.7850    6.2355 C.2       1 RES1    0.0000
     14 C2         8.2805    9.4297    5.0302 C.3       1 RES1    0.0000
     15 C3         8.1229   10.5475    4.0168 C.3       1 RES1    0.0000
     16 C4         8.4937   11.9188    4.5970 C.3       1 RES1    0.0000
     17 C5         8.6699   11.8385    6.1022 C.3       1 RES1    0.0000
     18 C6         7.9299    8.0567    4.5086 C.3       1 RES1    0.0000
     19 C7         8.2769    6.9489    5.4714 C.2       1 RES1    0.0000
     20 C8         7.5699    5.6453    5.2807 C.3       1 RES1    0.0000
     21 C9         6.3557   11.2492    2.5875 C.2       1 RES1    0.0000
     22 C10        4.9310   11.0678    2.1785 C.ar      1 RES1    0.0000
     23 C11        4.2209    9.9026    2.4037 C.ar      1 RES1    0.0000
     24 C12        2.9227    9.8193    1.9349 C.ar      1 RES1    0.0000
     25 C13        2.2978   10.8509    1.2857 C.ar      1 RES1    0.0000
     26 C14        3.0289   11.9889    1.0823 C.ar      1 RES1    0.0000
     27 C15        4.3299   12.1170    1.4937 C.ar      1 RES1    0.0000
     28 C16        9.7470   12.4774    3.9226 C.3       1 RES1    0.0000
     29 C17        8.6393   13.1738    6.8387 C.3       1 RES1    0.0000
     30 C18        7.2980   13.8783    6.7387 C.3       1 RES1    0.0000
     31 C19        9.0270   12.9921    8.2818 C.3       1 RES1    0.0000
     32 C20       10.7179   12.2483    9.7421 C.3       1 RES1    0.0000
     33 C21       12.1980   12.0566    9.8421 C.ar      1 RES1    0.0000
     34 C22       12.7179   10.8033   10.0386 C.ar      1 RES1    0.0000
     35 C23       14.0619   10.5858   10.1443 C.ar      1 RES1    0.0000
     36 C24       14.9042   11.6341   10.0443 C.ar      1 RES1    0.0000
     37 C25       14.4122   12.8902    9.8651 C.ar      1 RES1    0.0000
     38 C26       13.0677   13.1073    9.7720 C.ar      1 RES1    0.0000
     39 H1         9.2515    9.4337    5.3083 H         1 RES1    0.0000
     40 H2         8.6552   10.3420    3.2401 H         1 RES1    0.0000
     41 H3         7.7811   12.5196    4.3891 H         1 RES1    0.0000
     42 H4         9.5065   11.4113    6.2964 H         1 RES1    0.0000
     43 H5         8.4506    7.8752    3.6537 H         1 RES1    0.0000
     44 H6         6.9895    8.0114    4.3201 H         1 RES1    0.0000
     45 H7         7.6284    5.4114    4.4006 H         1 RES1    0.0000
     46 H8         7.9151    5.0903    5.9172 H         1 RES1    0.0000
     47 H9         6.6995    5.7503    5.3427 H         1 RES1    0.0000
     48 H10        4.5806    9.2237    2.8150 H         1 RES1    0.0000
     49 H11        1.3938   10.7650    1.0341 H         1 RES1    0.0000
     50 H12        4.8370   12.8800    1.3328 H         1 RES1    0.0000
     51 H13        9.8566   13.3595    4.2282 H         1 RES1    0.0000
     52 H14       10.5840   11.8966    4.1248 H         1 RES1    0.0000
     53 H15        9.6252   12.4708    2.9184 H         1 RES1    0.0000
     54 H16        9.3122   13.6827    6.4113 H         1 RES1    0.0000
     55 H17        6.6230   13.3390    7.1696 H         1 RES1    0.0000
     56 H18        7.3440   14.7178    7.2155 H         1 RES1    0.0000
     57 H19        7.1464   14.0659    5.8253 H         1 RES1    0.0000
     58 H20        8.3668   12.3289    8.7322 H         1 RES1    0.0000
     59 H21        8.9081   13.8868    8.7552 H         1 RES1    0.0000
     60 H22       10.1942   11.3998   10.0190 H         1 RES1    0.0000
     61 H23       10.5104   13.1222   10.2029 H         1 RES1    0.0000
     62 H24       12.1489   10.1282   10.1110 H         1 RES1    0.0000
     63 H25       14.4599    9.7224   10.2373 H         1 RES1    0.0000
     64 H26       15.7633   11.4789   10.0650 H         1 RES1    0.0000
     65 H27       14.9646   13.6053    9.8467 H         1 RES1    0.0000
     66 H28       12.7574   13.9644    9.6399 H         1 RES1    0.0000
@<TRIPOS>BOND
     1    1   13 1
     2    2   13 2
     3    3   19 2
     4    4   15 1
     5    5   21 2
     6    6   11 2
     7    7   11 2
     8    8   12 2
     9    9   12 2
    10   10   31 1
    11   11   24 1
    12   12   26 1
    13   13   14 1
    14   14   15 1
    15   15   16 1
    16   16   17 1
    17   17    1 1
    18   18   14 1
    19   19   18 1
    20   20   19 1
    21   21    4 1
    22   22   21 1
    23   23   22 ar
    24   24   23 ar
    25   25   24 ar
    26   26   25 ar
    27   27   22 ar
    28   28   16 1
    29   29   17 1
    30   30   29 1
    31   31   29 1
    32   32   10 1
    33   33   32 1
    34   34   33 ar
    35   35   34 ar
    36   36   35 ar
    37   37   36 ar
    38   38   33 ar
    39   39   14 1
    40   40   15 1
    41   41   16 1
    42   42   17 1
    43   43   18 1
    44   44   18 1
    45   45   20 1
    46   46   20 1
    47   47   20 1
    48   48   23 1
    49   49   25 1
    50   50   27 1
    51   51   28 1
    52   52   28 1
    53   53   28 1
    54   54   29 1
    55   55   30 1
    56   56   30 1
    57   57   30 1
    58   58   31 1
    59   59   31 1
    60   60   32 1
    61   61   32 1
    62   62   34 1
    63   63   35 1
    64   64   36 1
    65   65   37 1
    66   66   38 1
    67   26   27 ar
    68   37   38 ar
@<TRIPOS>SUBSTRUCTURE
     1 RES1 1

@<TRIPOS>CRYSIN
   9.5240   11.8187   12.6150  66.5120  83.3210  88.7580   2 1

