# MOL2 file generated by ConQuest
# Please check atom types

@<TRIPOS>MOLECULE
JOBLER
    32    33     1
SMALL
NO_CHARGES
****
Generated from CSD

@<TRIPOS>ATOM
      1 C1        -1.2414    8.6121    2.8785 C.2       1 RES1    0.0000
      2 N1        -2.4540    8.0512    3.0384 N.3       1 RES1    0.0000
      3 O1        -2.3244    6.6762    2.9386 O.3       1 RES1    0.0000
      4 C2        -0.9589    6.3799    2.7989 C.2       1 RES1    0.0000
      5 O2        -0.6135    5.2112    2.8488 O.2       1 RES1    0.0000
      6 C3        -0.2879    7.6109    2.7989 C.2       1 RES1    0.0000
      7 C4         1.2072    7.7754    2.5911 C.3       1 RES1    0.0000
      8 C5         2.0690    7.2156    3.7616 C.3       1 RES1    0.0000
      9 C6         1.5274    7.5895    5.0932 C.2       1 RES1    0.0000
     10 O3         1.1730    6.8703    5.9601 O.2       1 RES1    0.0000
     11 O4         1.4861    8.9267    5.2349 O.3       1 RES1    0.0000
     12 N2         2.1859    5.7526    3.6347 N.am      1 RES1    0.0000
     13 C7         3.3589    5.1243    3.8749 C.2       1 RES1    0.0000
     14 O5         4.3862    5.7741    4.1299 O.2       1 RES1    0.0000
     15 C8         3.3679    3.6532    3.8675 C.ar      1 RES1    0.0000
     16 C9         2.2093    2.8973    3.7818 C.ar      1 RES1    0.0000
     17 C10        2.2975    1.5007    3.7332 C.ar      1 RES1    0.0000
     18 C11        3.5442    0.8684    3.8311 C.ar      1 RES1    0.0000
     19 C12        4.6723    1.6529    3.9289 C.ar      1 RES1    0.0000
     20 C13        4.6021    3.0209    3.9316 C.ar      1 RES1    0.0000
     21 H1        -1.0435    9.6746    2.8536 H         1 RES1    0.0000
     22 H2        -3.3643    8.5814    2.9075 H         1 RES1    0.0000
     23 H3         1.4033    8.8266    2.4286 H         1 RES1    0.0000
     24 H4         1.5112    7.3147    1.6730 H         1 RES1    0.0000
     25 H5         3.0225    7.6824    3.7373 H         1 RES1    0.0000
     26 H6         1.0975    9.5111    6.0174 H         1 RES1    0.0000
     27 H7         1.3493    5.1897    3.3595 H         1 RES1    0.0000
     28 H8         1.2594    3.3815    3.7575 H         1 RES1    0.0000
     29 H9         1.4213    0.9399    3.5821 H         1 RES1    0.0000
     30 H10        3.5982   -0.2145    3.8250 H         1 RES1    0.0000
     31 H11        5.6132    1.2055    4.0409 H         1 RES1    0.0000
     32 H12        5.4693    3.6165    3.9599 H         1 RES1    0.0000
@<TRIPOS>BOND
     1    1    2 1
     2    2    3 1
     3    3    4 1
     4    4    5 2
     5    6    1 2
     6    7    6 1
     7    8    7 1
     8    9    8 1
     9   10    9 2
    10   11    9 1
    11   12    8 1
    12   13   12 1
    13   14   13 2
    14   15   13 1
    15   16   15 ar
    16   17   16 ar
    17   18   17 ar
    18   19   18 ar
    19   20   15 ar
    20   21    1 1
    21   22    2 1
    22   23    7 1
    23   24    7 1
    24   25    8 1
    25   26   11 1
    26   27   12 1
    27   28   16 1
    28   29   17 1
    29   30   18 1
    30   31   19 1
    31   32   20 1
    32    4    6 1
    33   19   20 ar
@<TRIPOS>SUBSTRUCTURE
     1 RES1 1

@<TRIPOS>CRYSIN
  17.9910   10.2160    6.7460  90.0000  90.0000  90.0000  19 1

