# MOL2 file generated by ConQuest
# Please check atom types

@<TRIPOS>MOLECULE
JOBMES
    60    61     1
SMALL
NO_CHARGES
****
Generated from CSD

@<TRIPOS>ATOM
      1 C1         1.5155   -1.4850   12.9605 C.3       1 RES1    0.0000
      2 C2         1.3108   -0.0326   13.5303 C.3       1 RES1    0.0000
      3 C3         2.5688    0.7496   13.0659 C.3       1 RES1    0.0000
      4 C4         3.1782   -0.0926   11.9824 C.3       1 RES1    0.0000
      5 C5         2.9782   -1.5111   12.4748 C.3       1 RES1    0.0000
      6 C6         3.3062   -2.6053   11.4934 C.3       1 RES1    0.0000
      7 C7         1.0614   -2.6111   13.8481 C.2       1 RES1    0.0000
      8 C8         1.8668   -3.2367   14.6615 C.2       1 RES1    0.0000
      9 C9        -0.3729   -3.0052   13.7213 C.3       1 RES1    0.0000
     10 C10        1.2215   -0.0490   15.0353 C.2       1 RES1    0.0000
     11 O1         2.1446    0.0320   15.7878 O.2       1 RES1    0.0000
     12 O2        -0.0376   -0.2095   15.4403 O.3       1 RES1    0.0000
     13 C11       -0.2636   -0.2942   16.8795 C.3       1 RES1    0.0000
     14 C12       -1.6950   -0.3814   17.1051 C.3       1 RES1    0.0000
     15 C13        0.0464    0.6099   12.9539 C.2       1 RES1    0.0000
     16 O3        -0.7180    0.0932   12.1949 O.2       1 RES1    0.0000
     17 O4        -0.0596    1.8550   13.3771 O.3       1 RES1    0.0000
     18 C14       -1.2232    2.6053   12.9045 C.3       1 RES1    0.0000
     19 C15       -1.0788    3.9933   13.3952 C.3       1 RES1    0.0000
     20 O5         2.3463    0.0386   10.7755 O.3       1 RES1    0.0000
     21 C16        2.6442    0.9961    9.9011 C.2       1 RES1    0.0000
     22 O6         3.5940    1.7228    9.9587 O.2       1 RES1    0.0000
     23 C17        1.6044    1.0706    8.8259 C.ar      1 RES1    0.0000
     24 C18        0.3861    0.4027    8.9378 C.ar      1 RES1    0.0000
     25 C19       -0.5274    0.5546    7.9104 C.ar      1 RES1    0.0000
     26 C20       -0.2920    1.3185    6.8005 C.ar      1 RES1    0.0000
     27 C21        0.9181    1.9607    6.7297 C.ar      1 RES1    0.0000
     28 C22        1.8678    1.8630    7.7210 C.ar      1 RES1    0.0000
     29 N1        -1.8195   -0.1668    8.0306 N.pl3     1 RES1    0.0000
     30 O7        -2.0017   -0.8861    8.9807 O.2       1 RES1    0.0000
     31 O8        -2.6349    0.0122    7.1381 O.2       1 RES1    0.0000
     32 N2         1.2266    2.7701    5.5458 N.pl3     1 RES1    0.0000
     33 O9         2.2113    3.4788    5.5837 O.2       1 RES1    0.0000
     34 O10        0.4662    2.7035    4.5974 O.2       1 RES1    0.0000
     35 H1         1.0022   -1.5263   12.1850 H         1 RES1    0.0000
     36 H2         3.1445    0.8282   13.8645 H         1 RES1    0.0000
     37 H3         2.3690    1.6270   12.8436 H         1 RES1    0.0000
     38 H4         4.0733    0.1699   11.7569 H         1 RES1    0.0000
     39 H5         3.4734   -1.5684   13.2717 H         1 RES1    0.0000
     40 H6         2.8223   -2.4766   10.5548 H         1 RES1    0.0000
     41 H7         4.2938   -2.5258   11.2793 H         1 RES1    0.0000
     42 H8         3.1302   -3.4442   11.7733 H         1 RES1    0.0000
     43 H9         2.7341   -2.9548   14.8196 H         1 RES1    0.0000
     44 H10        1.4596   -3.9085   15.2806 H         1 RES1    0.0000
     45 H11       -0.9130   -2.2335   13.9139 H         1 RES1    0.0000
     46 H12       -0.6518   -3.3175   12.7613 H         1 RES1    0.0000
     47 H13       -0.5789   -3.7044   14.3256 H         1 RES1    0.0000
     48 H14        0.0622    0.5434   17.3718 H         1 RES1    0.0000
     49 H15       -0.3751   -1.3288   17.0919 H         1 RES1    0.0000
     50 H16       -1.8337   -0.3574   17.9811 H         1 RES1    0.0000
     51 H17       -2.0581    0.7475   16.7626 H         1 RES1    0.0000
     52 H18       -1.5472   -1.4907   16.8614 H         1 RES1    0.0000
     53 H19       -1.8997    2.2921   13.3376 H         1 RES1    0.0000
     54 H20       -1.2005    2.4855   11.7898 H         1 RES1    0.0000
     55 H21       -1.9816    4.5268   13.3047 H         1 RES1    0.0000
     56 H22       -1.2133    3.9744   14.5561 H         1 RES1    0.0000
     57 H23       -0.1782    4.4212   13.0083 H         1 RES1    0.0000
     58 H24        0.1833   -0.1364    9.7809 H         1 RES1    0.0000
     59 H25       -0.8062    1.3800    6.1419 H         1 RES1    0.0000
     60 H26        2.6587    2.2776    7.7226 H         1 RES1    0.0000
@<TRIPOS>BOND
     1    1    2 1
     2    2    3 1
     3    3    4 1
     4    4    5 1
     5    5    1 1
     6    6    5 1
     7    7    1 1
     8    8    7 2
     9    9    7 1
    10   10    2 1
    11   11   10 2
    12   12   10 1
    13   13   12 1
    14   14   13 1
    15   15    2 1
    16   16   15 2
    17   17   15 1
    18   18   17 1
    19   19   18 1
    20   20    4 1
    21   21   20 1
    22   22   21 2
    23   23   21 1
    24   24   23 ar
    25   25   24 ar
    26   26   25 ar
    27   27   26 ar
    28   28   23 ar
    29   29   25 1
    30   30   29 2
    31   31   29 2
    32   32   27 1
    33   33   32 2
    34   34   32 2
    35   35    1 1
    36   36    3 1
    37   37    3 1
    38   38    4 1
    39   39    5 1
    40   40    6 1
    41   41    6 1
    42   42    6 1
    43   43    8 1
    44   44    8 1
    45   45    9 1
    46   46    9 1
    47   47    9 1
    48   48   13 1
    49   49   13 1
    50   50   14 1
    51   51   14 1
    52   52   14 1
    53   53   18 1
    54   54   18 1
    55   55   19 1
    56   56   19 1
    57   57   19 1
    58   58   24 1
    59   59   26 1
    60   60   28 1
    61   27   28 ar
@<TRIPOS>SUBSTRUCTURE
     1 RES1 1

@<TRIPOS>CRYSIN
   7.1870   10.7220   16.9450 100.6500  96.4500 100.0500   2 1

