# MOL2 file generated by ConQuest
# Please check atom types

@<TRIPOS>MOLECULE
JOCJAM
    15    16     1
SMALL
NO_CHARGES
****
Generated from CSD

@<TRIPOS>ATOM
      1 O1         1.0335    4.5313    6.2174 O.3       1 RES1    0.0000
      2 O2        -0.4280    3.2696    2.6453 O.3       1 RES1    0.0000
      3 N1         1.9011    3.4712    6.5447 N.2       1 RES1    0.0000
      4 C1         1.8263    2.6394    5.5411 C.2       1 RES1    0.0000
      5 C2         0.9427    3.0834    4.5298 C.2       1 RES1    0.0000
      6 C3         0.4854    4.2761    5.0118 C.2       1 RES1    0.0000
      7 C4         0.5709    2.4379    3.2283 C.3       1 RES1    0.0000
      8 C5         1.7461    2.2758    2.2489 C.3       1 RES1    0.0000
      9 C6         1.1805    1.3382    1.1839 C.3       1 RES1    0.0000
     10 C7         0.1364    0.4644    1.9165 C.3       1 RES1    0.0000
     11 C8         0.1056    0.9861    3.3331 C.3       1 RES1    0.0000
     12 C9        -0.4512    5.3260    4.5477 C.3       1 RES1    0.0000
     13 C10        2.6609    1.3880    5.6319 C.3       1 RES1    0.0000
     14 C11        2.2827    3.6051    1.6992 C.3       1 RES1    0.0000
     15 C12       -1.2430    0.8139    4.0388 C.3       1 RES1    0.0000
@<TRIPOS>BOND
     1    1    3 1
     2    2    7 1
     3    3    4 2
     4    4    5 1
     5    5    6 2
     6    6    1 1
     7    7    5 1
     8    8    7 1
     9    9    8 1
    10   10    9 1
    11   11    7 1
    12   12    6 1
    13   13    4 1
    14   14    8 1
    15   15   11 1
    16   10   11 1
@<TRIPOS>SUBSTRUCTURE
     1 RES1 1

@<TRIPOS>CRYSIN
   7.7630   12.7570   12.7890  90.0000  91.4000  90.0000 231 1

