# MOL2 file generated by ConQuest
# Please check atom types

@<TRIPOS>MOLECULE
JOCZAD
    43    44     1
SMALL
NO_CHARGES
****
Generated from CSD

@<TRIPOS>ATOM
      1 H1        -1.2769    6.0493    6.3291 H         1 RES1    0.0000
      2 H2         1.0386    2.6703    6.4761 H         1 RES1    0.0000
      3 H3         1.7586    2.5182    3.9528 H         1 RES1    0.0000
      4 H4         1.5264    5.1190    3.0936 H         1 RES1    0.0000
      5 H5         0.8644    7.0738   12.6526 H         1 RES1    0.0000
      6 H6         1.2024    6.8612   10.9595 H         1 RES1    0.0000
      7 H7         0.4715    5.9936   11.5868 H         1 RES1    0.0000
      8 H8        -4.8582   10.5628    7.4238 H         1 RES1    0.0000
      9 H9        -4.2384    9.1808    6.6644 H         1 RES1    0.0000
     10 H10       -2.0112   10.0210    6.7693 H         1 RES1    0.0000
     11 H11       -2.4931   11.4379    7.6618 H         1 RES1    0.0000
     12 H12       -1.4700   12.7263    5.8976 H         1 RES1    0.0000
     13 H13       -2.1474   12.7351    4.3249 H         1 RES1    0.0000
     14 H14       -1.2152   11.7074    4.8357 H         1 RES1    0.0000
     15 H15        1.1559    5.9459    7.6055 H         1 RES1    0.0000
     16 H16        0.2585    4.6449    8.0430 H         1 RES1    0.0000
     17 C1        -1.1163    7.6367   10.2825 C.ar      1 RES1    0.0000
     18 C2        -1.2188    6.8828    8.1843 C.ar      1 RES1    0.0000
     19 C3        -2.7175    8.3517    8.9444 C.ar      1 RES1    0.0000
     20 C4         0.6241    6.9298   11.7339 C.3       1 RES1    0.0000
     21 C5        -3.9611    9.1874    8.6842 C.3       1 RES1    0.0000
     22 C6        -4.0249    9.9388    7.3631 C.3       1 RES1    0.0000
     23 C7        -2.7747   10.7164    6.9805 C.3       1 RES1    0.0000
     24 C8        -2.9457   11.3671    5.6347 C.2       1 RES1    0.0000
     25 C9        -1.9014   12.2963    5.1579 C.3       1 RES1    0.0000
     26 C10        0.4677    5.3126    7.3866 C.3       1 RES1    0.0000
     27 C11        0.8598    4.6415    6.1296 C.2       1 RES1    0.0000
     28 C12        1.1056    3.3741    5.8272 C.2       1 RES1    0.0000
     29 C13        1.4858    3.3424    4.4610 C.2       1 RES1    0.0000
     30 C14        1.4598    4.5628    4.0256 C.2       1 RES1    0.0000
     31 N1        -2.3134    7.6506    7.9054 N.ar      1 RES1    0.0000
     32 N2        -2.2045    8.4198   10.1614 N.ar      1 RES1    0.0000
     33 N3        -0.5905    6.8459    9.3795 N.ar      1 RES1    0.0000
     34 N4        -4.1579   10.1288    9.8776 N.pl3     1 RES1    0.0000
     35 N5        -5.1924    8.2550    8.7451 N.pl3     1 RES1    0.0000
     36 N6        -0.7441    6.1216    7.2075 N.3       1 RES1    0.0000
     37 O1        -0.5564    7.7060   11.4907 O.3       1 RES1    0.0000
     38 O2        -3.9080   11.1400    4.9742 O.2       1 RES1    0.0000
     39 O3        -3.4877   11.1346    9.8845 O.2       1 RES1    0.0000
     40 O4        -4.9462    9.7972   10.7442 O.2       1 RES1    0.0000
     41 O5        -5.0247    7.1291    9.1437 O.2       1 RES1    0.0000
     42 O6        -6.2498    8.7127    8.3758 O.2       1 RES1    0.0000
     43 O7         1.0815    5.4245    5.0432 O.3       1 RES1    0.0000
@<TRIPOS>BOND
     1    1   36 1
     2    2   28 1
     3    3   29 1
     4    4   30 1
     5    5   20 1
     6    6   20 1
     7    7   20 1
     8    8   22 1
     9    9   22 1
    10   10   23 1
    11   11   23 1
    12   12   25 1
    13   13   25 1
    14   14   25 1
    15   15   26 1
    16   16   26 1
    17   17   32 ar
    18   18   31 ar
    19   19   21 1
    20   20   37 1
    21   21   22 1
    22   22   23 1
    23   23   24 1
    24   24   25 1
    25   26   27 1
    26   27   28 2
    27   28   29 1
    28   29   30 2
    29   30   43 1
    30   31   19 ar
    31   32   19 ar
    32   33   17 ar
    33   34   21 1
    34   35   21 1
    35   36   18 1
    36   37   17 1
    37   38   24 2
    38   39   34 2
    39   40   34 2
    40   41   35 2
    41   42   35 2
    42   43   27 1
    43   18   33 ar
    44   26   36 1
@<TRIPOS>SUBSTRUCTURE
     1 RES1 1

@<TRIPOS>CRYSIN
   8.3880   10.9330   19.5820  90.0000 100.2000  90.0000 231 1

