# MOL2 file generated by ConQuest
# Please check atom types

@<TRIPOS>MOLECULE
JODLUK
    55    56     1
SMALL
NO_CHARGES
****
Generated from CSD

@<TRIPOS>ATOM
      1 O1         7.5130    5.6501    7.3534 O.2       1 RES1    0.0000
      2 O2         8.2949    6.2598    5.4221 O.2       1 RES1    0.0000
      3 O3        10.8775   10.1658    4.8363 O.2       1 RES1    0.0000
      4 O4        11.2470   11.5091    6.5085 O.2       1 RES1    0.0000
      5 N1         7.3357    7.8056   10.6622 N.2       1 RES1    0.0000
      6 N2         7.5933    7.3058    9.3954 N.pl3     1 RES1    0.0000
      7 H1         7.2977    6.5044    9.1036 H         1 RES1    0.0000
      8 N3         8.1149    6.4590    6.6227 N.pl3     1 RES1    0.0000
      9 N4        10.7101   10.5199    6.0046 N.pl3     1 RES1    0.0000
     10 C1         6.6873    7.0409   11.4693 C.2       1 RES1    0.0000
     11 C2         6.3747    7.6159   12.8306 C.3       1 RES1    0.0000
     12 H2         6.4886    6.9002   13.5051 H         1 RES1    0.0000
     13 H3         5.4226    7.8867   12.8425 H         1 RES1    0.0000
     14 C3         7.2228    8.8181   13.2567 C.3       1 RES1    0.0000
     15 H4         6.8459    9.1959   14.0909 H         1 RES1    0.0000
     16 H5         7.1631    9.5152   12.5559 H         1 RES1    0.0000
     17 C4         8.7023    8.4766   13.4919 C.3       1 RES1    0.0000
     18 H6         9.0306    7.9398   12.7282 H         1 RES1    0.0000
     19 H7         9.2235    9.3180   13.5129 H         1 RES1    0.0000
     20 C5         8.9657    7.7032   14.7853 C.3       1 RES1    0.0000
     21 H8         8.3755    6.9090   14.8067 H         1 RES1    0.0000
     22 H9         8.7234    8.2777   15.5539 H         1 RES1    0.0000
     23 C6        10.4184    7.2416   14.9536 C.3       1 RES1    0.0000
     24 H10       11.0206    7.9898   14.7159 H         1 RES1    0.0000
     25 H11       10.5754    7.0205   15.9063 H         1 RES1    0.0000
     26 C7        10.7808    6.0235   14.0964 C.3       1 RES1    0.0000
     27 H12       10.4632    6.1742   13.1714 H         1 RES1    0.0000
     28 H13       11.7659    5.9308   14.0674 H         1 RES1    0.0000
     29 C8        10.1741    4.7254   14.6267 C.3       1 RES1    0.0000
     30 H14        9.2315    4.8984   14.8756 H         1 RES1    0.0000
     31 H15       10.6569    4.4681   15.4521 H         1 RES1    0.0000
     32 C9        10.2097    3.5434   13.6565 C.3       1 RES1    0.0000
     33 H16        9.8118    2.7545   14.1034 H         1 RES1    0.0000
     34 H17       11.1549    3.3279   13.4550 H         1 RES1    0.0000
     35 C10        9.4677    3.7852   12.3339 C.3       1 RES1    0.0000
     36 H18       10.0458    4.3306   11.7429 H         1 RES1    0.0000
     37 H19        9.3244    2.9125   11.8886 H         1 RES1    0.0000
     38 C11        8.1161    4.4870   12.4746 C.3       1 RES1    0.0000
     39 H20        7.5469    3.9719   13.0994 H         1 RES1    0.0000
     40 H21        8.2572    5.3871   12.8629 H         1 RES1    0.0000
     41 C12        7.3923    4.6263   11.1411 C.3       1 RES1    0.0000
     42 H22        7.0379    3.7403   10.8783 H         1 RES1    0.0000
     43 H23        8.0459    4.9048   10.4523 H         1 RES1    0.0000
     44 C13        6.2283    5.6401   11.1582 C.3       1 RES1    0.0000
     45 H24        5.7812    5.6341   10.2753 H         1 RES1    0.0000
     46 H25        5.5641    5.3590   11.8369 H         1 RES1    0.0000
     47 C14        8.3225    8.0675    8.5454 C.ar      1 RES1    0.0000
     48 C15        8.6076    7.6955    7.2029 C.ar      1 RES1    0.0000
     49 C16        9.3676    8.5097    6.3657 C.ar      1 RES1    0.0000
     50 H26        9.5498    8.2460    5.4713 H         1 RES1    0.0000
     51 C17        9.8503    9.7012    6.8545 C.ar      1 RES1    0.0000
     52 C18        9.5827   10.1204    8.1634 C.ar      1 RES1    0.0000
     53 H27        9.9127   10.9535    8.4771 H         1 RES1    0.0000
     54 C19        8.8387    9.3147    8.9857 C.ar      1 RES1    0.0000
     55 H28        8.6632    9.5990    9.8758 H         1 RES1    0.0000
@<TRIPOS>BOND
     1    1    8 2
     2    2    8 2
     3    3    9 2
     4    4    9 2
     5    5    6 1
     6    6    7 1
     7    8   48 1
     8    9   51 1
     9   10    5 2
    10   11   10 1
    11   12   11 1
    12   13   11 1
    13   14   11 1
    14   15   14 1
    15   16   14 1
    16   17   14 1
    17   18   17 1
    18   19   17 1
    19   20   17 1
    20   21   20 1
    21   22   20 1
    22   23   20 1
    23   24   23 1
    24   25   23 1
    25   26   23 1
    26   27   26 1
    27   28   26 1
    28   29   26 1
    29   30   29 1
    30   31   29 1
    31   32   29 1
    32   33   32 1
    33   34   32 1
    34   35   32 1
    35   36   35 1
    36   37   35 1
    37   38   35 1
    38   39   38 1
    39   40   38 1
    40   41   38 1
    41   42   41 1
    42   43   41 1
    43   44   10 1
    44   45   44 1
    45   46   44 1
    46   47    6 1
    47   48   47 ar
    48   49   48 ar
    49   50   49 1
    50   51   49 ar
    51   52   51 ar
    52   53   52 1
    53   54   47 ar
    54   55   54 1
    55   41   44 1
    56   52   54 ar
@<TRIPOS>SUBSTRUCTURE
     1 RES1 1

@<TRIPOS>CRYSIN
   7.7859    7.8937   16.1300  81.9790  77.6080  80.2340   2 1

