# MOL2 file generated by ConQuest
# Please check atom types

@<TRIPOS>MOLECULE
JODRUQ
    58    59     1
SMALL
NO_CHARGES
****
Generated from CSD

@<TRIPOS>ATOM
      1 N1         5.7425    6.2305    6.6554 N.2       1 RES1    0.0000
      2 N2        -2.7056   -0.1723    9.0669 N.2       1 RES1    0.0000
      3 O1         4.6126    5.5702    6.1734 O.3       1 RES1    0.0000
      4 O2        -1.5814    0.6138    9.2979 O.3       1 RES1    0.0000
      5 O3         7.6690    6.8371    8.3176 O.3       1 RES1    0.0000
      6 H1         6.9822    6.4578    8.0785 H         1 RES1    0.0000
      7 O4         9.8465    8.1359    8.7813 O.3       1 RES1    0.0000
      8 O5        -4.6968   -1.4465    7.8402 O.3       1 RES1    0.0000
      9 H2        -4.0096   -0.9998    7.8816 H         1 RES1    0.0000
     10 O6        -6.8769   -2.8397    8.0432 O.3       1 RES1    0.0000
     11 C1         4.0247    4.8120    7.2315 C.3       1 RES1    0.0000
     12 H3         3.7174    5.4086    7.9314 H         1 RES1    0.0000
     13 H4         4.6846    4.2112    7.6111 H         1 RES1    0.0000
     14 C2         2.8764    4.0276    6.6930 C.3       1 RES1    0.0000
     15 H5         3.2017    3.3887    6.0405 H         1 RES1    0.0000
     16 H6         2.2610    4.6268    6.2434 H         1 RES1    0.0000
     17 C3         2.1407    3.2894    7.7974 C.3       1 RES1    0.0000
     18 H7         2.7791    2.7435    8.2838 H         1 RES1    0.0000
     19 H8         1.7795    3.9409    8.4178 H         1 RES1    0.0000
     20 C4         1.0129    2.4015    7.3205 C.3       1 RES1    0.0000
     21 H9         0.4142    2.9179    6.7594 H         1 RES1    0.0000
     22 H10        1.3782    1.6798    6.7831 H         1 RES1    0.0000
     23 C5         0.2335    1.8161    8.4759 C.3       1 RES1    0.0000
     24 H11        0.8379    1.2904    9.0228 H         1 RES1    0.0000
     25 H12       -0.1003    2.5430    9.0240 H         1 RES1    0.0000
     26 C6        -0.9278    0.9469    8.0714 C.3       1 RES1    0.0000
     27 H13       -1.5282    1.4270    7.4807 H         1 RES1    0.0000
     28 H14       -0.6173    0.1482    7.6194 H         1 RES1    0.0000
     29 C7         6.2393    7.0405    5.8092 C.2       1 RES1    0.0000
     30 H15        5.8282    7.1495    4.9812 H         1 RES1    0.0000
     31 C8         7.4350    7.7959    6.1158 C.ar      1 RES1    0.0000
     32 C9         8.1020    7.6587    7.3237 C.ar      1 RES1    0.0000
     33 C10        9.2743    8.3751    7.5744 C.ar      1 RES1    0.0000
     34 C11        9.7608    9.2420    6.6265 C.ar      1 RES1    0.0000
     35 H16       10.5400    9.7245    6.7879 H         1 RES1    0.0000
     36 C12        9.0786    9.3946    5.4260 C.ar      1 RES1    0.0000
     37 H17        9.4033    9.9890    4.7878 H         1 RES1    0.0000
     38 C13        7.9428    8.6884    5.1686 C.ar      1 RES1    0.0000
     39 H18        7.5015    8.8003    4.3584 H         1 RES1    0.0000
     40 C14       11.0495    8.8102    9.1142 C.3       1 RES1    0.0000
     41 H19       11.6902    8.6869    8.4107 H         1 RES1    0.0000
     42 H20       11.4004    8.4515    9.9339 H         1 RES1    0.0000
     43 H21       10.8705    9.7477    9.2257 H         1 RES1    0.0000
     44 C15       -3.2293   -0.5548   10.1604 C.2       1 RES1    0.0000
     45 H22       -2.8199   -0.2993   10.9553 H         1 RES1    0.0000
     46 C16       -4.4203   -1.3596   10.2352 C.ar      1 RES1    0.0000
     47 C17       -5.1095   -1.7586    9.0952 C.ar      1 RES1    0.0000
     48 C18       -6.2747   -2.5116    9.2162 C.ar      1 RES1    0.0000
     49 C19       -6.7267   -2.8642   10.4689 C.ar      1 RES1    0.0000
     50 H23       -7.5012   -3.3713   10.5507 H         1 RES1    0.0000
     51 C20       -6.0436   -2.4741   11.6006 C.ar      1 RES1    0.0000
     52 H24       -6.3564   -2.7203   12.4417 H         1 RES1    0.0000
     53 C21       -4.9085   -1.7269   11.4867 C.ar      1 RES1    0.0000
     54 H25       -4.4550   -1.4590   12.2530 H         1 RES1    0.0000
     55 C22       -8.0146   -3.6904    8.1082 C.3       1 RES1    0.0000
     56 H26       -7.7705   -4.5193    8.5234 H         1 RES1    0.0000
     57 H27       -8.3382   -3.8596    7.2197 H         1 RES1    0.0000
     58 H28       -8.7036   -3.2638    8.6230 H         1 RES1    0.0000
@<TRIPOS>BOND
     1    1    3 1
     2    2    4 1
     3    3   11 1
     4    4   26 1
     5    5    6 1
     6    7   33 1
     7    8    9 1
     8   10   48 1
     9   11   12 1
    10   13   11 1
    11   14   11 1
    12   15   14 1
    13   16   14 1
    14   17   14 1
    15   18   17 1
    16   19   17 1
    17   20   17 1
    18   21   20 1
    19   22   20 1
    20   23   20 1
    21   24   23 1
    22   25   23 1
    23   26   23 1
    24   27   26 1
    25   28   26 1
    26   29    1 2
    27   30   29 1
    28   31   29 1
    29   32    5 1
    30   33   32 ar
    31   34   33 ar
    32   35   34 1
    33   36   34 ar
    34   37   36 1
    35   38   31 ar
    36   39   38 1
    37   40    7 1
    38   41   40 1
    39   42   40 1
    40   43   40 1
    41   44    2 2
    42   45   44 1
    43   46   44 1
    44   47    8 1
    45   48   47 ar
    46   49   48 ar
    47   50   49 1
    48   51   49 ar
    49   52   51 1
    50   53   46 ar
    51   54   53 1
    52   55   10 1
    53   56   55 1
    54   57   55 1
    55   58   55 1
    56   31   32 ar
    57   36   38 ar
    58   46   47 ar
    59   51   53 ar
@<TRIPOS>SUBSTRUCTURE
     1 RES1 1

@<TRIPOS>CRYSIN
   6.2913   29.0630   12.0481  90.0000 100.0630  90.0000 231 1

