# MOL2 file generated by ConQuest
# Please check atom types

@<TRIPOS>MOLECULE
JOFWIK
    82    87     1
SMALL
NO_CHARGES
****
Generated from CSD

@<TRIPOS>ATOM
      1 N1         3.3037    7.7840    7.7267 N.3       1 RES1    0.0000
      2 O1         3.4148    8.3650    9.0700 O.3       1 RES1    0.0000
      3 O2         5.1471    6.2998    8.0034 O.3       1 RES1    0.0000
      4 O3         5.5741   10.7113    5.7062 O.2       1 RES1    0.0000
      5 O4         3.2823    6.7987   12.1921 O.2       1 RES1    0.0000
      6 O5         7.7287    5.2593    8.3134 O.3       1 RES1    0.0000
      7 O6         2.1965    4.7588    6.8736 O.3       1 RES1    0.0000
      8 O7         3.8975    3.2920    6.9035 O.3       1 RES1    0.0000
      9 C1         2.9248    7.3766    9.9496 C.3       1 RES1    0.0000
     10 C2         3.0289    6.0314    9.2186 C.3       1 RES1    0.0000
     11 C3         3.7074    6.3898    7.9009 C.3       1 RES1    0.0000
     12 C4         5.4813    4.9435    7.6669 C.3       1 RES1    0.0000
     13 C5         4.4983    4.5267    6.5628 C.3       1 RES1    0.0000
     14 C6         3.3579    5.5419    6.6763 C.3       1 RES1    0.0000
     15 C7         4.1942    8.6082    6.8813 C.3       1 RES1    0.0000
     16 C8         3.4976    9.9139    6.5704 C.3       1 RES1    0.0000
     17 C9         4.3728   10.8913    5.8301 C.2       1 RES1    0.0000
     18 C10        3.7389   12.1749    5.3877 C.3       1 RES1    0.0000
     19 C11        3.7108    7.3829   11.2639 C.2       1 RES1    0.0000
     20 C12        5.1519    7.9782   11.2288 C.3       1 RES1    0.0000
     21 C13        6.9114    4.8867    7.2160 C.3       1 RES1    0.0000
     22 C14        9.1604    5.3335    8.0692 C.3       1 RES1    0.0000
     23 C15        9.5149    6.6251    7.3313 C.ar      1 RES1    0.0000
     24 C16       10.8621    6.8698    6.9616 C.ar      1 RES1    0.0000
     25 C17       11.2137    8.0792    6.3757 C.ar      1 RES1    0.0000
     26 C18       10.2501    9.0392    6.1144 C.ar      1 RES1    0.0000
     27 C19        8.9291    8.8134    6.4799 C.ar      1 RES1    0.0000
     28 C20        8.5644    7.6245    7.0786 C.ar      1 RES1    0.0000
     29 C21        9.7840    5.4519    9.4731 C.ar      1 RES1    0.0000
     30 C22       11.0506    4.9704    9.7498 C.ar      1 RES1    0.0000
     31 C23       11.6208    5.1709   10.9923 C.ar      1 RES1    0.0000
     32 C24       10.9305    5.8688   11.9650 C.ar      1 RES1    0.0000
     33 C25        9.7039    6.3614   11.6968 C.ar      1 RES1    0.0000
     34 C26        9.1003    6.1893   10.4603 C.ar      1 RES1    0.0000
     35 C27        9.5839    4.0609    7.3219 C.ar      1 RES1    0.0000
     36 C28        9.5573    2.8531    7.9684 C.ar      1 RES1    0.0000
     37 C29       10.0382    1.6910    5.9445 C.ar      1 RES1    0.0000
     38 C30        9.8153    1.6736    7.2861 C.ar      1 RES1    0.0000
     39 C31       10.0579    2.8910    5.2656 C.ar      1 RES1    0.0000
     40 C32        9.8233    4.0672    5.9581 C.ar      1 RES1    0.0000
     41 C33        2.5248    3.3867    6.6106 C.3       1 RES1    0.0000
     42 C34        2.2470    3.0410    5.1862 C.3       1 RES1    0.0000
     43 C35        1.7593    2.5105    7.5747 C.3       1 RES1    0.0000
     44 H1         1.8905    7.6371   10.1733 H         1 RES1    0.0000
     45 H2         3.6283    5.4519    9.7600 H         1 RES1    0.0000
     46 H3         1.9660    5.7756    8.9539 H         1 RES1    0.0000
     47 H4         5.3994    4.3041    8.5457 H         1 RES1    0.0000
     48 H5         4.9861    4.5188    5.5978 H         1 RES1    0.0000
     49 H6         3.1774    6.0898    5.7967 H         1 RES1    0.0000
     50 H7         4.4104    8.0761    5.9556 H         1 RES1    0.0000
     51 H8         5.1238    8.8087    7.4150 H         1 RES1    0.0000
     52 H9         7.1674    3.8762    6.8984 H         1 RES1    0.0000
     53 H10        7.0742    5.5798    6.3903 H         1 RES1    0.0000
     54 H11       11.6289    6.1277    7.1272 H         1 RES1    0.0000
     55 H12       12.2444    8.2734    6.1213 H         1 RES1    0.0000
     56 H13       10.5283    9.9629    5.6285 H         1 RES1    0.0000
     57 H14        8.1796    9.5681    6.2955 H         1 RES1    0.0000
     58 H15        7.5293    7.4745    7.3510 H         1 RES1    0.0000
     59 H16       11.5998    4.4336    8.9906 H         1 RES1    0.0000
     60 H17       12.6065    4.7825   11.2024 H         1 RES1    0.0000
     61 H18       11.3542    6.0314   12.9445 H         1 RES1    0.0000
     62 H19        9.1974    6.8998   12.4833 H         1 RES1    0.0000
     63 H20        8.1275    6.6172   10.2707 H         1 RES1    0.0000
     64 H21        9.3324    2.8294    9.0248 H         1 RES1    0.0000
     65 H22       10.1985    0.7579    5.4227 H         1 RES1    0.0000
     66 H23        9.8437    0.7279    7.8078 H         1 RES1    0.0000
     67 H24       10.2540    2.9115    4.2041 H         1 RES1    0.0000
     68 H25        9.8267    5.0051    5.4244 H         1 RES1    0.0000
     69 H26        2.5024    1.9973    5.0094 H         1 RES1    0.0000
     70 H27        1.1900    3.1973    4.9735 H         1 RES1    0.0000
     71 H28        2.8473    3.6773    4.5354 H         1 RES1    0.0000
     72 H29        2.0010    1.4652    7.3843 H         1 RES1    0.0000
     73 H30        2.0365    2.7662    8.5969 H         1 RES1    0.0000
     74 H31        0.6893    2.6683    7.4372 H         1 RES1    0.0000
     75 H32        3.1860   10.3907    7.5004 H         1 RES1    0.0000
     76 H33        2.6221    9.7197    5.9505 H         1 RES1    0.0000
     77 H34        2.6680   12.1370    5.5824 H         1 RES1    0.0000
     78 H35        4.1803   13.0054    5.9377 H         1 RES1    0.0000
     79 H36        3.9100   12.3138    4.3202 H         1 RES1    0.0000
     80 H37        5.3189    8.4692   10.2707 H         1 RES1    0.0000
     81 H38        5.2634    8.7045   12.0341 H         1 RES1    0.0000
     82 H39        5.8794    7.1777   11.3587 H         1 RES1    0.0000
@<TRIPOS>BOND
     1    1    2 1
     2    2    9 1
     3    3   11 1
     4    4   17 2
     5    5   19 2
     6    6   21 1
     7    7   14 1
     8    8   13 1
     9    9   10 1
    10   10   11 1
    11   11    1 1
    12   12    3 1
    13   13   12 1
    14   14   11 1
    15   15    1 1
    16   16   15 1
    17   17   16 1
    18   18   17 1
    19   19    9 1
    20   20   19 1
    21   21   12 1
    22   22    6 1
    23   23   22 1
    24   24   23 ar
    25   25   24 ar
    26   26   25 ar
    27   27   26 ar
    28   28   23 ar
    29   29   22 1
    30   30   29 ar
    31   31   30 ar
    32   32   31 ar
    33   33   32 ar
    34   34   29 ar
    35   35   22 1
    36   36   35 ar
    37   37   38 ar
    38   38   36 ar
    39   39   37 ar
    40   40   35 ar
    41   41    7 1
    42   42   41 1
    43   43   41 1
    44   44    9 1
    45   45   10 1
    46   46   10 1
    47   47   12 1
    48   48   13 1
    49   49   14 1
    50   50   15 1
    51   51   15 1
    52   52   21 1
    53   53   21 1
    54   54   24 1
    55   55   25 1
    56   56   26 1
    57   57   27 1
    58   58   28 1
    59   59   30 1
    60   60   31 1
    61   61   32 1
    62   62   33 1
    63   63   34 1
    64   64   36 1
    65   65   37 1
    66   66   38 1
    67   67   39 1
    68   68   40 1
    69   69   42 1
    70   70   42 1
    71   71   42 1
    72   72   43 1
    73   73   43 1
    74   74   43 1
    75   75   16 1
    76   76   16 1
    77   77   18 1
    78   78   18 1
    79   79   18 1
    80   80   20 1
    81   81   20 1
    82   82   20 1
    83    8   41 1
    84   13   14 1
    85   27   28 ar
    86   33   34 ar
    87   39   40 ar
@<TRIPOS>SUBSTRUCTURE
     1 RES1 1

@<TRIPOS>CRYSIN
  11.7220   15.7890    8.5930  90.0000  96.3850  90.0000   4 1

