# MOL2 file generated by ConQuest
# Please check atom types

@<TRIPOS>MOLECULE
JOGGUH
    22    23     1
SMALL
NO_CHARGES
****
Generated from CSD

@<TRIPOS>ATOM
      1 O1        11.3614    1.3495    7.7503 O.3       1 RES1    0.0000
      2 O2         9.6505    1.3829    9.2996 O.3       1 RES1    0.0000
      3 O3        10.0684   -3.4792   13.3106 O.2       1 RES1    0.0000
      4 O4         8.0064   -3.7411   13.8639 O.2       1 RES1    0.0000
      5 O5         4.7257   -0.5320   12.3904 O.2       1 RES1    0.0000
      6 O6         5.3179    1.0854   11.1245 O.2       1 RES1    0.0000
      7 N1         8.8926   -3.1543   13.2776 N.pl3     1 RES1    0.0000
      8 N2         5.5447    0.0696   11.7322 N.pl3     1 RES1    0.0000
      9 C1        10.5381    2.1494    8.5638 C.3       1 RES1    0.0000
     10 C2         9.7256    3.0261    7.6183 C.3       1 RES1    0.0000
     11 C3        10.0524    2.5351    6.2631 C.3       1 RES1    0.0000
     12 C4        10.7533    1.2355    6.4825 C.3       1 RES1    0.0000
     13 C5        11.7863    0.8514    5.4632 C.3       1 RES1    0.0000
     14 C6        10.2598    0.4816   10.2043 C.3       1 RES1    0.0000
     15 C7         9.1780   -0.2230   10.9673 C.ar      1 RES1    0.0000
     16 C8         7.8648    0.2071   10.9692 C.ar      1 RES1    0.0000
     17 C9         6.9348   -0.4586   11.7147 C.ar      1 RES1    0.0000
     18 C10        7.2349   -1.5533   12.4719 C.ar      1 RES1    0.0000
     19 C11        8.5420   -1.9757   12.4661 C.ar      1 RES1    0.0000
     20 C12        9.5104   -1.3451   11.7380 C.ar      1 RES1    0.0000
     21 H1        10.9958    2.4765    9.3384 H         1 RES1    0.0000
     22 H2        10.0680    0.4602    6.7174 H         1 RES1    0.0000
@<TRIPOS>BOND
     1    1    9 1
     2    2    9 1
     3    3    7 2
     4    4    7 2
     5    5    8 2
     6    6    8 2
     7    7   19 1
     8    8   17 1
     9    9   10 1
    10   10   11 1
    11   11   12 1
    12   12    1 1
    13   13   12 1
    14   14    2 1
    15   15   14 1
    16   16   15 ar
    17   17   16 ar
    18   18   17 ar
    19   19   18 ar
    20   20   15 ar
    21   21    9 1
    22   22   12 1
    23   19   20 ar
@<TRIPOS>SUBSTRUCTURE
     1 RES1 1

@<TRIPOS>CRYSIN
  12.6750    5.4790   19.4410  90.0000  92.9900  90.0000 231 1

