# MOL2 file generated by ConQuest
# Please check atom types

@<TRIPOS>MOLECULE
JOGHAO
    22    23     1
SMALL
NO_CHARGES
****
Generated from CSD

@<TRIPOS>ATOM
      1 O1         1.3064    7.5177    9.3080 O.3       1 RES1    0.0000
      2 O2         0.3201    9.1923   10.6045 O.3       1 RES1    0.0000
      3 O3        -4.1374   14.2862    8.6350 O.2       1 RES1    0.0000
      4 O4        -2.0245   14.5935    8.4668 O.2       1 RES1    0.0000
      5 O5        -5.6875   10.6798   11.4491 O.2       1 RES1    0.0000
      6 O6        -4.4031    9.0162   11.8102 O.2       1 RES1    0.0000
      7 N1        -2.9811   13.9317    8.7943 N.pl3     1 RES1    0.0000
      8 N2        -4.6287   10.1139   11.3448 N.pl3     1 RES1    0.0000
      9 C1         1.4922    8.4236   10.3600 C.3       1 RES1    0.0000
     10 C2         1.7715    7.5894   11.5725 C.3       1 RES1    0.0000
     11 C3         0.8349    6.4346   11.3313 C.3       1 RES1    0.0000
     12 C4         0.8687    6.2476    9.8385 C.3       1 RES1    0.0000
     13 C5        -0.4183    5.8456    9.1801 C.3       1 RES1    0.0000
     14 C6         0.0377   10.0957    9.5559 C.3       1 RES1    0.0000
     15 C7        -1.2778   10.7781    9.8026 C.ar      1 RES1    0.0000
     16 C8        -2.3113   10.1515   10.4957 C.ar      1 RES1    0.0000
     17 C9        -3.5392   10.7891   10.6146 C.ar      1 RES1    0.0000
     18 C10       -3.7971   12.0167   10.0684 C.ar      1 RES1    0.0000
     19 C11       -2.7548   12.6214    9.4022 C.ar      1 RES1    0.0000
     20 C12       -1.5037   12.0398    9.2620 C.ar      1 RES1    0.0000
     21 H1         2.2758    8.8887   10.1391 H         1 RES1    0.0000
     22 H2         1.5821    5.5615    9.5895 H         1 RES1    0.0000
@<TRIPOS>BOND
     1    1    9 1
     2    2    9 1
     3    3    7 2
     4    4    7 2
     5    5    8 2
     6    6    8 2
     7    7   19 1
     8    8   17 1
     9    9   10 1
    10   10   11 1
    11   11   12 1
    12   12    1 1
    13   13   12 1
    14   14    2 1
    15   15   14 1
    16   16   15 ar
    17   17   16 ar
    18   18   17 ar
    19   19   18 ar
    20   20   15 ar
    21   21    9 1
    22   22   12 1
    23   19   20 ar
@<TRIPOS>SUBSTRUCTURE
     1 RES1 1

@<TRIPOS>CRYSIN
   9.6090   12.1430   11.3200  90.0000  97.7800  90.0000 231 1

