# MOL2 file generated by ConQuest
# Please check atom types

@<TRIPOS>MOLECULE
JOHBUD
    17    18     1
SMALL
NO_CHARGES
****
Generated from CSD

@<TRIPOS>ATOM
      1 C1        -1.4755    0.8222    1.8868 C.3       1 RES1    0.0000
      2 C2         0.0424    0.8306    1.7332 C.3       1 RES1    0.0000
      3 C3        -0.6904    2.0747    1.8060 C.3       1 RES1    0.0000
      4 C4        -0.7674    3.3417    1.0547 C.3       1 RES1    0.0000
      5 C5        -0.6698    3.3466    2.5633 C.3       1 RES1    0.0000
      6 N1        -2.2319    0.3491    0.7366 N.pl3     1 RES1    0.0000
      7 N2         0.7619    0.3816    2.9592 N.pl3     1 RES1    0.0000
      8 O1        -3.2906   -0.1824    0.9070 O.2       1 RES1    0.0000
      9 O2        -1.7622    0.5646   -0.3988 O.2       1 RES1    0.0000
     10 O3         0.2907    0.5646    4.0345 O.2       1 RES1    0.0000
     11 O4         1.8318   -0.2185    2.7238 O.2       1 RES1    0.0000
     12 H1        -2.1202    0.4887    2.4973 H         1 RES1    0.0000
     13 H2         0.6882    0.4713    1.1226 H         1 RES1    0.0000
     14 H3        -1.5241    3.6102    0.5800 H         1 RES1    0.0000
     15 H4         0.0239    3.6078    0.5081 H         1 RES1    0.0000
     16 H5         0.1380    3.6198    2.9779 H         1 RES1    0.0000
     17 H6        -1.4100    3.6222    3.0498 H         1 RES1    0.0000
@<TRIPOS>BOND
     1    1    2 1
     2    2    3 1
     3    3    1 1
     4    4    3 1
     5    5    3 1
     6    6    1 1
     7    7    2 1
     8    8    6 2
     9    9    6 2
    10   10    7 2
    11   11    7 2
    12   12    1 1
    13   13    2 1
    14   14    4 1
    15   15    4 1
    16   16    5 1
    17   17    5 1
    18    4    5 1
@<TRIPOS>SUBSTRUCTURE
     1 RES1 1

@<TRIPOS>CRYSIN
  11.4210    6.0190   10.1770  90.0000 104.6200  90.0000   9 1

