# MOL2 file generated by ConQuest
# Please check atom types

@<TRIPOS>MOLECULE
JOHMUQ
    45    48     1
SMALL
NO_CHARGES
****
Generated from CSD

@<TRIPOS>ATOM
      1 C1         6.7324    2.2956    6.8811 C.3       1 RES1    0.0000
      2 H1         7.4078    2.9841    6.7498 H         1 RES1    0.0000
      3 H2         7.1324    1.5557    7.3839 H         1 RES1    0.0000
      4 C2         5.5382    2.8642    7.6706 C.3       1 RES1    0.0000
      5 C3         4.3713    1.9009    7.3366 C.3       1 RES1    0.0000
      6 C4         4.7294    1.3676    5.9429 C.2       1 RES1    0.0000
      7 C5         6.1297    1.7939    5.5707 C.3       1 RES1    0.0000
      8 H3         6.0438    2.5340    4.9560 H         1 RES1    0.0000
      9 H4         6.6459    1.0068    5.1495 H         1 RES1    0.0000
     10 O1         3.9923    0.6845    5.2686 O.2       1 RES1    0.0000
     11 C6         2.9741    2.5130    7.3463 C.3       1 RES1    0.0000
     12 H5         2.7408    2.8195    8.2533 H         1 RES1    0.0000
     13 H6         2.8843    3.2631    6.7091 H         1 RES1    0.0000
     14 H7         2.3202    1.8465    7.0686 H         1 RES1    0.0000
     15 C7         5.8467    2.9890    9.1493 C.ar      1 RES1    0.0000
     16 C8         5.2290    2.1835   10.1219 C.ar      1 RES1    0.0000
     17 C9         4.2468    1.1504    9.7131 C.2       1 RES1    0.0000
     18 C10        4.4114    0.6810    8.2924 C.3       1 RES1    0.0000
     19 H8         3.6971    0.0834    8.0323 H         1 RES1    0.0000
     20 H9         5.2446    0.2062    8.1900 H         1 RES1    0.0000
     21 C11        6.7913    3.9394    9.5470 C.ar      1 RES1    0.0000
     22 H10        7.1807    4.5115    8.8767 H         1 RES1    0.0000
     23 C12        7.1218    4.1081   10.8805 C.ar      1 RES1    0.0000
     24 H11        7.7632    4.7719   11.1517 H         1 RES1    0.0000
     25 C13        6.5092    3.3146   11.8484 C.ar      1 RES1    0.0000
     26 H12        6.7303    3.4184   12.7782 H         1 RES1    0.0000
     27 C14        5.5773    2.3590   11.4705 C.ar      1 RES1    0.0000
     28 H13        5.1881    1.7945   12.1369 H         1 RES1    0.0000
     29 O2         5.3023    4.1632    7.0998 O.3       1 RES1    0.0000
     30 H14        4.6063    4.5045    7.4997 H         1 RES1    0.0000
     31 C15        3.2476    0.7700   10.5304 C.2       1 RES1    0.0000
     32 H15        3.1605    1.2535   11.3893 H         1 RES1    0.0000
     33 C16        2.1950   -0.2200   10.2234 C.ar      1 RES1    0.0000
     34 C17        0.8665    0.0645   10.5623 C.ar      1 RES1    0.0000
     35 H16        0.6465    0.9344   10.9677 H         1 RES1    0.0000
     36 C18       -0.1550   -0.8224   10.2578 C.ar      1 RES1    0.0000
     37 H17       -1.0823   -0.6343   10.4721 H         1 RES1    0.0000
     38 C19        0.1709   -2.0024    9.6100 C.ar      1 RES1    0.0000
     39 C20        1.4759   -2.3364    9.2845 C.ar      1 RES1    0.0000
     40 H18        1.6743   -3.1730    8.8743 H         1 RES1    0.0000
     41 C21        2.4850   -1.4475    9.6097 C.ar      1 RES1    0.0000
     42 H19        3.3879   -1.6944    9.4403 H         1 RES1    0.0000
     43 N1        -0.8919   -2.9606    9.3106 N.pl3     1 RES1    0.0000
     44 O3        -2.0246   -2.7216    9.7179 O.2       1 RES1    0.0000
     45 O4        -0.6121   -3.9857    8.6874 O.2       1 RES1    0.0000
@<TRIPOS>BOND
     1    1    2 1
     2    3    1 1
     3    4    1 1
     4    5    4 1
     5    6    5 1
     6    7    1 1
     7    8    7 1
     8    9    7 1
     9   10    6 2
    10   11    5 1
    11   12   11 1
    12   13   11 1
    13   14   11 1
    14   15    4 1
    15   16   15 ar
    16   17   16 1
    17   18    5 1
    18   19   18 1
    19   20   18 1
    20   21   15 ar
    21   22   21 1
    22   23   21 ar
    23   24   23 1
    24   25   23 ar
    25   26   25 1
    26   27   16 ar
    27   28   27 1
    28   29    4 1
    29   30   29 1
    30   31   17 2
    31   32   31 1
    32   33   31 1
    33   34   33 ar
    34   35   34 1
    35   36   34 ar
    36   37   36 1
    37   38   36 ar
    38   39   38 ar
    39   40   39 1
    40   41   33 ar
    41   42   41 1
    42   43   38 1
    43   44   43 2
    44   45   43 2
    45    6    7 1
    46   17   18 1
    47   25   27 ar
    48   39   41 ar
@<TRIPOS>SUBSTRUCTURE
     1 RES1 1

@<TRIPOS>CRYSIN
   7.5109   10.1850   12.3307  89.1670  76.2700  69.0340   2 1

