# MOL2 file generated by ConQuest
# Please check atom types

@<TRIPOS>MOLECULE
JOKCIX
    71    74     1
SMALL
NO_CHARGES
****
Generated from CSD

@<TRIPOS>ATOM
      1 C1         7.6964    8.9029   -0.0370 C.3       1 RES1    0.0000
      2 C2         7.6939   10.5579    2.4241 C.3       1 RES1    0.0000
      3 C3         5.7358    8.1328    1.5003 C.ar      1 RES1    0.0000
      4 C4         6.5660   10.5698    1.4010 C.3       1 RES1    0.0000
      5 C5         8.9197    8.8907    0.8667 C.3       1 RES1    0.0000
      6 C6         9.0052   10.1828    1.6994 C.3       1 RES1    0.0000
      7 C7         6.3686    9.2267    0.6551 C.3       1 RES1    0.0000
      8 C8         7.8552   11.8953    3.1371 C.ar      1 RES1    0.0000
      9 C9         6.3982    7.3689    2.4601 C.ar      1 RES1    0.0000
     10 C10       10.1178   10.0028    2.7154 C.2       1 RES1    0.0000
     11 C11        8.6575    5.6771   -1.1099 C.3       1 RES1    0.0000
     12 C12        4.3860    6.1860    2.9996 C.ar      1 RES1    0.0000
     13 C13        8.3571    7.4627   -2.9317 C.3       1 RES1    0.0000
     14 C14        4.3799    7.8906    1.3242 C.ar      1 RES1    0.0000
     15 C15        5.7362    6.3951    3.1858 C.ar      1 RES1    0.0000
     16 C16        8.0156   13.0685    2.4190 C.ar      1 RES1    0.0000
     17 C17        9.7990    5.0898   -1.9476 C.3       1 RES1    0.0000
     18 C18        3.7161    6.9403    2.0863 C.ar      1 RES1    0.0000
     19 C19        9.5038    6.7953   -3.7032 C.3       1 RES1    0.0000
     20 C20        8.5073    8.9774   -3.0959 C.3       1 RES1    0.0000
     21 C21        9.0322    5.5823    0.3670 C.3       1 RES1    0.0000
     22 C22        7.0043    7.0557   -3.4985 C.3       1 RES1    0.0000
     23 C23        9.6383    5.3144   -3.4312 C.3       1 RES1    0.0000
     24 C24        7.3667    4.8803   -1.2876 C.3       1 RES1    0.0000
     25 C25        7.8680   11.9504    4.5196 C.ar      1 RES1    0.0000
     26 C26        8.2042   14.3299    4.4180 C.ar      1 RES1    0.0000
     27 C27        8.0436   13.1932    5.1527 C.ar      1 RES1    0.0000
     28 C28        8.1999   14.2713    3.0617 C.ar      1 RES1    0.0000
     29 N1         8.5756    7.1378   -1.4737 N.3       1 RES1    0.0000
     30 N2         5.2410   10.9370    2.0203 N.pl3     1 RES1    0.0000
     31 O1         4.3710   11.3503    1.2604 O.2       1 RES1    0.0000
     32 O2        10.1157    8.8298    0.0902 O.3       1 RES1    0.0000
     33 O3         7.4286    7.6611   -0.7187 O.3       1 RES1    0.0000
     34 O4        10.0322    9.3427    3.6557 O.2       1 RES1    0.0000
     35 O5         5.0703   10.7658    3.2104 O.2       1 RES1    0.0000
     36 H1         7.5073    9.8738    3.1062 H         1 RES1    0.0000
     37 H2         6.7204   11.2701    0.7445 H         1 RES1    0.0000
     38 H3         9.2558   10.9308    1.1070 H         1 RES1    0.0000
     39 H4         7.8698    9.6362   -0.7229 H         1 RES1    0.0000
     40 H5         5.7056    9.4360   -0.0611 H         1 RES1    0.0000
     41 H6         8.9029    8.1336    1.4970 H         1 RES1    0.0000
     42 H7         7.6418    9.5079   -2.7418 H         1 RES1    0.0000
     43 H8         8.6200    9.1702   -4.0398 H         1 RES1    0.0000
     44 H9         9.3099    9.3234   -2.6157 H         1 RES1    0.0000
     45 H10        8.8208    4.8064   -3.7621 H         1 RES1    0.0000
     46 H11        7.3361    7.5222    2.6453 H         1 RES1    0.0000
     47 H12        6.2357    5.9118    3.8389 H         1 RES1    0.0000
     48 H13        8.0174   13.0384    1.3709 H         1 RES1    0.0000
     49 H14        6.8471    7.5566   -4.3018 H         1 RES1    0.0000
     50 H15        9.3623    6.9875   -4.6839 H         1 RES1    0.0000
     51 H16        3.9039    5.5709    3.5257 H         1 RES1    0.0000
     52 H17        8.3842   15.2446    4.8316 H         1 RES1    0.0000
     53 H18       10.3841    7.2330   -3.4115 H         1 RES1    0.0000
     54 H19        9.1702    4.6531    0.5870 H         1 RES1    0.0000
     55 H20        3.8864    8.4494    0.6244 H         1 RES1    0.0000
     56 H21        9.9125    8.1508   -0.5929 H         1 RES1    0.0000
     57 H22        8.3056    5.9087    0.9415 H         1 RES1    0.0000
     58 H23       10.9169   10.5696    2.4995 H         1 RES1    0.0000
     59 H24        9.8514    4.0918   -1.7215 H         1 RES1    0.0000
     60 H25        9.8863    6.1135    0.4865 H         1 RES1    0.0000
     61 H26        8.2968   15.1367    2.5665 H         1 RES1    0.0000
     62 H27        6.9519    6.1494   -3.7089 H         1 RES1    0.0000
     63 H28        6.2532    7.1470   -2.7851 H         1 RES1    0.0000
     64 H29        6.5589    5.3770   -0.9336 H         1 RES1    0.0000
     65 H30        7.8514   11.0715    5.0483 H         1 RES1    0.0000
     66 H31       10.3841    4.9486   -3.9295 H         1 RES1    0.0000
     67 H32       10.6549    5.5334   -1.6191 H         1 RES1    0.0000
     68 H33        2.7074    6.7452    1.9283 H         1 RES1    0.0000
     69 H34        7.1440    4.6828   -2.2612 H         1 RES1    0.0000
     70 H35        8.0348   13.0556    6.0686 H         1 RES1    0.0000
     71 H36        7.4933    4.0480   -0.7997 H         1 RES1    0.0000
@<TRIPOS>BOND
     1    1    5 1
     2    2    4 1
     3    3    7 1
     4    4    7 1
     5    5    6 1
     6    6    2 1
     7    7    1 1
     8    8    2 1
     9    9    3 ar
    10   10    6 1
    11   11   17 1
    12   12   15 ar
    13   13   19 1
    14   14    3 ar
    15   15    9 ar
    16   16    8 ar
    17   17   23 1
    18   18   12 ar
    19   19   23 1
    20   20   13 1
    21   21   11 1
    22   22   13 1
    23   23   45 1
    24   24   11 1
    25   25    8 ar
    26   26   27 ar
    27   27   25 ar
    28   28   16 ar
    29   29   11 1
    30   30    4 1
    31   31   30 2
    32   32    5 1
    33   33    1 1
    34   34   10 2
    35   35   30 2
    36   36    2 1
    37   37    4 1
    38   38    6 1
    39   39    1 1
    40   40    7 1
    41   41    5 1
    42   42   20 1
    43   43   20 1
    44   44   20 1
    45   46    9 1
    46   47   15 1
    47   48   16 1
    48   49   22 1
    49   50   19 1
    50   51   12 1
    51   52   26 1
    52   53   19 1
    53   54   21 1
    54   55   14 1
    55   56   32 1
    56   57   21 1
    57   58   10 1
    58   59   17 1
    59   60   21 1
    60   61   28 1
    61   62   22 1
    62   63   22 1
    63   64   24 1
    64   65   25 1
    65   66   23 1
    66   67   17 1
    67   68   18 1
    68   69   24 1
    69   70   27 1
    70   71   24 1
    71   13   29 1
    72   14   18 ar
    73   26   28 ar
    74   29   33 1
@<TRIPOS>SUBSTRUCTURE
     1 RES1 1

@<TRIPOS>CRYSIN
   8.7335   15.6355   19.6968  90.0000  90.0000  90.0000  19 1

