# MOL2 file generated by ConQuest
# Please check atom types

@<TRIPOS>MOLECULE
JOKWEN
    38    41     1
SMALL
USER_CHARGES
****
Generated from CSD

@<TRIPOS>ATOM
      1 N1         3.8273   11.0939    2.3199 N.3       1 RES1    0.0000
      2 N2         4.9360   12.0647    7.1418 N.pl3     1 RES1    1.0000
      3 O1         3.5770    9.5498    0.4756 O.3       1 RES1    0.0000
      4 O2         5.1756   12.6469    8.2967 O.2       1 RES1   -1.0000
      5 C1         2.2107    9.5461    0.6639 C.ar      1 RES1    0.0000
      6 C2         1.4977    8.6242   -0.1281 C.ar      1 RES1    0.0000
      7 H1         1.9608    8.0738   -0.7484 H         1 RES1    0.0000
      8 C3         0.1494    8.5221   -0.0054 C.ar      1 RES1    0.0000
      9 H2        -0.3248    7.9005   -0.5459 H         1 RES1    0.0000
     10 C4        -0.5618    9.3310    0.9182 C.ar      1 RES1    0.0000
     11 C5        -1.9616    9.2187    1.0890 C.ar      1 RES1    0.0000
     12 H3        -2.4431    8.5751    0.5822 H         1 RES1    0.0000
     13 C6        -2.6345   10.0203    1.9709 C.ar      1 RES1    0.0000
     14 H4        -3.5732    9.9220    2.0817 H         1 RES1    0.0000
     15 C7        -1.9417   10.9819    2.7075 C.ar      1 RES1    0.0000
     16 H5        -2.4151   11.5494    3.3051 H         1 RES1    0.0000
     17 C8        -0.5825   11.1154    2.5776 C.ar      1 RES1    0.0000
     18 H6        -0.1273   11.7746    3.0880 H         1 RES1    0.0000
     19 C9         0.1544   10.2858    1.6939 C.ar      1 RES1    0.0000
     20 C10        1.5769   10.3750    1.5604 C.ar      1 RES1    0.0000
     21 C11        2.3827   11.3693    2.3605 C.3       1 RES1    0.0000
     22 H7         2.2174   12.2791    2.0063 H         1 RES1    0.0000
     23 H8         2.0764   11.3506    3.3015 H         1 RES1    0.0000
     24 C12        4.2258   10.7434    0.9973 C.3       1 RES1    0.0000
     25 H9         5.2052   10.6021    0.9873 H         1 RES1    0.0000
     26 H10        4.0268   11.5030    0.3933 H         1 RES1    0.0000
     27 C13        4.2547   10.1494    3.3532 C.3       1 RES1    0.0000
     28 H11        5.1032    9.7233    3.0762 H         1 RES1    0.0000
     29 H12        3.5732    9.4384    3.4486 H         1 RES1    0.0000
     30 C14        4.4525   10.8330    4.6893 C.ar      1 RES1    0.0000
     31 C15        4.5431   12.2184    4.8055 C.ar      1 RES1    0.0000
     32 H13        4.4387   12.7605    4.0326 H         1 RES1    0.0000
     33 C16        4.7821   12.8101    6.0198 C.ar      1 RES1    0.0000
     34 H14        4.8411   13.7563    6.0752 H         1 RES1    0.0000
     35 C17        4.8676   10.7060    7.0598 C.ar      1 RES1    0.0000
     36 H15        4.9932   10.1781    7.8390 H         1 RES1    0.0000
     37 C18        4.6179   10.0961    5.8536 C.ar      1 RES1    0.0000
     38 H16        4.5571    9.1492    5.8164 H         1 RES1    0.0000
@<TRIPOS>BOND
     1    1   21 1
     2    2    4 1
     3    3    5 1
     4    5    6 ar
     5    6    7 1
     6    8    6 ar
     7    9    8 1
     8   10    8 ar
     9   11   10 ar
    10   12   11 1
    11   13   11 ar
    12   14   13 1
    13   15   13 ar
    14   16   15 1
    15   17   15 ar
    16   18   17 1
    17   19   10 ar
    18   20    5 ar
    19   21   20 1
    20   22   21 1
    21   23   21 1
    22   24    1 1
    23   25   24 1
    24   26   24 1
    25   27    1 1
    26   28   27 1
    27   29   27 1
    28   30   27 1
    29   31   30 ar
    30   32   31 1
    31   33    2 ar
    32   34   33 1
    33   35    2 ar
    34   36   35 1
    35   37   30 ar
    36   38   37 1
    37    3   24 1
    38   17   19 ar
    39   19   20 ar
    40   31   33 ar
    41   35   37 ar
@<TRIPOS>SUBSTRUCTURE
     1 RES1 1

@<TRIPOS>CRYSIN
  13.9731   11.0404    9.1838  90.0000  98.5210  90.0000  14 1

