# MOL2 file generated by ConQuest
# Please check atom types

@<TRIPOS>MOLECULE
JOLDOD
    57    60     1
SMALL
NO_CHARGES
****
Generated from CSD

@<TRIPOS>ATOM
      1 O1         3.7792    2.9158    3.6960 O.3       1 RES1    0.0000
      2 C1         3.8925    1.8072    4.5931 C.3       1 RES1    0.0000
      3 C2         5.2556    1.9027    5.3279 C.3       1 RES1    0.0000
      4 C3         6.3172    1.7084    4.2049 C.2       1 RES1    0.0000
      5 C4         6.0951    2.5935    3.0445 C.ar      1 RES1    0.0000
      6 C5         7.1390    2.8889    2.1496 C.ar      1 RES1    0.0000
      7 C6         6.9213    3.7627    1.1209 C.ar      1 RES1    0.0000
      8 C7         5.6582    4.3367    0.9564 C.ar      1 RES1    0.0000
      9 C8         4.6273    4.0289    1.8030 C.ar      1 RES1    0.0000
     10 C9         4.8494    3.1607    2.8669 C.ar      1 RES1    0.0000
     11 O2         4.0132    0.6009    3.8956 O.3       1 RES1    0.0000
     12 C10        3.0157    0.3684    2.8866 C.3       1 RES1    0.0000
     13 O3         5.3266    3.2236    5.8368 O.3       1 RES1    0.0000
     14 C11        6.5776    3.5650    6.4510 C.3       1 RES1    0.0000
     15 O4         7.2558    0.9469    4.3233 O.2       1 RES1    0.0000
     16 O5         7.8568    4.1603    0.2018 O.3       1 RES1    0.0000
     17 C12        9.1900    3.7594    0.3970 C.3       1 RES1    0.0000
     18 C13        2.6428    1.8701    5.4508 C.ar      1 RES1    0.0000
     19 C14        2.1615    0.6975    6.0101 C.ar      1 RES1    0.0000
     20 C15        1.0070    0.7042    6.7669 C.ar      1 RES1    0.0000
     21 C16        0.3611    1.9049    6.9577 C.ar      1 RES1    0.0000
     22 C17        0.8225    3.0933    6.4444 C.ar      1 RES1    0.0000
     23 C18        1.9815    3.0686    5.6833 C.ar      1 RES1    0.0000
     24 N1        -0.9157    1.9049    7.7057 N.pl3     1 RES1    0.0000
     25 O6        -1.3756    0.8323    8.0566 O.2       1 RES1    0.0000
     26 O7        -1.4249    2.9686    7.9755 O.2       1 RES1    0.0000
     27 C19        5.2210    0.9660    7.6925 C.ar      1 RES1    0.0000
     28 C20        4.3115    1.8477    8.2628 C.ar      1 RES1    0.0000
     29 C21        4.0698    1.8207    9.6206 C.ar      1 RES1    0.0000
     30 C22        4.7365    0.9244   10.4519 C.ar      1 RES1    0.0000
     31 C23        5.6548    0.0607    9.8838 C.ar      1 RES1    0.0000
     32 C24        5.9085    0.0651    8.5216 C.ar      1 RES1    0.0000
     33 N2         5.4856    0.8851    6.3216 N.pl3     1 RES1    0.0000
     34 C25        4.4389    0.8503   11.8886 C.2       1 RES1    0.0000
     35 O8         3.5922    1.5017   12.4414 O.2       1 RES1    0.0000
     36 H1         7.9199    2.3475    2.2593 H         1 RES1    0.0000
     37 H2         5.4789    4.9758    0.3071 H         1 RES1    0.0000
     38 H3         3.7240    4.4479    1.7328 H         1 RES1    0.0000
     39 H4         3.2350   -0.5953    2.5444 H         1 RES1    0.0000
     40 H5         2.1686    0.4942    3.1805 H         1 RES1    0.0000
     41 H6         3.2678    0.9210    2.0838 H         1 RES1    0.0000
     42 H7         6.6969    4.5153    6.5146 H         1 RES1    0.0000
     43 H8         6.6727    3.1225    7.4139 H         1 RES1    0.0000
     44 H9         7.4191    3.1562    6.0321 H         1 RES1    0.0000
     45 H10        9.7310    4.1895   -0.3290 H         1 RES1    0.0000
     46 H11        9.4595    4.0548    1.1845 H         1 RES1    0.0000
     47 H12        9.2320    2.7855    0.4387 H         1 RES1    0.0000
     48 H13        2.6145   -0.1123    5.8785 H         1 RES1    0.0000
     49 H14        0.6626   -0.0337    7.1727 H         1 RES1    0.0000
     50 H15        0.3088    3.8863    6.6024 H         1 RES1    0.0000
     51 H16        2.3593    3.8638    5.3740 H         1 RES1    0.0000
     52 H17        3.7885    2.5497    7.6772 H         1 RES1    0.0000
     53 H18        3.4498    2.4261   10.0242 H         1 RES1    0.0000
     54 H19        6.0824   -0.5616   10.3971 H         1 RES1    0.0000
     55 H20        6.5794   -0.5728    8.0939 H         1 RES1    0.0000
     56 H21        6.2582    0.4380    6.0979 H         1 RES1    0.0000
     57 H22        4.9590    0.1797   12.3931 H         1 RES1    0.0000
@<TRIPOS>BOND
     1    1    2 1
     2    2    3 1
     3    3    4 1
     4    4    5 1
     5    5    6 ar
     6    6    7 ar
     7    7    8 ar
     8    8    9 ar
     9    9   10 ar
    10   10    1 1
    11   11    2 1
    12   12   11 1
    13   13    3 1
    14   14   13 1
    15   15    4 2
    16   16    7 1
    17   17   16 1
    18   18    2 1
    19   19   18 ar
    20   20   19 ar
    21   21   20 ar
    22   22   21 ar
    23   23   18 ar
    24   24   21 1
    25   25   24 2
    26   26   24 2
    27   27   28 ar
    28   28   29 ar
    29   29   30 ar
    30   30   31 ar
    31   31   32 ar
    32   32   27 ar
    33   33    3 1
    34   34   30 1
    35   35   34 2
    36   36    6 1
    37   37    8 1
    38   38    9 1
    39   39   12 1
    40   40   12 1
    41   41   12 1
    42   42   14 1
    43   43   14 1
    44   44   14 1
    45   45   17 1
    46   46   17 1
    47   47   17 1
    48   48   19 1
    49   49   20 1
    50   50   22 1
    51   51   23 1
    52   52   28 1
    53   53   29 1
    54   54   31 1
    55   55   32 1
    56   56   33 1
    57   57   34 1
    58    5   10 ar
    59   22   23 ar
    60   27   33 1
@<TRIPOS>SUBSTRUCTURE
     1 RES1 1

@<TRIPOS>CRYSIN
  18.5210   11.2320   22.3340  90.0000 100.8500  90.0000  15 1

