# MOL2 file generated by ConQuest
# Please check atom types

@<TRIPOS>MOLECULE
JOLNAZ
    27    27     1
SMALL
NO_CHARGES
****
Generated from CSD

@<TRIPOS>ATOM
      1 O1         5.9670   -1.1479    3.1471 O.2       1 RES1    0.0000
      2 O2         5.3813    0.6116   10.1139 O.2       1 RES1    0.0000
      3 N1         4.5151    0.6398    1.8791 N.3       1 RES1    0.0000
      4 N2         4.6954    0.8092    3.1995 N.2       1 RES1    0.0000
      5 N3         5.4028   -0.1411    3.7149 N.pl3     1 RES1    0.0000
      6 N4         7.5219    0.0470    9.7787 N.am      1 RES1    0.0000
      7 C1         5.5972    0.0000    5.1790 C.ar      1 RES1    0.0000
      8 C2         6.6584   -0.7527    5.7126 C.ar      1 RES1    0.0000
      9 C3         6.9105   -0.6304    7.0626 C.ar      1 RES1    0.0000
     10 C4         6.1437    0.2164    7.8380 C.ar      1 RES1    0.0000
     11 C5         5.1942    1.0162    7.2610 C.ar      1 RES1    0.0000
     12 C6         4.9849    0.9127    5.8654 C.ar      1 RES1    0.0000
     13 C7         6.3725    0.2917    9.3728 C.2       1 RES1    0.0000
     14 C8         3.7952    1.8065    1.4002 C.3       1 RES1    0.0000
     15 C9         3.9054   -0.6022    1.3774 C.3       1 RES1    0.0000
     16 H1         6.6613   -1.3643    5.1311 H         1 RES1    0.0000
     17 H2         7.6546   -1.1385    7.4800 H         1 RES1    0.0000
     18 H3         4.6995    1.6183    7.8220 H         1 RES1    0.0000
     19 H4         4.2998    1.5148    5.4503 H         1 RES1    0.0000
     20 H5         8.2455   -0.1694    9.1219 H         1 RES1    0.0000
     21 H6         7.7710    0.0659   10.6954 H         1 RES1    0.0000
     22 H7         4.3795   -1.3831    1.6419 H         1 RES1    0.0000
     23 H8         2.9850   -0.6963    1.6876 H         1 RES1    0.0000
     24 H9         3.8425   -0.6398    0.4105 H         1 RES1    0.0000
     25 H10        4.2051    2.6345    1.7332 H         1 RES1    0.0000
     26 H11        3.7307    1.8912    0.4561 H         1 RES1    0.0000
     27 H12        2.8781    1.8348    1.7332 H         1 RES1    0.0000
@<TRIPOS>BOND
     1    1    5 1
     2    2   13 2
     3    3    4 1
     4    4    5 2
     5    5    7 1
     6    6   13 1
     7    7    8 ar
     8    8    9 ar
     9    9   10 ar
    10   10   11 ar
    11   11   12 ar
    12   12    7 ar
    13   13   10 1
    14   14    3 1
    15   15    3 1
    16   16    8 1
    17   17    9 1
    18   18   11 1
    19   19   12 1
    20   20    6 1
    21   21    6 1
    22   22   15 1
    23   23   15 1
    24   24   15 1
    25   25   14 1
    26   26   14 1
    27   27   14 1
@<TRIPOS>SUBSTRUCTURE
     1 RES1 1

@<TRIPOS>CRYSIN
   4.9330    9.4090   22.8650  90.0000  94.1600  90.0000  14 1

