# MOL2 file generated by ConQuest
# Please check atom types

@<TRIPOS>MOLECULE
JONHIF
    62    53     2
SMALL
NO_CHARGES
****
Generated from CSD

@<TRIPOS>ATOM
      1 O1         6.3744   -1.6546    1.7931 O.3       1 RES1    0.0000
      2 O2         5.2768    3.7999    4.7719 O.3       1 RES1    0.0000
      3 O3         7.8341   -0.5771    3.6934 O.3       1 RES1    0.0000
      4 O4         7.4747    1.3467    1.5978 O.2       1 RES1    0.0000
      5 O5         4.7231   -0.1500    1.9962 O.2       1 RES1    0.0000
      6 O6         8.2639    1.8956    5.0866 O.3       1 RES1    0.0000
      7 O7         3.9725   -3.9585   10.8951 O.2       1 RES1    0.0000
      8 O8         7.3127    4.3203    5.4997 O.2       1 RES1    0.0000
      9 O9         2.5552   -2.3397   10.8252 O.2       1 RES1    0.0000
     10 O10        7.2361    3.2567    2.5564 O.2       1 RES1    0.0000
     11 N1         3.6372   -2.8397   10.4490 N.pl3     1 RES1    0.0000
     12 N2         7.0949    2.0482    2.5145 N.pl3     1 RES1    0.0000
     13 C1         6.3332   -0.1910    6.1400 C.3       1 RES1    0.0000
     14 C2         6.5218    3.5313    5.0891 C.2       1 RES1    0.0000
     15 C3         6.3743    1.4076    3.6850 C.3       1 RES1    0.0000
     16 C4         5.7733   -0.6243    2.3611 C.2       1 RES1    0.0000
     17 C5         6.1692    1.3285    6.1695 C.3       1 RES1    0.0000
     18 C6         4.3466   -2.1695    9.3891 C.ar      1 RES1    0.0000
     19 C7         5.7165   -2.1921    0.6014 C.3       1 RES1    0.0000
     20 C8         6.8636    2.0282    4.9950 C.3       1 RES1    0.0000
     21 C9         4.8853    5.2217    4.7825 C.3       1 RES1    0.0000
     22 C10        6.4167   -3.4684    0.2480 C.3       1 RES1    0.0000
     23 C11        5.6447   -0.8650    7.3077 C.ar      1 RES1    0.0000
     24 C12        4.7362    5.7050    3.4312 C.3       1 RES1    0.0000
     25 C13        4.9632   -0.2097    8.3300 C.ar      1 RES1    0.0000
     26 C14        5.0110   -2.9644    8.4377 C.ar      1 RES1    0.0000
     27 C15        5.6493   -2.2790    7.4271 C.ar      1 RES1    0.0000
     28 C16        5.7632   -0.7247    4.8140 C.3       1 RES1    0.0000
     29 C17        4.3467   -0.8806    9.3727 C.ar      1 RES1    0.0000
     30 C18        6.5051   -0.1290    3.6119 C.3       1 RES1    0.0000
     31 H1         7.3089   -0.4073    6.1774 H         1 RES1    0.0000
     32 H2         5.4034    1.6291    3.5944 H         1 RES1    0.0000
     33 H3         8.6059    2.6445    5.2536 H         1 RES1    0.0000
     34 H4         6.5420    1.6764    7.0180 H         1 RES1    0.0000
     35 H5         5.2039    1.5486    6.1508 H         1 RES1    0.0000
     36 H6         5.7815   -1.5462   -0.1466 H         1 RES1    0.0000
     37 H7         4.7596   -2.3648    0.7860 H         1 RES1    0.0000
     38 H8         4.0299    5.3272    5.2698 H         1 RES1    0.0000
     39 H9         5.5755    5.7532    5.2521 H         1 RES1    0.0000
     40 H10        6.3164   -4.1100    0.9818 H         1 RES1    0.0000
     41 H11        7.3687   -3.2886    0.0992 H         1 RES1    0.0000
     42 H12        6.0234   -3.8415   -0.5684 H         1 RES1    0.0000
     43 H13        4.1160    5.1240    2.9427 H         1 RES1    0.0000
     44 H14        5.6084    5.7002    2.9845 H         1 RES1    0.0000
     45 H15        4.3828    6.6188    3.4482 H         1 RES1    0.0000
     46 H16        4.9185    0.7386    8.3100 H         1 RES1    0.0000
     47 H17        5.0191   -3.9131    8.4894 H         1 RES1    0.0000
     48 H18        6.1196   -2.7820    6.7736 H         1 RES1    0.0000
     49 H19        5.8447   -1.7113    4.7944 H         1 RES1    0.0000
     50 H20        4.8020   -0.4958    4.7536 H         1 RES1    0.0000
     51 H21        3.9266   -0.3937   10.0723 H         1 RES1    0.0000
     52 H22        8.2538   -0.3345    3.0077 H         1 RES1    0.0000
     53 O11        3.7683   -4.0813   10.5117 Du        2 SUP2    0.0000
     54 O12        2.9599   -2.2585   11.3239 Du        2 SUP2    0.0000
     55 C19        4.3390   -0.5581    7.5782 Du        2 SUP2    0.0000
     56 C20        5.6679   -2.3731    9.1498 Du        2 SUP2    0.0000
     57 C21        6.3324   -1.7349    8.1241 Du        2 SUP2    0.0000
     58 C22        3.6620   -1.1728    8.5926 Du        2 SUP2    0.0000
     59 H23        3.8948    0.0945    7.0495 Du        2 SUP2    0.0000
     60 H24        6.1494   -2.9734    9.7066 Du        2 SUP2    0.0000
     61 H25        7.2584   -1.8931    7.9832 Du        2 SUP2    0.0000
     62 H26        2.7565   -0.9489    8.7739 Du        2 SUP2    0.0000
@<TRIPOS>BOND
     1    1   16 1
     2    2   14 1
     3    3   30 1
     4    4   12 2
     5    5   16 2
     6    6   20 1
     7    7   11 2
     8    8   14 2
     9    9   11 2
    10   10   12 2
    11   11   18 1
    12   12   15 1
    13   13   17 1
    14   14   20 1
    15   15   20 1
    16   16   30 1
    17   17   20 1
    18   18   26 ar
    19   19    1 1
    20   21    2 1
    21   22   19 1
    22   23   13 1
    23   24   21 1
    24   25   23 ar
    25   26   27 ar
    26   27   23 ar
    27   28   13 1
    28   29   18 ar
    29   30   15 1
    30   31   13 1
    31   32   15 1
    32   33    6 1
    33   34   17 1
    34   35   17 1
    35   36   19 1
    36   37   19 1
    37   38   21 1
    38   39   21 1
    39   40   22 1
    40   41   22 1
    41   42   22 1
    42   43   24 1
    43   44   24 1
    44   45   24 1
    45   46   25 1
    46   47   26 1
    47   48   27 1
    48   49   28 1
    49   50   28 1
    50   51   29 1
    51   52    3 1
    52   25   29 ar
    53   28   30 1
@<TRIPOS>SUBSTRUCTURE
     1 RES1 1
     2 SUP2 53

@<TRIPOS>CRYSIN
   5.3668    9.7102   19.0151  85.9860  84.3640  83.8670   2 1

