# MOL2 file generated by ConQuest
# Please check atom types

@<TRIPOS>MOLECULE
JONHEB
    39    40     1
SMALL
NO_CHARGES
****
Generated from CSD

@<TRIPOS>ATOM
      1 O1         5.1062    1.1202    1.3031 O.3       1 RES1    0.0000
      2 O2         3.0453    3.7554    0.2064 O.3       1 RES1    0.0000
      3 O3         4.2515   -0.4713    2.7667 O.3       1 RES1    0.0000
      4 O4         4.4288    2.3958   -0.9266 O.2       1 RES1    0.0000
      5 O5         7.6825    0.1356    2.3783 O.3       1 RES1    0.0000
      6 O6         5.3024    6.5245    8.5185 O.2       1 RES1    0.0000
      7 O7         6.0932    7.5629    6.8067 O.2       1 RES1    0.0000
      8 O8         6.4656   -1.5119    1.5501 O.2       1 RES1    0.0000
      9 N1         5.5737    6.5849    7.3300 N.pl3     1 RES1    0.0000
     10 C1         5.2657    5.4246    6.4860 C.ar      1 RES1    0.0000
     11 C2         4.2745    2.1467    3.9216 C.3       1 RES1    0.0000
     12 C3         5.3251    0.3613    2.5092 C.3       1 RES1    0.0000
     13 C4         5.2892    4.4124    4.3380 C.ar      1 RES1    0.0000
     14 C5         4.6190    3.3006    4.8463 C.ar      1 RES1    0.0000
     15 C6         4.6262    4.3333    7.0325 C.ar      1 RES1    0.0000
     16 C7         4.2321    2.1715    1.4354 C.2       1 RES1    0.0000
     17 C8         4.2971    3.2706    6.2022 C.ar      1 RES1    0.0000
     18 C9         3.7948    2.6568    2.5913 C.2       1 RES1    0.0000
     19 C10        5.6181    5.4860    5.1472 C.ar      1 RES1    0.0000
     20 C11        5.5218    1.2729    3.7035 C.3       1 RES1    0.0000
     21 C12        2.7042    4.4308   -1.0314 C.3       1 RES1    0.0000
     22 C13        6.5618   -0.4656    2.1057 C.2       1 RES1    0.0000
     23 C14        8.8959   -0.5339    1.9319 C.3       1 RES1    0.0000
     24 C15        3.9123    2.7634    0.1085 C.2       1 RES1    0.0000
     25 H1         4.1756   -1.0309    2.1447 H         1 RES1    0.0000
     26 H2         3.5547    1.5933    4.3406 H         1 RES1    0.0000
     27 H3         5.5250    4.4341    3.4180 H         1 RES1    0.0000
     28 H4         4.4153    4.3084    7.9585 H         1 RES1    0.0000
     29 H5         3.8474    2.5151    6.5621 H         1 RES1    0.0000
     30 H6         3.1516    3.3560    2.5772 H         1 RES1    0.0000
     31 H7         6.0721    6.2430    4.7952 H         1 RES1    0.0000
     32 H8         6.3105    1.8519    3.5523 H         1 RES1    0.0000
     33 H9         5.6908    0.7277    4.5125 H         1 RES1    0.0000
     34 H10        2.3052    3.7888   -1.6548 H         1 RES1    0.0000
     35 H11        3.5149    4.8119   -1.4294 H         1 RES1    0.0000
     36 H12        2.0631    5.1484   -0.8461 H         1 RES1    0.0000
     37 H13        8.9311   -1.4356    2.3145 H         1 RES1    0.0000
     38 H14        9.6785   -0.0233    2.2272 H         1 RES1    0.0000
     39 H15        8.8951   -0.5941    0.9539 H         1 RES1    0.0000
@<TRIPOS>BOND
     1    1   12 1
     2    2   21 1
     3    3   12 1
     4    4   24 2
     5    5   22 1
     6    6    9 2
     7    7    9 2
     8    8   22 2
     9    9   10 1
    10   10   15 ar
    11   11   14 1
    12   12   20 1
    13   13   14 ar
    14   14   17 ar
    15   15   17 ar
    16   16    1 1
    17   17   29 1
    18   18   11 1
    19   19   10 ar
    20   20   11 1
    21   21   34 1
    22   22   12 1
    23   23    5 1
    24   24    2 1
    25   25    3 1
    26   26   11 1
    27   27   13 1
    28   28   15 1
    29   30   18 1
    30   31   19 1
    31   32   20 1
    32   33   20 1
    33   35   21 1
    34   36   21 1
    35   37   23 1
    36   38   23 1
    37   39   23 1
    38   13   19 ar
    39   16   18 2
    40   16   24 1
@<TRIPOS>SUBSTRUCTURE
     1 RES1 1

@<TRIPOS>CRYSIN
   7.8624    8.1235   13.2849  75.6300  74.1740  70.7590   2 1

