# MOL2 file generated by ConQuest
# Please check atom types

@<TRIPOS>MOLECULE
JONPUZ
    20    20     1
SMALL
NO_CHARGES
****
Generated from CSD

@<TRIPOS>ATOM
      1 O1        -3.6458    8.1523   -0.0221 O.3       1 RES1    0.0000
      2 H1        -3.7291    8.9677   -0.4208 H         1 RES1    0.0000
      3 O2        -2.0937    9.1297    1.2532 O.2       1 RES1    0.0000
      4 O3        -0.8959    8.3403    3.9093 O.2       1 RES1    0.0000
      5 O4         0.3527    7.7585    2.2413 O.2       1 RES1    0.0000
      6 N1        -0.6537    7.6643    2.9262 N.pl3     1 RES1    0.0000
      7 C1        -2.6106    6.8335    1.6130 C.ar      1 RES1    0.0000
      8 C2        -1.6186    6.5951    2.5684 C.ar      1 RES1    0.0000
      9 C3        -1.4407    5.3791    3.2087 C.ar      1 RES1    0.0000
     10 C4        -2.3387    4.3664    2.8670 C.ar      1 RES1    0.0000
     11 H2        -2.2504    3.5166    3.2840 H         1 RES1    0.0000
     12 C5        -3.3366    4.5619    1.9307 C.ar      1 RES1    0.0000
     13 H3        -3.8765    3.8463    1.7007 H         1 RES1    0.0000
     14 C6        -3.4684    5.7867    1.3021 C.ar      1 RES1    0.0000
     15 H4        -4.1074    5.9719    0.6820 H         1 RES1    0.0000
     16 C7        -2.7530    8.1468    0.9383 C.2       1 RES1    0.0000
     17 C8        -0.3503    5.1403    4.2087 C.3       1 RES1    0.0000
     18 H5         0.4935    5.4748    3.8848 H         1 RES1    0.0000
     19 H6        -0.5558    5.5533    5.0297 H         1 RES1    0.0000
     20 H7        -0.2438    4.2830    4.3251 H         1 RES1    0.0000
@<TRIPOS>BOND
     1    1    2 1
     2    3   16 2
     3    4    6 2
     4    5    6 2
     5    6    8 1
     6    7    8 ar
     7    8    9 ar
     8    9   10 ar
     9   10   11 1
    10   12   10 ar
    11   13   12 1
    12   14    7 ar
    13   15   14 1
    14   16    1 1
    15   17    9 1
    16   18   17 1
    17   19   17 1
    18   20   17 1
    19    7   16 1
    20   12   14 ar
@<TRIPOS>SUBSTRUCTURE
     1 RES1 1

@<TRIPOS>CRYSIN
   6.0832    6.8221    9.7917  90.7770  91.6090 106.8480   2 1

