# MOL2 file generated by ConQuest
# Please check atom types

@<TRIPOS>MOLECULE
JONWIU
    22    22     1
SMALL
NO_CHARGES
****
Generated from CSD

@<TRIPOS>ATOM
      1 O1         0.2505    2.8684    5.1480 O.2       1 RES1    0.0000
      2 O2         2.3146    3.1496    5.7366 O.2       1 RES1    0.0000
      3 O3         1.0385    9.7577    4.2667 O.2       1 RES1    0.0000
      4 O4         0.9103    9.0873    2.2158 O.2       1 RES1    0.0000
      5 N1         0.9806    8.8730    3.4224 N.pl3     1 RES1    0.0000
      6 N2         1.2524    3.5615    5.2801 N.pl3     1 RES1    0.0000
      7 C1         1.5939    7.2524    5.1197 C.ar      1 RES1    0.0000
      8 C2         0.5561    5.1826    3.6338 C.ar      1 RES1    0.0000
      9 C3         1.0118    7.4742    3.8795 C.ar      1 RES1    0.0000
     10 C4         0.4732    6.4572    3.0860 C.ar      1 RES1    0.0000
     11 C5         1.7203    5.9754    5.6433 C.ar      1 RES1    0.0000
     12 C6         2.3335    5.7639    6.9997 C.3       1 RES1    0.0000
     13 C7        -0.1669    6.6217    1.7363 C.3       1 RES1    0.0000
     14 C8         1.1806    4.9648    4.8472 C.ar      1 RES1    0.0000
     15 H1         0.2317    4.4679    3.1252 H         1 RES1    0.0000
     16 H2         1.9158    7.9709    5.6213 H         1 RES1    0.0000
     17 H3        -0.7742    7.3667    1.6902 H         1 RES1    0.0000
     18 H4        -0.6361    5.8036    1.4975 H         1 RES1    0.0000
     19 H5         0.5209    6.8371    1.0558 H         1 RES1    0.0000
     20 H6         1.7600    5.2422    7.5464 H         1 RES1    0.0000
     21 H7         2.5504    6.5961    7.3898 H         1 RES1    0.0000
     22 H8         3.1867    5.2446    6.9191 H         1 RES1    0.0000
@<TRIPOS>BOND
     1    1    6 2
     2    2    6 2
     3    3    5 2
     4    4    5 2
     5    5    9 1
     6    6   14 1
     7    7    9 ar
     8    8   10 ar
     9    9   10 ar
    10   10   13 1
    11   11    7 ar
    12   12   11 1
    13   13   17 1
    14   14    8 ar
    15   15    8 1
    16   16    7 1
    17   18   13 1
    18   19   13 1
    19   20   12 1
    20   21   12 1
    21   22   12 1
    22   11   14 ar
@<TRIPOS>SUBSTRUCTURE
     1 RES1 1

@<TRIPOS>CRYSIN
   7.9157   12.2309    8.9639  90.0000 101.0260  90.0000 231 1

