# MOL2 file generated by ConQuest
# Please check atom types

@<TRIPOS>MOLECULE
JOPHEB
    57    61     1
SMALL
NO_CHARGES
****
Generated from CSD

@<TRIPOS>ATOM
      1 N1         2.2058    7.4696    3.3433 N.am      1 RES1    0.0000
      2 C1         1.8968    6.4227    4.1939 C.2       1 RES1    0.0000
      3 C2         0.8184    4.4146    3.1026 C.3       1 RES1    0.0000
      4 N2         0.3528    4.5677    6.6173 N.3       1 RES1    0.0000
      5 C3        -0.7554    4.7052    5.6413 C.3       1 RES1    0.0000
      6 C4        -0.5578    5.9227    4.7379 C.3       1 RES1    0.0000
      7 C5         0.5650    5.8628    3.6532 C.3       1 RES1    0.0000
      8 C6         0.2507    6.8110    2.5190 C.ar      1 RES1    0.0000
      9 C7        -0.8608    6.8885    1.6518 C.ar      1 RES1    0.0000
     10 C8        -0.9053    7.9050    0.7254 C.ar      1 RES1    0.0000
     11 C9         0.0796    8.8440    0.6561 C.ar      1 RES1    0.0000
     12 C10        1.1991    8.7942    1.4870 C.ar      1 RES1    0.0000
     13 C11        1.2468    7.7528    2.3904 C.ar      1 RES1    0.0000
     14 C12        1.4902    3.4000    3.9928 C.3       1 RES1    0.0000
     15 C13        0.5551    2.7792    5.0808 C.3       1 RES1    0.0000
     16 C14       -0.8482    3.3428    4.8896 C.3       1 RES1    0.0000
     17 C15       -1.3237    3.4110    3.4554 C.3       1 RES1    0.0000
     18 C16        2.6959    3.5273    8.3384 C.3       1 RES1    0.0000
     19 C17        2.4061    3.1860    6.8810 C.3       1 RES1    0.0000
     20 C18        0.8854    3.1712    6.5349 C.3       1 RES1    0.0000
     21 C19        0.0882    2.3042    7.5240 C.3       1 RES1    0.0000
     22 C20        3.4082    9.0792    4.3950 C.3       1 RES1    0.0000
     23 C21        0.7872   10.9572   -0.2770 C.3       1 RES1    0.0000
     24 O1        -0.1154    9.8605   -0.2836 O.3       1 RES1    0.0000
     25 O2         3.4665    8.1153    3.3828 O.3       1 RES1    0.0000
     26 O3         2.5520    6.0943    5.1468 O.2       1 RES1    0.0000
     27 O4        -0.3541    3.9128    2.5091 O.3       1 RES1    0.0000
     28 O5         3.0089    1.9481    6.5349 O.3       1 RES1    0.0000
     29 O6         0.5770    0.9575    7.4811 O.3       1 RES1    0.0000
     30 H1         1.4272    4.5401    2.3706 H         1 RES1    0.0000
     31 H2         0.6519    5.2097    7.1745 H         1 RES1    0.0000
     32 H3        -1.5705    4.8278    6.1326 H         1 RES1    0.0000
     33 H4        -1.3874    6.0758    4.2796 H         1 RES1    0.0000
     34 H5        -0.3641    6.6708    5.3050 H         1 RES1    0.0000
     35 H6        -1.5691    6.2419    1.7013 H         1 RES1    0.0000
     36 H7        -1.6481    7.9686    0.1220 H         1 RES1    0.0000
     37 H8         1.9047    9.4426    1.4309 H         1 RES1    0.0000
     38 H9         1.8265    2.6897    3.4422 H         1 RES1    0.0000
     39 H10        2.2410    3.8104    4.4280 H         1 RES1    0.0000
     40 H11        0.5385    1.8227    4.9984 H         1 RES1    0.0000
     41 H12       -1.4597    2.7829    5.3710 H         1 RES1    0.0000
     42 H13       -1.6003    2.5338    3.1817 H         1 RES1    0.0000
     43 H14       -2.0964    3.9792    3.4257 H         1 RES1    0.0000
     44 H15        3.6449    3.5134    8.4801 H         1 RES1    0.0000
     45 H16        2.2774    2.8807    8.9121 H         1 RES1    0.0000
     46 H17        2.3544    4.4017    8.5395 H         1 RES1    0.0000
     47 H18        2.8159    3.8658    6.3403 H         1 RES1    0.0000
     48 H19        0.1791    2.6574    8.4142 H         1 RES1    0.0000
     49 H20       -0.8429    2.3143    7.2932 H         1 RES1    0.0000
     50 H21        4.2485    9.5404    4.4511 H         1 RES1    0.0000
     51 H22        3.2251    8.6475    5.2325 H         1 RES1    0.0000
     52 H23        2.7105    9.7083    4.2005 H         1 RES1    0.0000
     53 H24        0.5425   11.5798   -0.9661 H         1 RES1    0.0000
     54 H25        1.6799   10.6408   -0.4319 H         1 RES1    0.0000
     55 H26        0.7488   11.3935    0.5770 H         1 RES1    0.0000
     56 H27        2.4757    1.3098    6.7129 H         1 RES1    0.0000
     57 H28        1.3788    0.9565    7.2009 H         1 RES1    0.0000
@<TRIPOS>BOND
     1    1    2 1
     2    2    7 1
     3    3    7 1
     4    4    5 1
     5    5    6 1
     6    6    7 1
     7    7    8 1
     8    8    9 ar
     9    9   10 ar
    10   10   11 ar
    11   11   12 ar
    12   12   13 ar
    13   13    1 1
    14   14    3 1
    15   15   14 1
    16   16    5 1
    17   17   16 1
    18   18   19 1
    19   19   20 1
    20   20    4 1
    21   21   20 1
    22   22   25 1
    23   23   24 1
    24   24   11 1
    25   25    1 1
    26   26    2 2
    27   27    3 1
    28   28   19 1
    29   29   21 1
    30   30    3 1
    31   31    4 1
    32   32    5 1
    33   33    6 1
    34   34    6 1
    35   35    9 1
    36   36   10 1
    37   37   12 1
    38   38   14 1
    39   39   14 1
    40   40   15 1
    41   41   16 1
    42   42   17 1
    43   43   17 1
    44   44   18 1
    45   45   18 1
    46   46   18 1
    47   47   19 1
    48   48   21 1
    49   49   21 1
    50   50   22 1
    51   51   22 1
    52   52   22 1
    53   53   23 1
    54   54   23 1
    55   55   23 1
    56   56   28 1
    57   57   29 1
    58    8   13 ar
    59   15   16 1
    60   15   20 1
    61   17   27 1
@<TRIPOS>SUBSTRUCTURE
     1 RES1 1

@<TRIPOS>CRYSIN
   6.6320    9.2240   32.9710  90.0000  90.0000  90.0000  19 1

