# MOL2 file generated by ConQuest
# Please check atom types

@<TRIPOS>MOLECULE
JOPNAD
    28    29     1
SMALL
USER_CHARGES
****
Generated from CSD

@<TRIPOS>ATOM
      1 N1         0.2750    0.1539    3.3271 N.4       1 RES1    1.0000
      2 N2         0.5787    1.5641    3.6258 N.2       1 RES1   -1.0000
      3 N3        -0.2992    2.1180    4.4419 N.pl3     1 RES1    0.0000
      4 O1        -1.2424    1.5067    5.0011 O.2       1 RES1    0.0000
      5 O2        -0.1335    3.3416    4.6244 O.2       1 RES1    0.0000
      6 C1         0.3352   -0.7865    4.4861 C.3       1 RES1    0.0000
      7 C2         0.1489   -2.2124    3.9653 C.3       1 RES1    0.0000
      8 N4         0.0425   -2.2405    2.4750 N.4       1 RES1    1.0000
      9 N5        -0.1166   -3.6832    2.2064 N.2       1 RES1   -1.0000
     10 N6        -0.1723   -3.9629    0.9288 N.pl3     1 RES1    0.0000
     11 O3        -0.1129   -3.1461   -0.0070 O.2       1 RES1    0.0000
     12 O4        -0.2736   -5.2146    0.6975 O.2       1 RES1    0.0000
     13 C3         1.2812   -1.6023    1.9205 C.3       1 RES1    0.0000
     14 C4         1.4103   -0.1955    2.4099 C.3       1 RES1    0.0000
     15 C5        -1.0055   -0.0079    2.5633 C.3       1 RES1    0.0000
     16 C6        -1.1588   -1.4202    2.0716 C.3       1 RES1    0.0000
     17 H1         1.1866   -0.7101    4.9232 H         1 RES1    0.0000
     18 H2        -0.3645   -0.5764    5.1092 H         1 RES1    0.0000
     19 H3        -0.6535   -2.5798    4.3431 H         1 RES1    0.0000
     20 H4         0.9021   -2.7427    4.2350 H         1 RES1    0.0000
     21 H5         1.2343   -1.6011    0.9626 H         1 RES1    0.0000
     22 H6         2.0484   -2.1056    2.2029 H         1 RES1    0.0000
     23 H7         2.2398   -0.1011    2.8842 H         1 RES1    0.0000
     24 H8         1.4015    0.4000    1.6577 H         1 RES1    0.0000
     25 H9        -1.7433    0.2079    3.1388 H         1 RES1    0.0000
     26 H10       -1.0018    0.5888    1.8112 H         1 RES1    0.0000
     27 H11       -1.9501   -1.8056    2.4552 H         1 RES1    0.0000
     28 H12       -1.2350   -1.4169    1.1148 H         1 RES1    0.0000
@<TRIPOS>BOND
     1    1    2 1
     2    2    3 1
     3    3    4 2
     4    5    3 2
     5    6    1 1
     6    7    6 1
     7    8    7 1
     8    9    8 1
     9   10    9 1
    10   11   10 2
    11   12   10 2
    12   13    8 1
    13   14    1 1
    14   15    1 1
    15   16    8 1
    16   17    6 1
    17   18    6 1
    18   19    7 1
    19   20    7 1
    20   21   13 1
    21   22   13 1
    22   23   14 1
    23   24   14 1
    24   25   15 1
    25   26   15 1
    26   27   16 1
    27   28   16 1
    28   13   14 1
    29   15   16 1
@<TRIPOS>SUBSTRUCTURE
     1 RES1 1

@<TRIPOS>CRYSIN
   7.3340   11.2360   11.6250  90.0000  90.0000  90.0000  29 4

