# MOL2 file generated by ConQuest
# Please check atom types

@<TRIPOS>MOLECULE
JORCAU
    26    25     1
SMALL
NO_CHARGES
****
Generated from CSD

@<TRIPOS>ATOM
      1 C1         6.0614    3.2375    4.9369 C.3       1 RES1    0.0000
      2 C2         5.5485    1.7891    4.9111 C.3       1 RES1    0.0000
      3 C3         5.0509    1.4046    6.3456 C.3       1 RES1    0.0000
      4 C4         3.7668    2.1251    6.7409 C.3       1 RES1    0.0000
      5 C5         3.0710    1.6085    8.0053 C.3       1 RES1    0.0000
      6 C6         4.5271    1.5812    3.8230 C.3       1 RES1    0.0000
      7 N1         6.7374    0.8673    4.5119 N.pl3     1 RES1    0.0000
      8 N2         6.1835    1.7047    7.3229 N.pl3     1 RES1    0.0000
      9 N3         4.7795   -0.1023    6.5310 N.pl3     1 RES1    0.0000
     10 O1         6.6032   -0.3314    4.6677 O.2       1 RES1    0.0000
     11 O2         7.7061    1.3754    3.9995 O.2       1 RES1    0.0000
     12 O3         7.2923    1.2492    7.0860 O.2       1 RES1    0.0000
     13 O4         5.9563    2.4233    8.2745 O.2       1 RES1    0.0000
     14 O5         3.9272   -0.5618    5.8060 O.2       1 RES1    0.0000
     15 O6         5.3361   -0.6933    7.4117 O.2       1 RES1    0.0000
     16 H1         6.3698    3.4832    4.0613 H         1 RES1    0.0000
     17 H2         5.3510    3.8259    5.2021 H         1 RES1    0.0000
     18 H3         6.7865    3.3079    5.5627 H         1 RES1    0.0000
     19 H4         4.1422    2.9592    6.9598 H         1 RES1    0.0000
     20 H5         3.2862    2.4612    5.9232 H         1 RES1    0.0000
     21 H6         2.2775    2.1238    8.1714 H         1 RES1    0.0000
     22 H7         2.8338    0.6860    7.8869 H         1 RES1    0.0000
     23 H8         3.6695    1.6921    8.7509 H         1 RES1    0.0000
     24 H9         4.2283    0.6687    3.8372 H         1 RES1    0.0000
     25 H10        3.7782    2.1650    3.9698 H         1 RES1    0.0000
     26 H11        4.9212    1.7751    2.9693 H         1 RES1    0.0000
@<TRIPOS>BOND
     1    1    2 1
     2    2    3 1
     3    3    4 1
     4    4    5 1
     5    5   21 1
     6    6    2 1
     7    7    2 1
     8    8    3 1
     9    9    3 1
    10   10    7 2
    11   11    7 2
    12   12    8 2
    13   13    8 2
    14   14    9 2
    15   15    9 2
    16   16    1 1
    17   17    1 1
    18   18    1 1
    19   19    4 1
    20   20    4 1
    21   22    5 1
    22   23    5 1
    23   24    6 1
    24   25    6 1
    25   26    6 1
@<TRIPOS>SUBSTRUCTURE
     1 RES1 1

@<TRIPOS>CRYSIN
  11.2920    6.6410   13.1550  90.0000 101.8100  90.0000   9 1

