# MOL2 file generated by ConQuest
# Please check atom types

@<TRIPOS>MOLECULE
JOTDIF
    22    23     1
SMALL
NO_CHARGES
****
Generated from CSD

@<TRIPOS>ATOM
      1 C1         1.9116   -2.7126    7.8111 C.3       1 RES1    0.0000
      2 N1         1.9578   -1.3071    7.5914 N.pl3     1 RES1    0.0000
      3 C2         2.3638   -0.3509    8.6138 C.3       1 RES1    0.0000
      4 C3         2.3771   -1.0610    9.9517 C.3       1 RES1    0.0000
      5 N2         1.2247   -1.9561   10.0707 N.3       1 RES1    0.0000
      6 C4         1.1932   -3.0608    9.1342 C.3       1 RES1    0.0000
      7 N3         1.9430   -4.2002    9.6387 N.am      1 RES1    0.0000
      8 C5         3.1698   -4.3734    9.0139 C.2       1 RES1    0.0000
      9 N4         3.2441   -3.2923    8.0725 N.am      1 RES1    0.0000
     10 N5         1.5917   -0.8103    6.3652 N.pl3     1 RES1    0.0000
     11 O1         1.7583    0.3865    6.2106 O.2       1 RES1    0.0000
     12 O2         1.1172   -1.5796    5.5404 O.2       1 RES1    0.0000
     13 N6         0.0022   -1.3508   10.3665 N.pl3     1 RES1    0.0000
     14 O3         0.0546   -0.2361   10.8710 O.2       1 RES1    0.0000
     15 O4        -1.0177   -1.9862   10.1701 O.2       1 RES1    0.0000
     16 C6         1.3085   -5.1035   10.5322 C.2       1 RES1    0.0000
     17 O5         0.1800   -4.8309   10.8673 O.2       1 RES1    0.0000
     18 C7         2.0752   -6.2875   10.9704 C.3       1 RES1    0.0000
     19 O6         3.9926   -5.2110    9.1907 O.2       1 RES1    0.0000
     20 N7         4.1259   -3.4409    6.9581 N.pl3     1 RES1    0.0000
     21 O7         3.6687   -3.1237    5.8829 O.2       1 RES1    0.0000
     22 O8         5.2322   -3.8401    7.2134 O.2       1 RES1    0.0000
@<TRIPOS>BOND
     1    1    2 1
     2    2    3 1
     3    3    4 1
     4    4    5 1
     5    5    6 1
     6    6    1 1
     7    7    6 1
     8    8    7 1
     9    9    1 1
    10   10    2 1
    11   11   10 2
    12   12   10 2
    13   13    5 1
    14   14   13 2
    15   15   13 2
    16   16    7 1
    17   17   16 2
    18   18   16 1
    19   19    8 2
    20   20    9 1
    21   21   20 2
    22   22   20 2
    23    8    9 1
@<TRIPOS>SUBSTRUCTURE
     1 RES1 1

@<TRIPOS>CRYSIN
  10.6150    9.1150   12.9480  90.0000 108.5700  90.0000 231 1

