# MOL2 file generated by ConQuest
# Please check atom types

@<TRIPOS>MOLECULE
JOTFAZ
    45    46     1
SMALL
NO_CHARGES
****
Generated from CSD

@<TRIPOS>ATOM
      1 C1        -0.8066    4.0213   17.3272 C.3       1 RES1    0.0000
      2 N1        -0.9474    4.3205   18.7753 N.3       1 RES1    0.0000
      3 N2        -2.1477    4.8080   19.1946 N.pl3     1 RES1    0.0000
      4 O1        -2.1504    5.5096   20.1943 O.2       1 RES1    0.0000
      5 O2        -3.1469    4.5062   18.5520 O.2       1 RES1    0.0000
      6 C2         0.2588    4.5681   19.5867 C.3       1 RES1    0.0000
      7 N3         0.7692    3.3764   20.2098 N.3       1 RES1    0.0000
      8 N4         0.2654    3.0179   21.4813 N.pl3     1 RES1    0.0000
      9 O3         0.7214    2.0171   21.9899 O.2       1 RES1    0.0000
     10 O4        -0.5176    3.7943   21.9880 O.2       1 RES1    0.0000
     11 C3         1.1407    2.2853   19.3402 C.3       1 RES1    0.0000
     12 N5         0.1500    1.9371   18.3482 N.3       1 RES1    0.0000
     13 N6        -1.0090    1.3851   18.8199 N.pl3     1 RES1    0.0000
     14 O5        -1.9708    1.3155   18.0629 O.2       1 RES1    0.0000
     15 O6        -1.0031    0.9647   19.9672 O.2       1 RES1    0.0000
     16 C4        -0.0413    2.7135   17.1000 C.3       1 RES1    0.0000
     17 N7         1.2324    3.1004   16.5487 N.am      1 RES1    0.0000
     18 C5         1.2390    4.5011   16.1275 C.3       1 RES1    0.0000
     19 N8        -0.0197    5.0066   16.6380 N.am      1 RES1    0.0000
     20 C6         2.1189    2.2415   15.9431 C.2       1 RES1    0.0000
     21 C7         1.9820    0.7790   16.2789 C.3       1 RES1    0.0000
     22 O7         3.0100    2.6852   15.2423 O.2       1 RES1    0.0000
     23 C8        -0.5510    6.2473   16.4012 C.2       1 RES1    0.0000
     24 C9         0.2916    7.2017   15.6170 C.3       1 RES1    0.0000
     25 O8        -1.6518    6.5104   16.8283 O.2       1 RES1    0.0000
     26 C10        2.9078   -0.1393   15.5063 C.3       1 RES1    0.0000
     27 C11       -0.2175    8.6281   15.7160 C.3       1 RES1    0.0000
     28 H1        -1.7088    3.9903   16.9991 H         1 RES1    0.0000
     29 H2         0.0426    5.2052   20.2700 H         1 RES1    0.0000
     30 H3         0.9402    4.9318   19.0160 H         1 RES1    0.0000
     31 H4         1.9473    2.5304   18.8801 H         1 RES1    0.0000
     32 H5         1.3045    1.5141   19.8857 H         1 RES1    0.0000
     33 H6        -0.5373    2.1383   16.5138 H         1 RES1    0.0000
     34 H7         1.2776    4.5733   15.1705 H         1 RES1    0.0000
     35 H8         1.9800    4.9731   16.5138 H         1 RES1    0.0000
     36 H9         2.1615    0.6655   17.2146 H         1 RES1    0.0000
     37 H10        1.0778    0.5185   16.0906 H         1 RES1    0.0000
     38 H11        1.1925    7.1682   15.9508 H         1 RES1    0.0000
     39 H12        0.2837    6.9360   14.6968 H         1 RES1    0.0000
     40 H13        2.7859   -1.0576   15.7548 H         1 RES1    0.0000
     41 H14        3.8021    0.1341   15.7218 H         1 RES1    0.0000
     42 H15        2.7623   -0.0413   14.5609 H         1 RES1    0.0000
     43 H16        0.3473    9.1646   15.1549 H         1 RES1    0.0000
     44 H17       -0.1821    8.9608   16.6167 H         1 RES1    0.0000
     45 H18       -1.1210    8.6694   15.3937 H         1 RES1    0.0000
@<TRIPOS>BOND
     1    1    2 1
     2    2    3 1
     3    3    4 2
     4    5    3 2
     5    6    2 1
     6    7    6 1
     7    8    7 1
     8    9    8 2
     9   10    8 2
    10   11    7 1
    11   12   11 1
    12   13   12 1
    13   14   13 2
    14   15   13 2
    15   16    1 1
    16   17   16 1
    17   18   17 1
    18   19    1 1
    19   20   17 1
    20   21   20 1
    21   22   20 2
    22   23   19 1
    23   24   23 1
    24   25   23 2
    25   26   21 1
    26   27   24 1
    27   28    1 1
    28   29    6 1
    29   30    6 1
    30   31   11 1
    31   32   11 1
    32   33   16 1
    33   34   18 1
    34   35   18 1
    35   36   21 1
    36   37   21 1
    37   38   24 1
    38   39   24 1
    39   40   26 1
    40   41   26 1
    41   42   26 1
    42   43   27 1
    43   44   27 1
    44   45   27 1
    45   12   16 1
    46   18   19 1
@<TRIPOS>SUBSTRUCTURE
     1 RES1 1

@<TRIPOS>CRYSIN
   6.5520   25.7940   19.4120  90.0000  90.0000  90.0000  61 1

