# MOL2 file generated by ConQuest
# Please check atom types

@<TRIPOS>MOLECULE
JOWSEV
    37    39     1
SMALL
NO_CHARGES
****
Generated from CSD

@<TRIPOS>ATOM
      1 O1         9.6943    2.2594    9.2424 O.2       1 RES1    0.0000
      2 O2         8.8583    3.5399    7.6501 O.3       1 RES1    0.0000
      3 O3         7.1305    5.9067    5.6410 O.3       1 RES1    0.0000
      4 O4         7.1911    7.7022    1.7542 O.2       1 RES1    0.0000
      5 O5         5.3863    7.0235    0.8003 O.2       1 RES1    0.0000
      6 C1         8.9575    4.4048    9.9255 C.ar      1 RES1    0.0000
      7 C2         9.3694    4.1676   11.2297 C.ar      1 RES1    0.0000
      8 H1         9.7635    3.3322   11.4497 H         1 RES1    0.0000
      9 C3         9.2159    5.1256   12.2122 C.ar      1 RES1    0.0000
     10 H2         9.4952    4.9458   13.1031 H         1 RES1    0.0000
     11 C4         8.6499    6.3533   11.8915 C.ar      1 RES1    0.0000
     12 H3         8.5690    7.0237   12.5591 H         1 RES1    0.0000
     13 C5         8.2035    6.6073   10.6054 C.ar      1 RES1    0.0000
     14 H4         7.8041    7.4443   10.3988 H         1 RES1    0.0000
     15 C6         8.3392    5.6366    9.6105 C.ar      1 RES1    0.0000
     16 C7         9.1953    3.3192    8.9053 C.2       1 RES1    0.0000
     17 C8         7.1936    6.7974    7.8780 C.2       1 RES1    0.0000
     18 H5         6.9515    7.4754    8.4984 H         1 RES1    0.0000
     19 C9         6.7803    6.9046    6.5194 C.2       1 RES1    0.0000
     20 C10        6.0587    7.8562    5.8596 C.2       1 RES1    0.0000
     21 H6         5.6906    8.6473    6.2353 H         1 RES1    0.0000
     22 C11        5.9627    7.4434    4.5112 C.2       1 RES1    0.0000
     23 H7         5.5248    7.9070    3.8066 H         1 RES1    0.0000
     24 C12        6.6225    6.2471    4.4134 C.2       1 RES1    0.0000
     25 C13        6.8037    5.2426    3.3744 C.ar      1 RES1    0.0000
     26 C14        6.6020    5.4829    2.0094 C.ar      1 RES1    0.0000
     27 C15        6.6756    4.4877    1.0523 C.ar      1 RES1    0.0000
     28 H8         6.5123    4.6905    0.1385 H         1 RES1    0.0000
     29 C16        6.9869    3.1986    1.4321 C.ar      1 RES1    0.0000
     30 H9         7.0503    2.5065    0.7839 H         1 RES1    0.0000
     31 C17        7.2054    2.9290    2.7704 C.ar      1 RES1    0.0000
     32 H10        7.4264    2.0452    3.0384 H         1 RES1    0.0000
     33 C18        7.1080    3.9213    3.7239 C.ar      1 RES1    0.0000
     34 H11        7.2507    3.7029    4.6376 H         1 RES1    0.0000
     35 N1         7.8929    5.7891    8.2747 N.2       1 RES1    0.0000
     36 N2         6.3689    6.8429    1.4944 N.pl3     1 RES1    0.0000
     37 H12        8.4170    4.3998    7.5817 H         1 RES1    0.0000
@<TRIPOS>BOND
     1    1   16 2
     2    2   16 1
     3    3   19 1
     4    4   36 2
     5    5   36 2
     6    6    7 ar
     7    7    8 1
     8    9    7 ar
     9   10    9 1
    10   11    9 ar
    11   12   11 1
    12   13   11 ar
    13   14   13 1
    14   15    6 ar
    15   16    6 1
    16   17   18 1
    17   19   17 1
    18   20   19 2
    19   21   20 1
    20   22   20 1
    21   23   22 1
    22   24    3 1
    23   25   24 1
    24   26   25 ar
    25   27   26 ar
    26   28   27 1
    27   29   27 ar
    28   30   29 1
    29   31   29 ar
    30   32   31 1
    31   33   25 ar
    32   34   33 1
    33   35   15 1
    34   36   26 1
    35   37    2 1
    36   13   15 ar
    37   17   35 2
    38   22   24 2
    39   31   33 ar
@<TRIPOS>SUBSTRUCTURE
     1 RES1 1

@<TRIPOS>CRYSIN
   7.5007    7.9094   14.6585  77.3020  87.0290  63.0040   2 1

