# MOL2 file generated by ConQuest
# Please check atom types

@<TRIPOS>MOLECULE
JOWSAR
    38    35     2
SMALL
NO_CHARGES
****
Generated from CSD

@<TRIPOS>ATOM
      1 O1         0.6155   -1.0698   -4.6792 O.3       1 RES1    0.0000
      2 O2         0.5265    0.2762   -2.9166 O.2       1 RES1    0.0000
      3 O3         1.6601    4.5861    0.1158 O.3       1 RES1    0.0000
      4 O4         2.1969    4.8934    2.3514 O.3       1 RES1    0.0000
      5 O5         2.4377   -0.9257    3.0682 O.2       1 RES1    0.0000
      6 O6         3.6544    0.4798    4.1638 O.2       1 RES1    0.0000
      7 C1         0.7287   -0.8615   -3.4296 C.2       1 RES1    0.0000
      8 C2         1.1179   -2.0279   -2.5800 C.ar      1 RES1    0.0000
      9 C3         0.9894   -3.3120   -3.1123 C.ar      1 RES1    0.0000
     10 H1         0.6902   -3.4167   -3.9869 H         1 RES1    0.0000
     11 C4         1.2988   -4.4296   -2.3600 C.ar      1 RES1    0.0000
     12 H2         1.2075   -5.2786   -2.7275 H         1 RES1    0.0000
     13 C5         1.7445   -4.2818   -1.0616 C.ar      1 RES1    0.0000
     14 H3         1.9501   -5.0340   -0.5539 H         1 RES1    0.0000
     15 C6         1.8856   -3.0173   -0.5129 C.ar      1 RES1    0.0000
     16 H4         2.1906   -2.9242    0.3604 H         1 RES1    0.0000
     17 C7         1.5739   -1.8786   -1.2636 C.ar      1 RES1    0.0000
     18 C8         1.6252   -0.2923    0.3231 C.2       1 RES1    0.0000
     19 C9         2.0461    1.0368    0.9554 C.ar      1 RES1    0.0000
     20 C10        1.7789    2.1458    0.1404 C.ar      1 RES1    0.0000
     21 H5         1.5502    2.0425   -0.7550 H         1 RES1    0.0000
     22 C11        1.8668    3.3846    0.7111 C.ar      1 RES1    0.0000
     23 C12        1.8397    5.5838    1.1416 C.3       1 RES1    0.0000
     24 H6         2.5422    6.2030    0.8879 H         1 RES1    0.0000
     25 H7         1.0189    6.0848    1.2704 H         1 RES1    0.0000
     26 C13        2.2003    3.5732    2.0434 C.ar      1 RES1    0.0000
     27 C14        2.5075    2.5288    2.8617 C.ar      1 RES1    0.0000
     28 H8         2.7598    2.6500    3.7484 H         1 RES1    0.0000
     29 C15        2.4175    1.2621    2.2796 C.ar      1 RES1    0.0000
     30 N1         1.7246   -0.5793   -0.7406 N.2       1 RES1    0.0000
     31 N2         2.7722    0.1425    3.1508 N.pl3     1 RES1    0.0000
     32 H9         0.4722   -0.3645   -5.2495 H         1 RES1    0.0000
     33 H10        1.1074   -0.9474    0.9451 H         1 RES1    0.0000
     34 O7         2.5819    0.2020    4.2638 Du        2 SUP2    0.0000
     35 O8         2.9323   -0.9781    2.4715 Du        2 SUP2    0.0000
     36 C16        2.2379   -0.3185    0.4374 Du        2 SUP2    0.0000
     37 H11        0.8038    0.0690   -1.9627 Du        2 SUP2    0.0000
     38 H12        2.7840   -0.9671    0.8945 Du        2 SUP2    0.0000
@<TRIPOS>BOND
     1    1    7 1
     2    2    7 2
     3    3   22 1
     4    4   23 1
     5    5   31 2
     6    6   31 2
     7    7    8 1
     8    8    9 ar
     9    9   10 1
    10   11    9 ar
    11   12   11 1
    12   13   11 ar
    13   14   13 1
    14   15   13 ar
    15   16   15 1
    16   17    8 ar
    17   18   19 1
    18   19   20 ar
    19   20   21 1
    20   22   20 ar
    21   23    3 1
    22   24   23 1
    23   25   23 1
    24   26    4 1
    25   27   26 ar
    26   28   27 1
    27   29   19 ar
    28   30   17 1
    29   31   29 1
    30   32    1 1
    31   33   18 1
    32   15   17 ar
    33   18   30 2
    34   22   26 ar
    35   27   29 ar
@<TRIPOS>SUBSTRUCTURE
     1 RES1 1
     2 SUP2 34

@<TRIPOS>CRYSIN
   7.1876   16.4187   11.0134  90.0000  93.7990  90.0000  14 1

