# MOL2 file generated by ConQuest
# Please check atom types

@<TRIPOS>MOLECULE
JOWVUM
    48    47     1
SMALL
NO_CHARGES
****
Generated from CSD

@<TRIPOS>ATOM
      1 C1         1.4008   -1.4821    8.6587 C.3       1 RES1    0.0000
      2 C2         2.8065   -1.7326    9.1348 C.2       1 RES1    0.0000
      3 O1         3.7679   -1.7240    8.3957 O.2       1 RES1    0.0000
      4 N1         2.9370   -1.9387   10.4618 N.am      1 RES1    0.0000
      5 O2         1.7600   -2.2215   11.1458 O.3       1 RES1    0.0000
      6 C3         4.1534   -2.4140   11.0942 C.3       1 RES1    0.0000
      7 C4         1.4487   -1.1772   12.0553 C.3       1 RES1    0.0000
      8 N2         1.3745   -1.0579    7.2570 N.am      1 RES1    0.0000
      9 C5         1.9803    0.1601    6.9053 C.2       1 RES1    0.0000
     10 O3         2.0785    0.9097    7.9996 O.3       1 RES1    0.0000
     11 O4         2.3335    0.4668    5.8092 O.2       1 RES1    0.0000
     12 C6         2.7957    2.2062    7.9729 C.3       1 RES1    0.0000
     13 C7         2.6975    2.6355    9.4261 C.3       1 RES1    0.0000
     14 C8         2.0653    3.1738    7.1007 C.3       1 RES1    0.0000
     15 C9         4.2265    1.9847    7.5821 C.3       1 RES1    0.0000
     16 C10        0.8752   -1.9847    6.3350 C.2       1 RES1    0.0000
     17 O5         0.7004   -1.4310    5.1501 O.3       1 RES1    0.0000
     18 O6         0.5879   -3.0971    6.6548 O.2       1 RES1    0.0000
     19 C11        0.1137   -2.1925    4.0184 C.3       1 RES1    0.0000
     20 C12        0.9327   -3.4089    3.7271 C.3       1 RES1    0.0000
     21 C13       -1.3326   -2.5128    4.3382 C.3       1 RES1    0.0000
     22 C14        0.2131   -1.1772    2.9010 C.3       1 RES1    0.0000
     23 H1         1.0069   -0.7939    9.1987 H         1 RES1    0.0000
     24 H2         0.8920   -2.2913    8.7493 H         1 RES1    0.0000
     25 H3        -0.1712   -1.5537    2.1069 H         1 RES1    0.0000
     26 H4         1.1291   -0.9404    2.7323 H         1 RES1    0.0000
     27 H5        -0.2778   -0.3901    3.1515 H         1 RES1    0.0000
     28 H6         0.6418   -3.7479    2.8779 H         1 RES1    0.0000
     29 H7         0.8345   -4.0920    4.3951 H         1 RES1    0.0000
     30 H8         1.8546   -3.1500    3.6702 H         1 RES1    0.0000
     31 H9         3.2040    3.4447    9.5309 H         1 RES1    0.0000
     32 H10        3.0615    1.9540    9.9946 H         1 RES1    0.0000
     33 H11        1.7816    2.7973    9.6642 H         1 RES1    0.0000
     34 H12        2.2054    2.8961    6.1929 H         1 RES1    0.0000
     35 H13        2.4353    4.0512    7.2268 H         1 RES1    0.0000
     36 H14        1.1243    3.1925    7.2872 H         1 RES1    0.0000
     37 H15        0.6130   -1.3050   12.5119 H         1 RES1    0.0000
     38 H16        1.4332   -0.3390   11.5881 H         1 RES1    0.0000
     39 H17        2.1647   -1.1738   12.6966 H         1 RES1    0.0000
     40 H18        4.8958   -2.2181   10.5169 H         1 RES1    0.0000
     41 H19        4.0888   -3.3629   11.2204 H         1 RES1    0.0000
     42 H20        4.2863   -1.9847   11.9416 H         1 RES1    0.0000
     43 H21       -1.7684   -2.8740    3.5619 H         1 RES1    0.0000
     44 H22       -1.8115   -1.7394    4.6438 H         1 RES1    0.0000
     45 H23       -1.3158   -3.1755    5.0328 H         1 RES1    0.0000
     46 H24        4.6886    2.8092    7.7455 H         1 RES1    0.0000
     47 H25        4.3246    1.7428    6.6583 H         1 RES1    0.0000
     48 H26        4.5988    1.2930    8.1346 H         1 RES1    0.0000
@<TRIPOS>BOND
     1    1    2 1
     2    2    3 2
     3    4    2 1
     4    5    4 1
     5    6    4 1
     6    7    5 1
     7    8    1 1
     8    9    8 1
     9   10    9 1
    10   11    9 2
    11   12   10 1
    12   13   12 1
    13   14   12 1
    14   15   12 1
    15   16    8 1
    16   17   16 1
    17   18   16 2
    18   19   17 1
    19   20   19 1
    20   21   19 1
    21   22   19 1
    22   23    1 1
    23   24    1 1
    24   25   22 1
    25   26   22 1
    26   27   22 1
    27   28   20 1
    28   29   20 1
    29   30   20 1
    30   31   13 1
    31   32   13 1
    32   33   13 1
    33   34   14 1
    34   35   14 1
    35   36   14 1
    36   37    7 1
    37   38    7 1
    38   39    7 1
    39   40    6 1
    40   41    6 1
    41   42    6 1
    42   43   21 1
    43   44   21 1
    44   45   21 1
    45   46   15 1
    46   47   15 1
    47   48   15 1
@<TRIPOS>SUBSTRUCTURE
     1 RES1 1

@<TRIPOS>CRYSIN
  11.9730   17.0360   17.7650  90.0000  90.0000  90.0000  61 1

