# MOL2 file generated by ConQuest
# Please check atom types

@<TRIPOS>MOLECULE
JOWWIB
    12    12     1
SMALL
NO_CHARGES
****
Generated from CSD

@<TRIPOS>ATOM
      1 C1        10.7092    0.2068    5.4033 C.2       1 RES1    0.0000
      2 C2        10.7143    1.0332    7.3045 C.2       1 RES1    0.0000
      3 N1         9.7933    0.0489    7.2332 N.3       1 RES1    0.0000
      4 N2         9.7793   -0.5081    5.9831 N.2       1 RES1    0.0000
      5 N3        11.3221    1.1611    6.1243 N.2       1 RES1    0.0000
      6 N4        11.0582   -0.0097    4.0162 N.pl3     1 RES1    0.0000
      7 N5        11.0014    1.7366    8.4093 N.3       1 RES1    0.0000
      8 O1        10.6149   -1.0061    3.4569 O.2       1 RES1    0.0000
      9 O2        11.7818    0.8123    3.4775 O.2       1 RES1    0.0000
     10 H1         9.3036   -0.2969    7.8226 H         1 RES1    0.0000
     11 H2        11.5440    2.3992    8.2845 H         1 RES1    0.0000
     12 H3        10.4151    1.7448    9.0782 H         1 RES1    0.0000
@<TRIPOS>BOND
     1    1    4 2
     2    2    3 1
     3    3    4 1
     4    5    1 1
     5    6    1 1
     6    7    2 1
     7    8    6 2
     8    9    6 2
     9   10    3 1
    10   11    7 1
    11   12    7 1
    12    2    5 2
@<TRIPOS>SUBSTRUCTURE
     1 RES1 1

@<TRIPOS>CRYSIN
  14.1990    4.8440   14.2580  90.0000 105.9800  90.0000  15 1

