# MOL2 file generated by ConQuest
# Please check atom types

@<TRIPOS>MOLECULE
JOYRAQ
    35    37     1
SMALL
NO_CHARGES
****
Generated from CSD

@<TRIPOS>ATOM
      1 O1         4.5278    2.7402    1.1012 O.2       1 RES1    0.0000
      2 O2         2.9461   11.8490   -0.4313 O.2       1 RES1    0.0000
      3 O3         4.6683   11.4064   -1.6403 O.2       1 RES1    0.0000
      4 N1         1.7113    5.0011   -0.8036 N.2       1 RES1    0.0000
      5 N2         3.7431    4.7689    0.4274 N.am      1 RES1    0.0000
      6 N3         0.4490    3.1558   -1.3593 N.ar      1 RES1    0.0000
      7 N4         3.7018   11.0818   -0.9658 N.pl3     1 RES1    0.0000
      8 C1         1.5716    3.6270   -0.7588 C.ar      1 RES1    0.0000
      9 C2         2.7736    5.4995   -0.2613 C.2       1 RES1    0.0000
     10 C3         3.6744    3.3757    0.4935 C.2       1 RES1    0.0000
     11 C4         2.5272    2.8000   -0.1669 C.ar      1 RES1    0.0000
     12 C5         2.3410    1.4149   -0.2054 C.ar      1 RES1    0.0000
     13 C6         1.2239    0.9383   -0.8320 C.ar      1 RES1    0.0000
     14 C7         0.3203    1.8277   -1.3696 C.ar      1 RES1    0.0000
     15 C8         3.0118    6.9565   -0.4242 C.ar      1 RES1    0.0000
     16 C9         4.0988    7.4006   -1.1728 C.ar      1 RES1    0.0000
     17 C10        4.3233    8.7489   -1.3688 C.ar      1 RES1    0.0000
     18 C11        3.4417    9.6275   -0.8028 C.ar      1 RES1    0.0000
     19 C12        2.3383    9.2324   -0.0929 C.ar      1 RES1    0.0000
     20 C13        2.1137    7.8894    0.0945 C.ar      1 RES1    0.0000
     21 C14        4.8435    5.4235    1.1893 C.3       1 RES1    0.0000
     22 C15        6.1495    5.4425    0.4510 C.2       1 RES1    0.0000
     23 C16        6.9408    6.4908    0.4069 C.2       1 RES1    0.0000
     24 H1         3.0392    0.8419    0.2912 H         1 RES1    0.0000
     25 H2         1.0678   -0.0679   -0.8343 H         1 RES1    0.0000
     26 H3        -0.4928    1.4530   -1.7631 H         1 RES1    0.0000
     27 H4         4.7094    6.8031   -1.5585 H         1 RES1    0.0000
     28 H5         5.0927    9.0844   -1.8890 H         1 RES1    0.0000
     29 H6         1.6702    9.9127    0.3306 H         1 RES1    0.0000
     30 H7         1.3416    7.5907    0.6061 H         1 RES1    0.0000
     31 H8         4.5177    6.3550    1.4483 H         1 RES1    0.0000
     32 H9         5.0105    4.8749    1.9992 H         1 RES1    0.0000
     33 H10        6.3522    4.6304   -0.1102 H         1 RES1    0.0000
     34 H11        6.5986    7.4141    0.8658 H         1 RES1    0.0000
     35 H12        7.8307    6.3550   -0.1417 H         1 RES1    0.0000
@<TRIPOS>BOND
     1    1   10 2
     2    2    7 2
     3    3    7 2
     4    4    8 1
     5    5    9 1
     6    6    8 ar
     7    7   18 1
     8    8   11 ar
     9    9    4 2
    10   10    5 1
    11   11   10 1
    12   12   11 ar
    13   13   12 ar
    14   14    6 ar
    15   15    9 1
    16   16   15 ar
    17   17   16 ar
    18   18   17 ar
    19   19   18 ar
    20   20   15 ar
    21   21    5 1
    22   22   21 1
    23   23   22 2
    24   24   12 1
    25   25   13 1
    26   26   14 1
    27   27   16 1
    28   28   17 1
    29   29   19 1
    30   30   20 1
    31   31   21 1
    32   32   21 1
    33   33   22 1
    34   34   23 1
    35   35   23 1
    36   13   14 ar
    37   19   20 ar
@<TRIPOS>SUBSTRUCTURE
     1 RES1 1

@<TRIPOS>CRYSIN
  27.3800   13.5790    7.8710  90.0000  90.0000  90.0000  61 1

