# MOL2 file generated by ConQuest
# Please check atom types

@<TRIPOS>MOLECULE
JOZREX
    48    51     1
SMALL
NO_CHARGES
****
Generated from CSD

@<TRIPOS>ATOM
      1 O1         0.0166    3.4104   -1.0998 O.3       1 RES1    0.0000
      2 C1        -0.2853    2.0256   -0.8878 C.3       1 RES1    0.0000
      3 O2         0.3402    1.5952    0.3164 O.3       1 RES1    0.0000
      4 C2        -0.0617    2.3357    1.4626 C.3       1 RES1    0.0000
      5 H1         0.4639    2.0342    2.2452 H         1 RES1    0.0000
      6 H2        -1.0171    2.1529    1.6488 H         1 RES1    0.0000
      7 C3         0.1355    3.8471    1.2764 C.3       1 RES1    0.0000
      8 O3         1.5899    3.9805    1.2651 O.3       1 RES1    0.0000
      9 C4         2.1340    4.9995    0.5980 C.2       1 RES1    0.0000
     10 H3         3.0658    5.1509    0.7069 H         1 RES1    0.0000
     11 C5         1.4598    5.8257   -0.2166 C.2       1 RES1    0.0000
     12 C6         0.0025    5.7011   -0.5307 C.3       1 RES1    0.0000
     13 H4        -0.0928    5.7410   -1.5252 H         1 RES1    0.0000
     14 C7        -0.4502    4.2953   -0.0795 C.3       1 RES1    0.0000
     15 H5        -1.4492    4.2621   -0.0395 H         1 RES1    0.0000
     16 C8         0.4086    1.2828   -2.0075 C.3       1 RES1    0.0000
     17 H6         1.3718    1.4615   -1.9707 H         1 RES1    0.0000
     18 H7         0.0525    1.5837   -2.8697 H         1 RES1    0.0000
     19 H8         0.2512    0.3213   -1.9076 H         1 RES1    0.0000
     20 C9        -1.7853    1.7536   -0.8712 C.3       1 RES1    0.0000
     21 H9        -1.9413    0.7875   -0.8121 H         1 RES1    0.0000
     22 H10       -2.1889    2.1005   -1.6944 H         1 RES1    0.0000
     23 H11       -2.1889    2.1983   -0.0965 H         1 RES1    0.0000
     24 N1        -0.3328    4.6587    2.3959 N.3       1 RES1    0.0000
     25 C10       -1.7756    4.9394    2.4653 C.3       1 RES1    0.0000
     26 H12       -2.2747    4.0997    2.6259 H         1 RES1    0.0000
     27 H13       -2.0860    5.3255    1.6085 H         1 RES1    0.0000
     28 C11       -2.0344    5.9230    3.6015 C.3       1 RES1    0.0000
     29 H14       -1.5693    6.7747    3.4082 H         1 RES1    0.0000
     30 H15       -3.0047    6.1112    3.6564 H         1 RES1    0.0000
     31 O4        -1.5812    5.4124    4.8573 O.3       1 RES1    0.0000
     32 C12       -0.1847    5.1421    4.7864 C.3       1 RES1    0.0000
     33 H16        0.1292    4.7947    5.6587 H         1 RES1    0.0000
     34 H17        0.3045    5.9820    4.5975 H         1 RES1    0.0000
     35 C13        0.1141    4.1261    3.6989 C.3       1 RES1    0.0000
     36 H18        1.0863    3.9409    3.6704 H         1 RES1    0.0000
     37 H19       -0.3571    3.2774    3.8941 H         1 RES1    0.0000
     38 N2         2.2333    6.8259   -0.9126 N.pl3     1 RES1    0.0000
     39 O5         1.6503    7.5000   -1.7611 O.2       1 RES1    0.0000
     40 O6         3.4379    6.9624   -0.6484 O.2       1 RES1    0.0000
     41 C14       -0.7912    6.8315    0.0391 C.2       1 RES1    0.0000
     42 O7        -2.0956    6.9188   -0.3921 O.3       1 RES1    0.0000
     43 C15       -2.6381    8.0163    0.2462 C.2       1 RES1    0.0000
     44 H20       -3.5346    8.3147    0.1430 H         1 RES1    0.0000
     45 C16       -1.7191    8.6053    1.0355 C.2       1 RES1    0.0000
     46 H21       -1.8432    9.3781    1.5743 H         1 RES1    0.0000
     47 C17       -0.5134    7.8349    0.9019 C.2       1 RES1    0.0000
     48 H22        0.3159    7.9987    1.3349 H         1 RES1    0.0000
@<TRIPOS>BOND
     1    1    2 1
     2    2    3 1
     3    3    4 1
     4    4    5 1
     5    6    4 1
     6    7    4 1
     7    8    7 1
     8    9    8 1
     9   10    9 1
    10   11    9 2
    11   12   11 1
    12   13   12 1
    13   14    1 1
    14   15   14 1
    15   16    2 1
    16   17   16 1
    17   18   16 1
    18   19   16 1
    19   20    2 1
    20   21   20 1
    21   22   20 1
    22   23   20 1
    23   24    7 1
    24   25   24 1
    25   26   25 1
    26   27   25 1
    27   28   25 1
    28   29   28 1
    29   30   28 1
    30   31   28 1
    31   32   31 1
    32   33   32 1
    33   34   32 1
    34   35   24 1
    35   36   35 1
    36   37   35 1
    37   38   11 1
    38   39   38 2
    39   40   38 2
    40   41   12 1
    41   42   41 1
    42   43   42 1
    43   44   43 1
    44   45   43 2
    45   46   45 1
    46   47   41 2
    47   48   47 1
    48    7   14 1
    49   12   14 1
    50   32   35 1
    51   45   47 1
@<TRIPOS>SUBSTRUCTURE
     1 RES1 1

@<TRIPOS>CRYSIN
  11.0213   17.4606    8.8968  90.0000  99.6690  90.0000   9 1

