# MOL2 file generated by ConQuest
# Please check atom types

@<TRIPOS>MOLECULE
JOZRUL
    15    15     1
SMALL
NO_CHARGES
****
Generated from CSD

@<TRIPOS>ATOM
      1 H1         0.9893    1.3239   -0.7335 H         1 RES1    0.0000
      2 H2         6.4786   -0.0000   -2.8698 H         1 RES1    0.0000
      3 H3         3.0684    0.0000    1.5120 H         1 RES1    0.0000
      4 H4         1.9071    2.0197   -1.7879 H         1 RES1    0.0000
      5 H5         0.4950    1.3185   -2.1293 H         1 RES1    0.0000
      6 H6         6.1809    0.7290   -1.6450 H         1 RES1    0.0000
      7 C1         3.4828   -0.0000   -1.1482 C.2       1 RES1    0.0000
      8 C2         2.1519   -0.0000   -1.8347 C.2       1 RES1    0.0000
      9 C3         4.4991   -0.0000   -2.1947 C.2       1 RES1    0.0000
     10 C4         1.3550    1.2594   -1.6113 C.3       1 RES1    0.0000
     11 C5         5.9551   -0.0000   -2.0107 C.2       1 RES1    0.0000
     12 N1         3.9527   -0.0000   -3.3557 N.2       1 RES1    0.0000
     13 N2         3.8102    0.0000    0.0919 N.2       1 RES1    0.0000
     14 O1         2.5545   -0.0000   -3.2528 O.3       1 RES1    0.0000
     15 O2         2.6570    0.0000    0.8910 O.3       1 RES1    0.0000
@<TRIPOS>BOND
     1    1   10 1
     2    2   11 1
     3    3   15 1
     4    4   10 1
     5    5   10 1
     6    6   11 1
     7    7    8 1
     8    8   10 1
     9    9    7 1
    10   11    9 1
    11   12    9 1
    12   13    7 1
    13   14    8 1
    14   15   13 1
    15   12   14 1
@<TRIPOS>SUBSTRUCTURE
     1 RES1 1

@<TRIPOS>CRYSIN
  15.7867    6.7754    7.1090  90.0000  98.0420  90.0000  14 1

