# MOL2 file generated by ConQuest
# Please check atom types

@<TRIPOS>MOLECULE
JOZZAZ
    50    53     2
SMALL
NO_CHARGES
****
Generated from CSD

@<TRIPOS>ATOM
      1 C1         1.4262    2.0879    3.8639 C.3       1 RES1    0.0000
      2 C2         2.6713    1.2255    4.0469 C.3       1 RES1    0.0000
      3 C3         2.7378    0.7283    5.4416 C.2       1 RES1    0.0000
      4 C4         1.9285    1.2534    6.4954 C.2       1 RES1    0.0000
      5 C5         0.8645    2.2912    6.3124 C.3       1 RES1    0.0000
      6 C6         0.6988    3.1759    7.5596 C.3       1 RES1    0.0000
      7 C7         1.9071    4.0819    7.7529 C.3       1 RES1    0.0000
      8 C8         2.1812    4.9286    6.5146 C.3       1 RES1    0.0000
      9 C9         2.3613    4.0383    5.2557 C.3       1 RES1    0.0000
     10 C10        1.1459    3.1033    5.0077 C.3       1 RES1    0.0000
     11 C11        2.7624    4.8650    4.0233 C.3       1 RES1    0.0000
     12 C12        3.9676    5.7765    4.2654 C.3       1 RES1    0.0000
     13 C13        3.7415    6.6724    5.4756 C.3       1 RES1    0.0000
     14 C14        3.4305    5.7799    6.6770 C.3       1 RES1    0.0000
     15 C15        3.5532    6.7026    7.8872 C.3       1 RES1    0.0000
     16 C16        4.6950    7.6789    7.4946 C.3       1 RES1    0.0000
     17 C17        4.9897    7.3974    6.0025 C.3       1 RES1    0.0000
     18 C18        2.6427    7.7080    5.1937 C.3       1 RES1    0.0000
     19 C19       -0.1228    3.8920    4.6314 C.3       1 RES1    0.0000
     20 N1         2.2334    0.6624    7.6215 N.2       1 RES1    0.0000
     21 N2         3.5297   -0.1899    5.9272 N.2       1 RES1    0.0000
     22 O1         5.3999    8.5503    5.2763 O.3       1 RES1    0.0000
     23 O2         3.2412   -0.2480    7.3042 O.3       1 RES1    0.0000
     24 H1         4.9651    9.1971    5.3442 H         1 RES1    0.0000
     25 H2         1.5377    2.6419    2.9429 H         1 RES1    0.0000
     26 H3         0.5760    1.4265    3.7842 H         1 RES1    0.0000
     27 H4         3.5491    1.8198    3.8418 H         1 RES1    0.0000
     28 H5         2.6376    0.3865    3.3680 H         1 RES1    0.0000
     29 H6        -0.0890    1.7974    6.1929 H         1 RES1    0.0000
     30 H7         0.5873    2.5459    8.4303 H         1 RES1    0.0000
     31 H8        -0.1852    3.7859    7.4415 H         1 RES1    0.0000
     32 H9         2.7746    3.4719    7.9551 H         1 RES1    0.0000
     33 H10        1.7239    4.7376    8.5927 H         1 RES1    0.0000
     34 H11        1.3208    5.5676    6.2504 H         1 RES1    0.0000
     35 H12        3.1921    3.5792    5.4579 H         1 RES1    0.0000
     36 H13        1.9214    5.4760    3.7355 H         1 RES1    0.0000
     37 H14        3.0079    4.1847    3.2219 H         1 RES1    0.0000
     38 H15        4.1149    6.3976    3.3946 H         1 RES1    0.0000
     39 H16        4.8464    5.1699    4.4277 H         1 RES1    0.0000
     40 H17        4.1262    4.9655    6.8172 H         1 RES1    0.0000
     41 H18        2.6314    7.2422    8.0525 H         1 RES1    0.0000
     42 H19        3.8090    6.1463    8.7757 H         1 RES1    0.0000
     43 H20        5.5728    7.4879    8.0938 H         1 RES1    0.0000
     44 H21        4.3830    8.7044    7.6304 H         1 RES1    0.0000
     45 H22        2.4043    8.3447    6.0335 Du        2 SUP2    0.0000
     46 H23        1.7495    7.1986    4.8631 H         1 RES1    0.0000
     47 H24        3.0355    8.3090    6.0335 H         1 RES1    0.0000
     48 H25       -0.3489    4.6985    5.3132 H         1 RES1    0.0000
     49 H26       -0.9597    3.2117    4.5886 H         1 RES1    0.0000
     50 H27        0.0655    4.2941    3.6469 H         1 RES1    0.0000
@<TRIPOS>BOND
     1    1    2 1
     2    2    3 1
     3    3    4 1
     4    4    5 1
     5    5    6 1
     6    6    7 1
     7    7    8 1
     8    8    9 1
     9    9   10 1
    10   10    1 1
    11   11    9 1
    12   12   11 1
    13   13   12 1
    14   14    8 1
    15   15   14 1
    16   16   15 1
    17   17   13 1
    18   18   13 1
    19   19   10 1
    20   20    4 2
    21   21    3 2
    22   22   17 1
    23   23   20 1
    24   24   22 1
    25   25    1 1
    26   26    1 1
    27   27    2 1
    28   28    2 1
    29   29    5 1
    30   30    6 1
    31   31    6 1
    32   32    7 1
    33   33    7 1
    34   34    8 1
    35   35    9 1
    36   36   11 1
    37   37   11 1
    38   38   12 1
    39   39   12 1
    40   40   14 1
    41   41   15 1
    42   42   15 1
    43   43   16 1
    44   44   16 1
    45   46   18 1
    46   47   18 1
    47   48   19 1
    48   49   19 1
    49   50   19 1
    50    5   10 1
    51   13   14 1
    52   16   17 1
    53   21   23 1
@<TRIPOS>SUBSTRUCTURE
     1 RES1 1
     2 SUP2 45

@<TRIPOS>CRYSIN
  10.2310   11.1710   14.7590  90.0000  90.0000  90.0000  19 1

