# MOL2 file generated by ConQuest
# Please check atom types

@<TRIPOS>MOLECULE
JUBCEO
    29    29     1
SMALL
USER_CHARGES
****
Generated from CSD

@<TRIPOS>ATOM
      1 O1         2.2900   21.6522   13.5898 O.2       1 RES1    0.0000
      2 O2         3.8854   20.4237   12.5831 O.3       1 RES1    0.0000
      3 O3         0.8013   23.8268    5.1079 O.2       1 RES1   -1.0000
      4 N1         1.4318   23.1410    7.4273 N.3       1 RES1    0.0000
      5 N2         0.2998   23.8731    7.3050 N.2       1 RES1    0.0000
      6 N3         0.0680   24.1813    6.0858 N.pl3     1 RES1    1.0000
      7 C1         1.7753   22.6816    8.6953 C.ar      1 RES1    0.0000
      8 C2         0.9910   22.9810    9.8034 C.ar      1 RES1    0.0000
      9 C3         1.3673   22.5224   11.0514 C.ar      1 RES1    0.0000
     10 C4         2.5190   21.7646   11.2192 C.ar      1 RES1    0.0000
     11 C5         3.2935   21.4700   10.1015 C.ar      1 RES1    0.0000
     12 C6         2.9323   21.9246    8.8431 C.ar      1 RES1    0.0000
     13 C7         2.8646   21.3090   12.5775 C.2       1 RES1    0.0000
     14 C8         4.2793   19.9156   13.8878 C.3       1 RES1    0.0000
     15 C9         5.4203   18.9645   13.6505 C.3       1 RES1    0.0000
     16 C10       -1.1387   24.9762    5.8309 C.3       1 RES1    0.0000
     17 H1         1.8880   22.9049    6.6395 H         1 RES1    0.0000
     18 H2         0.0721   23.5879    9.6836 H         1 RES1    0.0000
     19 H3         0.7528   22.7310   11.9367 H         1 RES1    0.0000
     20 H4         4.2044   20.8662   10.2349 H         1 RES1    0.0000
     21 H5         3.5446   21.6978    7.9578 H         1 RES1    0.0000
     22 H6         4.5866   20.7402   14.5573 H         1 RES1    0.0000
     23 H7         3.4518   19.3793   14.3816 H         1 RES1    0.0000
     24 H8         5.7574   18.6989   14.5973 H         1 RES1    0.0000
     25 H9         6.2655   19.2785   13.1831 H         1 RES1    0.0000
     26 H10        4.8386   18.0941   12.9194 H         1 RES1    0.0000
     27 H11       -1.5839   25.1755    6.8073 H         1 RES1    0.0000
     28 H12       -1.7568   24.4699    5.1454 H         1 RES1    0.0000
     29 H13       -0.8870   25.9063    5.1454 H         1 RES1    0.0000
@<TRIPOS>BOND
     1    1   13 2
     2    2   13 1
     3    3    6 1
     4    4    5 1
     5    5    6 2
     6    6   16 1
     7    7    4 1
     8    8    7 ar
     9    9    8 ar
    10   10    9 ar
    11   11   10 ar
    12   12    7 ar
    13   13   10 1
    14   14    2 1
    15   15   14 1
    16   16   27 1
    17   17    4 1
    18   18    8 1
    19   19    9 1
    20   20   11 1
    21   21   12 1
    22   22   14 1
    23   23   14 1
    24   24   15 1
    25   25   15 1
    26   26   15 1
    27   28   16 1
    28   29   16 1
    29   11   12 ar
@<TRIPOS>SUBSTRUCTURE
     1 RES1 1

@<TRIPOS>CRYSIN
   5.5055   25.2007    8.1241  90.0000 100.4340  90.0000  14 1

