# MOL2 file generated by ConQuest
# Please check atom types

@<TRIPOS>MOLECULE
JUBCIS
    29    29     1
SMALL
USER_CHARGES
****
Generated from CSD

@<TRIPOS>ATOM
      1 O1         2.6909    2.3036    0.4872 O.2       1 RES1    0.0000
      2 O2         1.0624    3.4533    1.4868 O.3       1 RES1    0.0000
      3 O3         5.6272    1.5232   -1.5486 O.2       1 RES1   -1.0000
      4 N1         4.5839    3.6208   -0.7900 N.3       1 RES1    0.0000
      5 N2         5.6843    3.7573   -1.5486 N.2       1 RES1    0.0000
      6 N3         6.1425    2.6419   -1.8975 N.pl3     1 RES1    1.0000
      7 C1         3.9304    4.8065   -0.3405 C.ar      1 RES1    0.0000
      8 C2         2.7747    4.7003    0.4443 C.ar      1 RES1    0.0000
      9 C3         2.1595    5.8427    0.8990 C.ar      1 RES1    0.0000
     10 C4         2.6438    7.1085    0.5564 C.ar      1 RES1    0.0000
     11 C5         3.7740    7.1984   -0.2462 C.ar      1 RES1    0.0000
     12 C6         4.4091    6.0478   -0.6852 C.ar      1 RES1    0.0000
     13 C7         2.2114    3.3536    0.7932 C.2       1 RES1    0.0000
     14 C8         0.4421    2.2366    1.8650 C.3       1 RES1    0.0000
     15 C9        -0.7550    2.5839    2.6697 C.3       1 RES1    0.0000
     16 C10        7.3128    2.6729   -2.7578 C.3       1 RES1    0.0000
     17 H1         4.1273    2.6803   -0.5239 H         1 RES1    0.0000
     18 H2         1.2711    5.7283    1.5298 H         1 RES1    0.0000
     19 H3         2.1417    8.0163    0.9116 H         1 RES1    0.0000
     20 H4         4.1742    8.1634   -0.5448 H         1 RES1    0.0000
     21 H5         5.3171    6.1042   -1.2992 H         1 RES1    0.0000
     22 H6         0.1693    1.6016    0.9849 H         1 RES1    0.0000
     23 H7         1.1363    1.5771    2.4623 H         1 RES1    0.0000
     24 H8        -1.0685    1.8468    2.8395 H         1 RES1    0.0000
     25 H9        -0.5102    2.9254    3.5520 H         1 RES1    0.0000
     26 H10       -1.3785    3.1052    2.1899 H         1 RES1    0.0000
     27 H11        7.1523    2.2554   -3.5310 H         1 RES1    0.0000
     28 H12        7.7015    2.0184   -2.4204 H         1 RES1    0.0000
     29 H13        7.8811    3.5546   -2.8919 H         1 RES1    0.0000
@<TRIPOS>BOND
     1    1   13 2
     2    2   13 1
     3    3    6 1
     4    4    5 1
     5    5    6 2
     6    6   16 1
     7    7    4 1
     8    8    7 ar
     9    9    8 ar
    10   10    9 ar
    11   11   10 ar
    12   12    7 ar
    13   13    8 1
    14   14    2 1
    15   15   14 1
    16   16   27 1
    17   17    4 1
    18   18    9 1
    19   19   10 1
    20   20   11 1
    21   21   12 1
    22   22   14 1
    23   23   14 1
    24   24   15 1
    25   25   15 1
    26   26   15 1
    27   28   16 1
    28   29   16 1
    29   11   12 ar
@<TRIPOS>SUBSTRUCTURE
     1 RES1 1

@<TRIPOS>CRYSIN
  12.9630    8.1716   11.2120  90.0000 110.8500  90.0000  14 1

