# MOL2 file generated by ConQuest
# Please check atom types

@<TRIPOS>MOLECULE
JUBCOY
    24    25     1
SMALL
NO_CHARGES
****
Generated from CSD

@<TRIPOS>ATOM
      1 O1         1.8876    8.5497    1.2246 O.2       1 RES1    0.0000
      2 O2         3.3787    9.1187    2.6633 O.2       1 RES1    0.0000
      3 N1         0.5908    5.6679    3.9100 N.ar      1 RES1    0.0000
      4 N2         2.3881    8.4907    2.3296 N.pl3     1 RES1    0.0000
      5 C1         1.2612    6.3890    3.0075 C.ar      1 RES1    0.0000
      6 C2         1.7475    7.6463    3.3373 C.ar      1 RES1    0.0000
      7 C3         1.6064    8.1524    4.6062 C.ar      1 RES1    0.0000
      8 C4         0.9181    7.3985    5.5261 C.ar      1 RES1    0.0000
      9 C5         0.4126    6.1858    5.1260 C.ar      1 RES1    0.0000
     10 O3        -1.3312    5.8895    1.6257 O.2       1 RES1    0.0000
     11 O4        -1.2332    3.7301    1.7231 O.2       1 RES1    0.0000
     12 N3         2.8099    5.8029    1.2873 N.ar      1 RES1    0.0000
     13 N4        -0.7432    4.8288    1.5235 N.pl3     1 RES1    0.0000
     14 C6         1.5623    5.6967    1.7270 C.ar      1 RES1    0.0000
     15 C7         0.6533    4.8668    1.0896 C.ar      1 RES1    0.0000
     16 C8         1.0282    4.0972    0.0125 C.ar      1 RES1    0.0000
     17 C9         2.3139    4.2231   -0.4368 C.ar      1 RES1    0.0000
     18 C10        3.1571    5.0910    0.2092 C.ar      1 RES1    0.0000
     19 H1         1.9299    8.9810    4.8213 H         1 RES1    0.0000
     20 H2         0.7322    7.7355    6.3737 H         1 RES1    0.0000
     21 H3        -0.0946    5.6246    5.7566 H         1 RES1    0.0000
     22 H4         0.3669    3.5400   -0.3857 H         1 RES1    0.0000
     23 H5         2.5925    3.7235   -1.1764 H         1 RES1    0.0000
     24 H6         4.0592    5.2051   -0.0771 H         1 RES1    0.0000
@<TRIPOS>BOND
     1    1    4 2
     2    2    4 2
     3    3    5 ar
     4    4    6 1
     5    5    6 ar
     6    6    7 ar
     7    7    8 ar
     8    8    9 ar
     9    9    3 ar
    10   10   13 2
    11   11   13 2
    12   12   14 ar
    13   13   15 1
    14   14    5 1
    15   15   14 ar
    16   16   15 ar
    17   17   16 ar
    18   18   12 ar
    19   19    7 1
    20   20    8 1
    21   21    9 1
    22   22   16 1
    23   23   17 1
    24   24   18 1
    25   17   18 ar
@<TRIPOS>SUBSTRUCTURE
     1 RES1 1

@<TRIPOS>CRYSIN
   8.2590   13.1110    9.9780  90.0000 104.9000  90.0000  14 1

