# MOL2 file generated by ConQuest
# Please check atom types

@<TRIPOS>MOLECULE
JUBKAU
    64    66     1
SMALL
NO_CHARGES
****
Generated from CSD

@<TRIPOS>ATOM
      1 C1         7.0830    5.0296    9.7028 C.ar      1 RES1    0.0000
      2 C2         6.0773    4.9547    8.7694 C.ar      1 RES1    0.0000
      3 H1         6.2142    5.3132    7.9226 H         1 RES1    0.0000
      4 C3         4.8745    4.3624    9.0604 C.ar      1 RES1    0.0000
      5 H2         4.1981    4.3421    8.4219 H         1 RES1    0.0000
      6 C4         4.6740    3.8111   10.2722 C.ar      1 RES1    0.0000
      7 H3         3.8637    3.3999   10.4671 H         1 RES1    0.0000
      8 C5         5.6625    3.8554   11.2189 C.ar      1 RES1    0.0000
      9 H4         5.5251    3.4677   12.0524 H         1 RES1    0.0000
     10 C6         6.8615    4.4754   10.9356 C.ar      1 RES1    0.0000
     11 H5         7.5237    4.5171   11.5867 H         1 RES1    0.0000
     12 C7         8.3909    5.7233    9.3984 C.3       1 RES1    0.0000
     13 H6         8.8988    5.8163   10.2193 H         1 RES1    0.0000
     14 H7         8.9087    5.1721    8.7906 H         1 RES1    0.0000
     15 C8         7.2147    7.9160    9.4589 C.3       1 RES1    0.0000
     16 H8         7.3472    7.8694   10.4181 H         1 RES1    0.0000
     17 H9         6.3244    7.5814    9.2668 H         1 RES1    0.0000
     18 C9         7.2968    9.3317    9.0316 C.3       1 RES1    0.0000
     19 H10        8.0854    9.7479    9.4147 H         1 RES1    0.0000
     20 H11        6.5158    9.8167    9.3417 H         1 RES1    0.0000
     21 C10        7.3697    9.3822    7.5231 C.3       1 RES1    0.0000
     22 H12        7.3278   10.3059    7.2274 H         1 RES1    0.0000
     23 H13        6.6101    8.9101    7.1458 H         1 RES1    0.0000
     24 C11        8.6725    8.7418    7.0229 C.3       1 RES1    0.0000
     25 C12        8.9513    7.4313    7.7411 C.2       1 RES1    0.0000
     26 C13        9.8649    9.6935    7.2648 C.3       1 RES1    0.0000
     27 H14        9.8843    9.9465    8.2020 H         1 RES1    0.0000
     28 H15       10.6904    9.2244    7.0670 H         1 RES1    0.0000
     29 C14        9.7906   10.9472    6.4141 C.3       1 RES1    0.0000
     30 H16        9.0165   11.4696    6.6781 H         1 RES1    0.0000
     31 H17       10.5818   11.4871    6.5668 H         1 RES1    0.0000
     32 C15        9.6902   10.6106    4.9431 C.3       1 RES1    0.0000
     33 H18       10.5109   10.1831    4.6531 H         1 RES1    0.0000
     34 H19        9.5805   11.4274    4.4323 H         1 RES1    0.0000
     35 C16        8.5162    9.6852    4.6733 C.3       1 RES1    0.0000
     36 H20        8.4996    9.4512    3.7323 H         1 RES1    0.0000
     37 H21        7.6882   10.1455    4.8826 H         1 RES1    0.0000
     38 C17        8.6130    8.4094    5.5125 C.3       1 RES1    0.0000
     39 H22        9.4760    8.0014    5.2897 H         1 RES1    0.0000
     40 C18        7.5269    7.3203    5.2167 C.3       1 RES1    0.0000
     41 H23        7.2476    6.9800    6.0924 H         1 RES1    0.0000
     42 C19        6.2874    7.8099    4.5628 C.2       1 RES1    0.0000
     43 H24        6.4111    8.2540    3.7553 H         1 RES1    0.0000
     44 C20        8.1246    6.1100    4.4716 C.3       1 RES1    0.0000
     45 H25        8.7848    5.6886    5.0602 H         1 RES1    0.0000
     46 C21        8.8039    6.4109    3.1542 C.2       1 RES1    0.0000
     47 C22       10.4061    5.5577    1.6391 C.3       1 RES1    0.0000
     48 H26        9.7736    5.5880    0.9179 H         1 RES1    0.0000
     49 H27       10.9727    4.7899    1.5353 H         1 RES1    0.0000
     50 H28       10.9420    6.3540    1.6285 H         1 RES1    0.0000
     51 C23        7.0461    5.0978    4.1874 C.2       1 RES1    0.0000
     52 C24        5.3864    3.7756    5.1159 C.3       1 RES1    0.0000
     53 H29        4.6650    4.3844    4.9392 H         1 RES1    0.0000
     54 H30        5.1993    3.2829    5.9186 H         1 RES1    0.0000
     55 H31        5.4786    3.1663    4.3804 H         1 RES1    0.0000
     56 N1         8.2018    7.0465    8.7992 N.am      1 RES1    0.0000
     57 N2         5.0786    7.7072    4.9517 N.2       1 RES1    0.0000
     58 O1         4.9936    7.0455    6.1808 O.3       1 RES1    0.0000
     59 H32        5.6554    6.5736    6.2835 H         1 RES1    0.0000
     60 O2         9.8621    6.6791    7.3311 O.2       1 RES1    0.0000
     61 O3         8.5777    7.3345    2.4447 O.2       1 RES1    0.0000
     62 O4         9.7029    5.4689    2.8911 O.3       1 RES1    0.0000
     63 O5         6.6157    4.8436    3.1274 O.2       1 RES1    0.0000
     64 O6         6.6167    4.5212    5.2830 O.3       1 RES1    0.0000
@<TRIPOS>BOND
     1    1    2 ar
     2    2    3 1
     3    4    2 ar
     4    5    4 1
     5    6    4 ar
     6    7    6 1
     7    8    6 ar
     8    9    8 1
     9   10    1 ar
    10   11   10 1
    11   12    1 1
    12   13   12 1
    13   14   12 1
    14   15   16 1
    15   17   15 1
    16   18   15 1
    17   19   18 1
    18   20   18 1
    19   21   18 1
    20   22   21 1
    21   23   21 1
    22   24   21 1
    23   25   24 1
    24   26   24 1
    25   27   26 1
    26   28   26 1
    27   29   26 1
    28   30   29 1
    29   31   29 1
    30   32   29 1
    31   33   32 1
    32   34   32 1
    33   35   32 1
    34   36   35 1
    35   37   35 1
    36   38   24 1
    37   39   38 1
    38   40   38 1
    39   41   40 1
    40   42   40 1
    41   43   42 1
    42   44   40 1
    43   45   44 1
    44   46   44 1
    45   47   48 1
    46   49   47 1
    47   50   47 1
    48   51   44 1
    49   52   53 1
    50   54   52 1
    51   55   52 1
    52   56   12 1
    53   57   42 2
    54   58   57 1
    55   59   58 1
    56   60   25 2
    57   61   46 2
    58   62   46 1
    59   63   51 2
    60   64   51 1
    61    8   10 ar
    62   15   56 1
    63   25   56 1
    64   35   38 1
    65   47   62 1
    66   52   64 1
@<TRIPOS>SUBSTRUCTURE
     1 RES1 1

@<TRIPOS>CRYSIN
   7.2974    8.3147    9.9690  75.7880  83.4890  89.1090   1 1

