# MOL2 file generated by ConQuest
# Please check atom types

@<TRIPOS>MOLECULE
JUBKOI
    47    51     1
SMALL
NO_CHARGES
****
Generated from CSD

@<TRIPOS>ATOM
      1 N1         0.9715    3.1218   25.9166 N.3       1 RES1    0.0000
      2 O1        -0.9668    0.2854   24.8038 O.3       1 RES1    0.0000
      3 O2        -1.5710    1.3119   22.8196 O.3       1 RES1    0.0000
      4 O3        -0.5321    3.1553   23.5494 O.3       1 RES1    0.0000
      5 O4         1.4966    2.6985   27.2012 O.3       1 RES1    0.0000
      6 O5         0.4370   -0.2557   27.4073 O.3       1 RES1    0.0000
      7 C1        -1.7334    1.2861   24.2075 C.3       1 RES1    0.0000
      8 H1        -2.6790    1.1903   24.4476 H         1 RES1    0.0000
      9 C2        -1.1847    2.6372   24.6856 C.3       1 RES1    0.0000
     10 H2        -1.8846    3.2319   25.0272 H         1 RES1    0.0000
     11 C3        -0.1843    2.2379   25.7506 C.3       1 RES1    0.0000
     12 C4         0.2664    0.8800   25.2210 C.3       1 RES1    0.0000
     13 H3         0.8156    1.0323   24.4241 H         1 RES1    0.0000
     14 C5         1.0082   -0.0699   26.1268 C.3       1 RES1    0.0000
     15 H4         1.0631   -0.9337   25.6859 H         1 RES1    0.0000
     16 H5         1.9147    0.2576   26.2392 H         1 RES1    0.0000
     17 C6         0.8298    0.7038   28.3602 C.3       1 RES1    0.0000
     18 H6         1.7931    0.6636   28.4641 H         1 RES1    0.0000
     19 H7         0.4311    0.4769   29.2135 H         1 RES1    0.0000
     20 C7         0.4406    2.1096   28.0027 C.3       1 RES1    0.0000
     21 H8         0.3000    2.6372   28.8154 H         1 RES1    0.0000
     22 C8        -0.7979    2.1498   27.1368 C.3       1 RES1    0.0000
     23 H9        -1.3448    2.9264   27.3341 H         1 RES1    0.0000
     24 H10       -1.3318    1.3464   27.2404 H         1 RES1    0.0000
     25 C9         0.5599    4.5429   26.0489 C.3       1 RES1    0.0000
     26 H11       -0.0974    4.6185   26.7574 H         1 RES1    0.0000
     27 H12        0.1412    4.8311   25.2233 H         1 RES1    0.0000
     28 C10        1.7169    5.4382   26.3528 C.ar      1 RES1    0.0000
     29 C11        2.6045    5.8107   25.3709 C.ar      1 RES1    0.0000
     30 H13        2.5136    5.4765   24.5090 H         1 RES1    0.0000
     31 C12        3.6369    6.6888   25.6718 C.ar      1 RES1    0.0000
     32 H14        4.2322    6.9503   25.0067 H         1 RES1    0.0000
     33 C13        3.7781    7.1657   26.9277 C.ar      1 RES1    0.0000
     34 H15        4.4756    7.7479   27.1262 H         1 RES1    0.0000
     35 C14        2.9128    6.8009   27.8967 C.ar      1 RES1    0.0000
     36 H16        3.0144    7.1293   28.7598 H         1 RES1    0.0000
     37 C15        1.8811    5.9448   27.6022 C.ar      1 RES1    0.0000
     38 H17        1.2828    5.7054   28.2738 H         1 RES1    0.0000
     39 C16       -1.1357    2.5855   22.3998 C.3       1 RES1    0.0000
     40 C17       -0.0856    2.4179   21.3500 C.3       1 RES1    0.0000
     41 H18        0.6018    1.8319   21.6752 H         1 RES1    0.0000
     42 H19        0.2965    3.2740   21.1395 H         1 RES1    0.0000
     43 H20       -0.4802    2.0416   20.5598 H         1 RES1    0.0000
     44 C18       -2.3033    3.4129   21.9445 C.3       1 RES1    0.0000
     45 H21       -2.7002    3.0069   21.1688 H         1 RES1    0.0000
     46 H22       -2.0021    4.2968   21.7221 H         1 RES1    0.0000
     47 H23       -2.9536    3.4627   22.6471 H         1 RES1    0.0000
@<TRIPOS>BOND
     1    1    5 1
     2    2    7 1
     3    3    7 1
     4    4    9 1
     5    5   20 1
     6    6   14 1
     7    7    8 1
     8    9    7 1
     9   10    9 1
    10   11    1 1
    11   12    2 1
    12   13   12 1
    13   14   12 1
    14   15   14 1
    15   16   14 1
    16   17    6 1
    17   18   17 1
    18   19   17 1
    19   20   17 1
    20   21   20 1
    21   22   11 1
    22   23   22 1
    23   24   22 1
    24   25    1 1
    25   26   25 1
    26   27   25 1
    27   28   25 1
    28   29   28 ar
    29   30   29 1
    30   31   29 ar
    31   32   31 1
    32   33   31 ar
    33   34   33 1
    34   35   33 ar
    35   36   35 1
    36   37   28 ar
    37   38   37 1
    38   39    3 1
    39   40   39 1
    40   41   40 1
    41   42   40 1
    42   43   40 1
    43   44   39 1
    44   45   44 1
    45   46   44 1
    46   47   44 1
    47    4   39 1
    48    9   11 1
    49   11   12 1
    50   20   22 1
    51   35   37 ar
@<TRIPOS>SUBSTRUCTURE
     1 RES1 1

@<TRIPOS>CRYSIN
   5.9060    9.5760   29.2750  90.0000  90.0000  90.0000  19 1

