# MOL2 file generated by ConQuest
# Please check atom types

@<TRIPOS>MOLECULE
JUBMEY
    26    28     1
SMALL
NO_CHARGES
****
Generated from CSD

@<TRIPOS>ATOM
      1 O1         6.4910    2.7595   12.6577 O.2       1 RES1    0.0000
      2 O2         2.6186   -0.3334   10.8329 O.2       1 RES1    0.0000
      3 O3         7.9193    0.8665   14.1296 O.2       1 RES1    0.0000
      4 O4         6.7880    1.0965   15.9564 O.2       1 RES1    0.0000
      5 O5         2.7422   -2.4514   12.5604 O.2       1 RES1    0.0000
      6 O6         2.2060   -1.7866   14.5412 O.2       1 RES1    0.0000
      7 N1         5.3869    0.7682   12.8037 N.am      1 RES1    0.0000
      8 N2         6.8776    0.8513   14.7663 N.pl3     1 RES1    0.0000
      9 N3         2.8521   -1.7177   13.5214 N.pl3     1 RES1    0.0000
     10 C1         5.7995    1.9457   12.0819 C.2       1 RES1    0.0000
     11 C2         5.3052    2.0562   10.7032 C.ar      1 RES1    0.0000
     12 C3         5.8505    3.0747    9.9226 C.ar      1 RES1    0.0000
     13 C4         5.3313    3.2115    8.6148 C.ar      1 RES1    0.0000
     14 C5         4.3644    2.4018    8.1566 C.ar      1 RES1    0.0000
     15 C6         3.8021    1.4046    8.9392 C.ar      1 RES1    0.0000
     16 C7         4.2850    1.2384   10.2510 C.ar      1 RES1    0.0000
     17 C8         3.6411    0.2534   11.1066 C.2       1 RES1    0.0000
     18 C9         4.2884    0.0193   12.4205 C.2       1 RES1    0.0000
     19 C10        3.9449   -0.7550   13.4890 C.2       1 RES1    0.0000
     20 C11        4.7827   -0.5026   14.5595 C.2       1 RES1    0.0000
     21 C12        5.6748    0.4185   14.0992 C.2       1 RES1    0.0000
     22 H1         6.5069    3.6584   10.2794 H         1 RES1    0.0000
     23 H2         5.7247    3.9016    8.0695 H         1 RES1    0.0000
     24 H3         4.1263    2.6247    7.2585 H         1 RES1    0.0000
     25 H4         3.1287    0.8614    8.5763 H         1 RES1    0.0000
     26 H5         4.7498   -0.8614   15.4293 H         1 RES1    0.0000
@<TRIPOS>BOND
     1    1   10 2
     2    2   17 2
     3    3    8 2
     4    4    8 2
     5    5    9 2
     6    6    9 2
     7    7   10 1
     8    8   21 1
     9    9   19 1
    10   10   11 1
    11   11   12 ar
    12   12   13 ar
    13   13   14 ar
    14   14   15 ar
    15   15   16 ar
    16   16   11 ar
    17   17   16 1
    18   18    7 1
    19   19   18 2
    20   20   19 1
    21   21    7 1
    22   22   12 1
    23   23   13 1
    24   24   14 1
    25   25   15 1
    26   26   20 1
    27   17   18 1
    28   20   21 2
@<TRIPOS>SUBSTRUCTURE
     1 RES1 1

@<TRIPOS>CRYSIN
  11.3360   10.1340   20.2750  90.0000  90.0000  90.0000  61 1

