# MOL2 file generated by ConQuest
# Please check atom types

@<TRIPOS>MOLECULE
JUDVEJ
    88    91     1
SMALL
NO_CHARGES
****
Generated from CSD

@<TRIPOS>ATOM
      1 O1         6.3453    8.6899   26.3839 O.3       1 RES1    0.0000
      2 O2         4.2816   10.6257   32.1873 O.3       1 RES1    0.0000
      3 O3         4.1053    8.6174   33.1738 O.2       1 RES1    0.0000
      4 O4         5.8689   10.8399   29.7209 O.3       1 RES1    0.0000
      5 O5         6.4421    8.8510   30.6421 O.2       1 RES1    0.0000
      6 N1         6.1612    9.3539   27.6260 N.2       1 RES1    0.0000
      7 C1         3.5119   12.4859   30.0359 C.3       1 RES1    0.0000
      8 C2         2.5927   11.6553   30.9036 C.3       1 RES1    0.0000
      9 C3         3.2004   10.3208   31.2453 C.3       1 RES1    0.0000
     10 C4         3.7286    9.5918   30.0300 C.3       1 RES1    0.0000
     11 C5         4.6113   10.4246   29.0940 C.3       1 RES1    0.0000
     12 C6         4.9305    9.6740   27.7984 C.2       1 RES1    0.0000
     13 C7         3.8005    9.4274   26.8534 C.3       1 RES1    0.0000
     14 C8         3.0471   10.7458   26.5266 C.3       1 RES1    0.0000
     15 C9         2.6723   11.4650   27.8311 C.3       1 RES1    0.0000
     16 C10        3.9145   11.7862   28.7225 C.3       1 RES1    0.0000
     17 C11        1.7886   12.6892   27.5547 C.3       1 RES1    0.0000
     18 C12        0.5406   12.3507   26.7227 C.3       1 RES1    0.0000
     19 C13        0.9087   11.6791   25.4004 C.3       1 RES1    0.0000
     20 C14        1.7819   10.4495   25.7421 C.3       1 RES1    0.0000
     21 C15        1.8959    9.7162   24.4168 C.3       1 RES1    0.0000
     22 C16        0.5157    9.9238   23.7482 C.3       1 RES1    0.0000
     23 C17       -0.2387   10.9783   24.6278 C.3       1 RES1    0.0000
     24 C18        1.6400   12.6557   24.4644 C.3       1 RES1    0.0000
     25 C19        4.9075   12.6946   27.9648 C.3       1 RES1    0.0000
     26 C20       -1.2614   11.7970   23.8374 C.3       1 RES1    0.0000
     27 C21       -1.9659   12.8244   24.6575 C.3       1 RES1    0.0000
     28 C22       -2.2707   10.8691   23.1510 C.3       1 RES1    0.0000
     29 C23       -3.2742   11.5612   22.2446 C.3       1 RES1    0.0000
     30 C24       -4.0343   10.6831   21.3591 C.3       1 RES1    0.0000
     31 C25       -4.9392   11.3633   20.3548 C.3       1 RES1    0.0000
     32 C26       -6.0922   11.9030   20.9580 C.3       1 RES1    0.0000
     33 C27       -5.1960   10.5630   19.1870 C.3       1 RES1    0.0000
     34 C28        4.6152    9.6989   33.0787 C.2       1 RES1    0.0000
     35 C29        5.7232   10.1715   33.9732 C.3       1 RES1    0.0000
     36 C30        6.7114    9.9487   30.2944 C.2       1 RES1    0.0000
     37 C31        8.0639   10.5706   30.4430 C.3       1 RES1    0.0000
     38 H1         7.1600    8.4465   26.5058 H         1 RES1    0.0000
     39 H2         4.3046   12.6709   30.5262 H         1 RES1    0.0000
     40 H3         3.0739   13.2981   29.8190 H         1 RES1    0.0000
     41 H4         2.4193   12.1312   31.7029 H         1 RES1    0.0000
     42 H5         1.7790   11.5104   30.4341 H         1 RES1    0.0000
     43 H6         2.5496    9.7346   31.6227 H         1 RES1    0.0000
     44 H7         2.9819    9.2804   29.5278 H         1 RES1    0.0000
     45 H8         4.2385    8.8478   30.3301 H         1 RES1    0.0000
     46 H9         3.1966    8.8110   27.2427 H         1 RES1    0.0000
     47 H10        4.1465    9.0565   26.0422 H         1 RES1    0.0000
     48 H11        3.6174   11.2973   25.9977 H         1 RES1    0.0000
     49 H12        2.1528   10.8647   28.3451 H         1 RES1    0.0000
     50 H13        2.2908   13.3360   27.0763 H         1 RES1    0.0000
     51 H14        1.4953   13.0515   28.3778 H         1 RES1    0.0000
     52 H15        0.0681   13.1554   26.5325 H         1 RES1    0.0000
     53 H16       -0.0144   11.7667   27.2160 H         1 RES1    0.0000
     54 H17        1.3889    9.8730   26.3869 H         1 RES1    0.0000
     55 H18        2.0646    8.7958   24.5535 H         1 RES1    0.0000
     56 H19        2.5841   10.0958   23.8849 H         1 RES1    0.0000
     57 H20        0.0288    9.1084   23.7274 H         1 RES1    0.0000
     58 H21        0.6201   10.2505   22.8597 H         1 RES1    0.0000
     59 H22       -0.8396   10.6344   25.2696 H         1 RES1    0.0000
     60 H23        1.0668   13.3944   24.2801 H         1 RES1    0.0000
     61 H24        2.4288   12.9564   24.8804 H         1 RES1    0.0000
     62 H25        1.8480   12.2112   23.6531 H         1 RES1    0.0000
     63 H26        4.4858   13.5306   27.7716 H         1 RES1    0.0000
     64 H27        5.6724   12.8417   28.4967 H         1 RES1    0.0000
     65 H28        5.1539   12.2783   27.1476 H         1 RES1    0.0000
     66 H29       -0.7620   12.2664   23.1688 H         1 RES1    0.0000
     67 H30       -2.4317   12.4016   25.3558 H         1 RES1    0.0000
     68 H31       -1.3323   13.4366   25.0052 H         1 RES1    0.0000
     69 H32       -2.5841   13.2960   24.0989 H         1 RES1    0.0000
     70 H33       -2.7490   10.1228   23.8285 H         1 RES1    0.0000
     71 H34       -1.7876   10.2461   22.6220 H         1 RES1    0.0000
     72 H35       -2.8055   12.1799   21.7068 H         1 RES1    0.0000
     73 H36       -3.8906   12.0241   22.8063 H         1 RES1    0.0000
     74 H37       -4.5922   10.1358   21.9148 H         1 RES1    0.0000
     75 H38       -3.4276   10.1456   20.8896 H         1 RES1    0.0000
     76 H39       -4.4618   12.1063   19.9982 H         1 RES1    0.0000
     77 H40       -6.5590   11.2444   21.4067 H         1 RES1    0.0000
     78 H41       -5.7836   12.5714   21.6147 H         1 RES1    0.0000
     79 H42       -6.6041   12.3475   20.3191 H         1 RES1    0.0000
     80 H43       -4.3688   10.3727   18.7799 H         1 RES1    0.0000
     81 H44       -5.6159    9.7659   19.4722 H         1 RES1    0.0000
     82 H45       -5.7539   11.0518   18.6164 H         1 RES1    0.0000
     83 H46        6.4795   10.3694   33.4680 H         1 RES1    0.0000
     84 H47        5.4261   10.9426   34.4516 H         1 RES1    0.0000
     85 H48        5.9207    9.4815   34.6120 H         1 RES1    0.0000
     86 H49        8.3907   10.8204   29.5932 H         1 RES1    0.0000
     87 H50        7.9891   11.3384   30.9987 H         1 RES1    0.0000
     88 H51        8.6572    9.9466   30.8471 H         1 RES1    0.0000
@<TRIPOS>BOND
     1    1    6 1
     2    2    9 1
     3    3   34 2
     4    4   11 1
     5    5   36 2
     6    6   12 2
     7    7    8 1
     8    8    9 1
     9    9   10 1
    10   10   11 1
    11   11   12 1
    12   12   13 1
    13   13   14 1
    14   14   15 1
    15   15   16 1
    16   16    7 1
    17   17   15 1
    18   18   17 1
    19   19   18 1
    20   20   14 1
    21   21   20 1
    22   22   21 1
    23   23   19 1
    24   24   19 1
    25   25   16 1
    26   26   23 1
    27   27   26 1
    28   28   26 1
    29   29   28 1
    30   30   29 1
    31   31   30 1
    32   32   31 1
    33   33   31 1
    34   34    2 1
    35   35   34 1
    36   36    4 1
    37   37   36 1
    38   38    1 1
    39   39    7 1
    40   40    7 1
    41   41    8 1
    42   42    8 1
    43   43    9 1
    44   44   10 1
    45   45   10 1
    46   46   13 1
    47   47   13 1
    48   48   14 1
    49   49   15 1
    50   50   17 1
    51   51   17 1
    52   52   18 1
    53   53   18 1
    54   54   20 1
    55   55   21 1
    56   56   21 1
    57   57   22 1
    58   58   22 1
    59   59   23 1
    60   60   24 1
    61   61   24 1
    62   62   24 1
    63   63   25 1
    64   64   25 1
    65   65   25 1
    66   66   26 1
    67   67   27 1
    68   68   27 1
    69   69   27 1
    70   70   28 1
    71   71   28 1
    72   72   29 1
    73   73   29 1
    74   74   30 1
    75   75   30 1
    76   76   31 1
    77   77   32 1
    78   78   32 1
    79   79   32 1
    80   80   33 1
    81   81   33 1
    82   82   33 1
    83   83   35 1
    84   84   35 1
    85   85   35 1
    86   86   37 1
    87   87   37 1
    88   88   37 1
    89   11   16 1
    90   19   20 1
    91   22   23 1
@<TRIPOS>SUBSTRUCTURE
     1 RES1 1

@<TRIPOS>CRYSIN
   9.5850   10.8150   29.7150  90.0000  90.0000  90.0000  19 1

