# MOL2 file generated by ConQuest
# Please check atom types

@<TRIPOS>MOLECULE
JUFLAX
    39    42     1
SMALL
NO_CHARGES
****
Generated from CSD

@<TRIPOS>ATOM
      1 O1         0.5106    2.3140   16.1832 O.3       1 RES1    0.0000
      2 O2         2.3296    1.2942   17.9083 O.2       1 RES1    0.0000
      3 O3         1.2855    4.2227   17.0720 O.2       1 RES1    0.0000
      4 O4        -3.2009    5.3006   16.4540 O.2       1 RES1    0.0000
      5 O5        -1.4037    4.4800   15.5783 O.2       1 RES1    0.0000
      6 O6        -3.5424    2.5507   21.9001 O.2       1 RES1    0.0000
      7 O7        -4.9021    3.4970   20.5090 O.2       1 RES1    0.0000
      8 N1        -2.1997    4.5860   16.4961 N.pl3     1 RES1    0.0000
      9 N2        -3.8156    3.0311   20.8114 N.pl3     1 RES1    0.0000
     10 C1         1.5709    2.2815   15.2707 C.ar      1 RES1    0.0000
     11 C2         1.3049    2.8132   14.0110 C.ar      1 RES1    0.0000
     12 C3         2.2546    2.7328   13.0275 C.ar      1 RES1    0.0000
     13 C4         3.4959    2.1165   13.2747 C.ar      1 RES1    0.0000
     14 C5         4.4855    2.0190   12.2649 C.ar      1 RES1    0.0000
     15 C6         5.6766    1.4079   12.5174 C.ar      1 RES1    0.0000
     16 C7         5.9307    0.8574   13.7796 C.ar      1 RES1    0.0000
     17 C8         4.9956    0.9352   14.8000 C.ar      1 RES1    0.0000
     18 C9         5.2519    0.3770   16.1069 C.2       1 RES1    0.0000
     19 C10        4.3724    0.4795   17.1036 C.2       1 RES1    0.0000
     20 C11        3.0873    1.1480   16.9458 C.2       1 RES1    0.0000
     21 C12        2.7818    1.6797   15.5915 C.ar      1 RES1    0.0000
     22 C13        3.7524    1.5763   14.5554 C.ar      1 RES1    0.0000
     23 C14        0.4695    3.3628   17.0273 C.2       1 RES1    0.0000
     24 C15       -0.7052    3.2448   17.9530 C.ar      1 RES1    0.0000
     25 C16       -1.9440    3.8449   17.7347 C.ar      1 RES1    0.0000
     26 C17       -2.9772    3.7808   18.6419 C.ar      1 RES1    0.0000
     27 C18       -2.7383    3.0722   19.8016 C.ar      1 RES1    0.0000
     28 C19       -1.5125    2.2686   20.0672 C.ar      1 RES1    0.0000
     29 C20       -0.5296    2.5285   19.1284 C.ar      1 RES1    0.0000
     30 H1         0.4442    3.2713   13.8296 H         1 RES1    0.0000
     31 H2         2.1388    3.0952   12.1255 H         1 RES1    0.0000
     32 H3         4.2060    2.4063   11.3761 H         1 RES1    0.0000
     33 H4         6.3823    1.3591   11.8231 H         1 RES1    0.0000
     34 H5         6.8999    0.4154   13.9953 H         1 RES1    0.0000
     35 H6         6.1255   -0.0709   16.2673 H         1 RES1    0.0000
     36 H7         4.4757    0.1009   17.9635 H         1 RES1    0.0000
     37 H8         0.3172    2.0498   19.2547 H         1 RES1    0.0000
     38 H9        -1.4195    1.9806   20.9166 H         1 RES1    0.0000
     39 H10       -3.9301    4.1432   18.4342 H         1 RES1    0.0000
@<TRIPOS>BOND
     1    1   10 1
     2    2   20 2
     3    3   23 2
     4    4    8 2
     5    5    8 2
     6    6    9 2
     7    7    9 2
     8    8   25 1
     9    9   27 1
    10   10   11 ar
    11   11   12 ar
    12   12   13 ar
    13   13   14 ar
    14   14   15 ar
    15   15   16 ar
    16   16   17 ar
    17   17   18 1
    18   18   19 2
    19   19   20 1
    20   20   21 1
    21   21   10 ar
    22   22   13 ar
    23   23    1 1
    24   24   23 1
    25   25   24 ar
    26   26   25 ar
    27   27   26 ar
    28   28   27 ar
    29   29   24 ar
    30   30   11 1
    31   31   12 1
    32   32   14 1
    33   33   15 1
    34   34   16 1
    35   35   18 1
    36   36   19 1
    37   37   29 1
    38   38   28 1
    39   39   26 1
    40   17   22 ar
    41   21   22 ar
    42   28   29 ar
@<TRIPOS>SUBSTRUCTURE
     1 RES1 1

