# MOL2 file generated by ConQuest
# Please check atom types

@<TRIPOS>MOLECULE
JUHJAZ
    71    66     3
SMALL
NO_CHARGES
****
Generated from CSD

@<TRIPOS>ATOM
      1 N1         9.1699    1.2412    5.2192 N.2       1 RES1    0.0000
      2 C1         9.0827    2.1720    4.0570 C.3       1 RES1    0.0000
      3 H1         8.5241    1.7361    3.3657 H         1 RES1    0.0000
      4 H2         9.9917    2.2656    3.6789 H         1 RES1    0.0000
      5 C2         8.5245    3.5857    4.2803 C.3       1 RES1    0.0000
      6 H3         9.1332    4.0935    4.8735 H         1 RES1    0.0000
      7 C3         7.1434    3.5105    4.9100 C.3       1 RES1    0.0000
      8 H4         7.1905    2.9602    5.7312 H         1 RES1    0.0000
      9 H5         6.8537    4.4210    5.1695 H         1 RES1    0.0000
     10 N2         6.1559    2.9330    4.0014 N.2       1 RES1    0.0000
     11 H6         6.0959    2.0940    3.9057 H         1 RES1    0.0000
     12 C4         5.4745    3.6904    3.1242 C.2       1 RES1    0.0000
     13 O1         5.6050    4.9127    3.0259 O.2       1 RES1    0.0000
     14 N3         4.5630    2.9759    2.3648 N.2       1 RES1    0.0000
     15 H7         4.4261    2.1678    2.5966 H         1 RES1    0.0000
     16 C5         3.7565    3.5257    1.3685 C.2       1 RES1    0.0000
     17 C6         2.4175    3.1535    1.1713 C.2       1 RES1    0.0000
     18 C7         1.6372    3.7190    0.1594 C.2       1 RES1    0.0000
     19 H8         0.7319    3.4492    0.0518 H         1 RES1    0.0000
     20 C8         2.1737    4.6608   -0.6768 C.2       1 RES1    0.0000
     21 H9         1.6406    5.0566   -1.3566 H         1 RES1    0.0000
     22 C9         3.5074    5.0344   -0.5228 C.2       1 RES1    0.0000
     23 H10        3.8896    5.6769   -1.1104 H         1 RES1    0.0000
     24 C10        4.2799    4.4754    0.4807 C.2       1 RES1    0.0000
     25 H11        5.1878    4.7420    0.5703 H         1 RES1    0.0000
     26 N4         1.7583    2.1586    2.0166 N.2       1 RES1    0.0000
     27 O2         2.4433    1.4220    2.7280 O.2       1 RES1    0.0000
     28 O3         0.5283    2.0820    1.9641 O.2       1 RES1    0.0000
     29 C11       10.1902    1.6978    6.1718 C.3       1 RES1    0.0000
     30 H12       10.2468    1.0664    6.9193 H         1 RES1    0.0000
     31 H13        9.9485    2.5848    6.5110 H         1 RES1    0.0000
     32 H14       11.0606    1.7463    5.7204 H         1 RES1    0.0000
     33 H15        8.4063    3.8772    3.3419 H         1 RES1    0.0000
     34 C12        9.5904   -0.1416    4.8951 Du        3 SUP3    0.0000
     35 H16        8.8875    2.6646    4.2514 Du        3 SUP3    0.0000
     36 H17        8.4697    4.0621    3.4132 Du        3 SUP3    0.0000
     37 H18       10.3560   -0.0959    4.2708 Du        3 SUP3    0.0000
     38 H19        9.9097   -0.5719    5.7268 Du        3 SUP3    0.0000
     39 N1A       12.6908    1.2412    5.5821 N.2       2 RES2    0.0000
     40 C1A       12.7779    2.1720    6.7443 C.3       2 RES2    0.0000
     41 H1A       13.3366    1.7361    7.4356 H         2 RES2    0.0000
     42 H2A       11.8690    2.2656    7.1224 H         2 RES2    0.0000
     43 C2A       13.3362    3.5857    6.5209 C.3       2 RES2    0.0000
     44 H3A       12.7275    4.0935    5.9277 H         2 RES2    0.0000
     45 C3A       14.7173    3.5105    5.8912 C.3       2 RES2    0.0000
     46 H4A       14.6702    2.9602    5.0701 H         2 RES2    0.0000
     47 H5A       15.0070    4.4210    5.6318 H         2 RES2    0.0000
     48 N2A       15.7048    2.9330    6.7998 N.2       2 RES2    0.0000
     49 H6A       15.7648    2.0940    6.8955 H         2 RES2    0.0000
     50 C4A       16.3862    3.6904    7.6771 C.2       2 RES2    0.0000
     51 O1A       16.2557    4.9127    7.7754 O.2       2 RES2    0.0000
     52 N3A       17.2976    2.9759    8.4364 N.2       2 RES2    0.0000
     53 H7A       17.4346    2.1678    8.2046 H         2 RES2    0.0000
     54 C5A       18.1042    3.5257    9.4328 C.2       2 RES2    0.0000
     55 C6A       19.4431    3.1535    9.6300 C.2       2 RES2    0.0000
     56 C7A       20.2235    3.7190   10.6418 C.2       2 RES2    0.0000
     57 H8A       21.1288    3.4492   10.7494 H         2 RES2    0.0000
     58 C8A       19.6870    4.6608   11.4781 C.2       2 RES2    0.0000
     59 H9A       20.2200    5.0566   12.1579 H         2 RES2    0.0000
     60 C9A       18.3533    5.0344   11.3241 C.2       2 RES2    0.0000
     61 H10A      17.9711    5.6769   11.9116 H         2 RES2    0.0000
     62 C10A      17.5808    4.4754   10.3206 C.2       2 RES2    0.0000
     63 H11A      16.6729    4.7420   10.2310 H         2 RES2    0.0000
     64 N4A       20.1023    2.1586    8.7847 N.2       2 RES2    0.0000
     65 O2A       19.4174    1.4220    8.0733 O.2       2 RES2    0.0000
     66 O3A       21.3324    2.0820    8.8372 O.2       2 RES2    0.0000
     67 C11A      11.6705    1.6978    4.6294 C.3       2 RES2    0.0000
     68 H12A      11.6139    1.0664    3.8820 H         2 RES2    0.0000
     69 H13A      11.9121    2.5848    4.2903 H         2 RES2    0.0000
     70 H14A      10.8001    1.7463    5.0809 H         2 RES2    0.0000
     71 H15A      13.4544    3.8772    7.4594 H         2 RES2    0.0000
@<TRIPOS>BOND
     1    1    2 1
     2    2    3 1
     3    4    2 1
     4    5    2 1
     5    6    5 1
     6    7    5 1
     7    8    7 1
     8    9    7 1
     9   10    7 1
    10   11   10 1
    11   12   10 1
    12   13   12 1
    13   14   12 1
    14   15   14 1
    15   16   14 1
    16   17   16 1
    17   18   17 1
    18   19   18 1
    19   20   18 1
    20   21   20 1
    21   22   20 1
    22   23   22 1
    23   24   16 1
    24   25   24 1
    25   26   17 1
    26   27   26 1
    27   28   26 1
    28   29    1 1
    29   30   29 1
    30   31   29 1
    31   32   29 1
    32   33    5 1
    33   39   40 1
    34   40   41 1
    35   42   40 1
    36   43   40 1
    37   44   43 1
    38   45   43 1
    39   46   45 1
    40   47   45 1
    41   48   45 1
    42   49   48 1
    43   50   48 1
    44   51   50 1
    45   52   50 1
    46   53   52 1
    47   54   52 1
    48   55   54 1
    49   56   55 1
    50   57   56 1
    51   58   56 1
    52   59   58 1
    53   60   58 1
    54   61   60 1
    55   62   54 1
    56   63   62 1
    57   64   55 1
    58   65   64 1
    59   66   64 1
    60   67   39 1
    61   68   67 1
    62   69   67 1
    63   70   67 1
    64   71   43 1
    65   22   24 1
    66   60   62 1
@<TRIPOS>SUBSTRUCTURE
     1 RES1 1
     2 RES2 39
     3 SUP3 34

@<TRIPOS>CRYSIN
  22.4710    4.6124   21.6370  90.0000  93.2340  90.0000  15 1

