# MOL2 file generated by ConQuest
# Please check atom types

@<TRIPOS>MOLECULE
JUKDIC
    34    36     1
SMALL
NO_CHARGES
****
Generated from CSD

@<TRIPOS>ATOM
      1 O1         0.0132    0.9130    5.4358 O.2       1 RES1    0.0000
      2 O2         0.3071    3.3838    4.2932 O.3       1 RES1    0.0000
      3 O3         1.1032    3.9541    1.3845 O.2       1 RES1    0.0000
      4 O4         1.8587    2.2784    0.2940 O.2       1 RES1    0.0000
      5 N1         1.4567    2.7898    1.3178 N.pl3     1 RES1    0.0000
      6 C1         0.1545    0.9543    4.2327 C.2       1 RES1    0.0000
      7 C2         0.1967    2.2561    3.4529 C.3       1 RES1    0.0000
      8 C3         1.4470    1.9777    2.6043 C.3       1 RES1    0.0000
      9 C4         2.7738    2.2927    3.3090 C.3       1 RES1    0.0000
     10 C5         3.7334    1.2279    2.7940 C.3       1 RES1    0.0000
     11 C6         2.8707   -0.0169    2.7752 C.3       1 RES1    0.0000
     12 C7         1.4690    0.4430    2.3540 C.3       1 RES1    0.0000
     13 C8         0.3305   -0.1185    3.2193 C.3       1 RES1    0.0000
     14 C9        -1.0105   -0.1998    2.4458 C.3       1 RES1    0.0000
     15 C10       -1.3358    1.1047    1.7348 C.3       1 RES1    0.0000
     16 C11       -1.1327    2.2933    2.6543 C.3       1 RES1    0.0000
     17 C12       -2.7597    1.0823    1.1927 C.3       1 RES1    0.0000
     18 H1         0.2225    3.0560    5.0438 H         1 RES1    0.0000
     19 H2         2.6212    2.2127    4.2869 H         1 RES1    0.0000
     20 H3         3.0204    3.2842    3.1547 H         1 RES1    0.0000
     21 H4         4.0153    1.4467    1.8557 H         1 RES1    0.0000
     22 H5         4.5203    1.2090    3.3486 H         1 RES1    0.0000
     23 H6         2.8123   -0.3048    3.6093 H         1 RES1    0.0000
     24 H7         3.1438   -0.7728    2.2352 H         1 RES1    0.0000
     25 H8         1.3348    0.2824    1.4033 H         1 RES1    0.0000
     26 H9         0.5899   -0.9421    3.5759 H         1 RES1    0.0000
     27 H10       -0.9045   -0.9083    1.8182 H         1 RES1    0.0000
     28 H11       -1.7011   -0.4050    3.0588 H         1 RES1    0.0000
     29 H12       -0.7175    1.1582    0.9341 H         1 RES1    0.0000
     30 H13       -1.8468    2.3340    3.3695 H         1 RES1    0.0000
     31 H14       -1.1558    3.0946    2.1852 H         1 RES1    0.0000
     32 H15       -2.9374    0.3434    0.5776 H         1 RES1    0.0000
     33 H16       -3.0026    1.9567    0.7402 H         1 RES1    0.0000
     34 H17       -3.3579    1.0309    1.9475 H         1 RES1    0.0000
@<TRIPOS>BOND
     1    1    6 2
     2    2    7 1
     3    3    5 2
     4    4    5 2
     5    5    8 1
     6    6    7 1
     7    7    8 1
     8    8    9 1
     9    9   10 1
    10   10   11 1
    11   11   12 1
    12   12    8 1
    13   13    6 1
    14   14   13 1
    15   15   14 1
    16   16    7 1
    17   17   15 1
    18   18    2 1
    19   19    9 1
    20   20    9 1
    21   21   10 1
    22   22   10 1
    23   23   11 1
    24   24   11 1
    25   25   12 1
    26   26   13 1
    27   27   14 1
    28   28   14 1
    29   29   15 1
    30   30   16 1
    31   31   16 1
    32   32   17 1
    33   33   17 1
    34   34   17 1
    35   12   13 1
    36   15   16 1
@<TRIPOS>SUBSTRUCTURE
     1 RES1 1

@<TRIPOS>CRYSIN
  16.7420    6.7730   21.9500  90.0000 108.2100  90.0000  15 1

