# MOL2 file generated by ConQuest
# Please check atom types

@<TRIPOS>MOLECULE
JUKDEY
    47    49     1
SMALL
NO_CHARGES
****
Generated from CSD

@<TRIPOS>ATOM
      1 O1         1.6789   12.6532    1.3407 O.2       1 RES1    0.0000
      2 O2        -0.3986   15.0292    0.6550 O.2       1 RES1    0.0000
      3 O3        -1.4673   13.3158   -0.0877 O.2       1 RES1    0.0000
      4 N1        -0.4697   13.9971   -0.0042 N.pl3     1 RES1    0.0000
      5 N2         3.4624   15.0582    1.4748 N.3       1 RES1    0.0000
      6 C1         1.8219   13.4435    0.4437 C.2       1 RES1    0.0000
      7 C2         0.8146   13.5747   -0.7290 C.3       1 RES1    0.0000
      8 C3         1.3606   14.7158   -1.6174 C.3       1 RES1    0.0000
      9 C4         2.4230   15.4635   -0.7712 C.3       1 RES1    0.0000
     10 C5         3.6746   15.9234   -1.5572 C.3       1 RES1    0.0000
     11 C6         4.7970   14.9423   -1.2012 C.3       1 RES1    0.0000
     12 C7         4.0974   13.7688   -0.5525 C.3       1 RES1    0.0000
     13 C8         2.9546   14.4382    0.2536 C.3       1 RES1    0.0000
     14 C9         2.4641   15.6815    2.3306 C.3       1 RES1    0.0000
     15 C10        3.1217   15.8144    3.6469 C.3       1 RES1    0.0000
     16 C11        4.3853   15.0548    3.6321 C.3       1 RES1    0.0000
     17 C12        4.3710   14.2764    2.3221 C.3       1 RES1    0.0000
     18 C13        0.6016   12.2206   -1.3871 C.3       1 RES1    0.0000
     19 C14        0.3144   15.6253   -2.2841 C.3       1 RES1    0.0000
     20 C15       -0.7033   14.8572   -3.1282 C.3       1 RES1    0.0000
     21 C16        0.9631   16.7035   -3.1588 C.3       1 RES1    0.0000
     22 H1         1.8363   14.3053   -2.3422 H         1 RES1    0.0000
     23 H2         2.0121   16.2078   -0.3243 H         1 RES1    0.0000
     24 H3         3.9222   16.8159   -1.3079 H         1 RES1    0.0000
     25 H4         3.4999   15.9047   -2.5017 H         1 RES1    0.0000
     26 H5         5.2682   14.6664   -1.9904 H         1 RES1    0.0000
     27 H6         5.4220   15.3477   -0.5958 H         1 RES1    0.0000
     28 H7         3.7436   13.1625   -1.2075 H         1 RES1    0.0000
     29 H8         4.7011   13.2953    0.0232 H         1 RES1    0.0000
     30 H9         1.6935   15.1144    2.4119 H         1 RES1    0.0000
     31 H10        2.1948   16.5263    1.9661 H         1 RES1    0.0000
     32 H11        2.5567   15.4874    4.3505 H         1 RES1    0.0000
     33 H12        3.2893   16.7461    3.8043 H         1 RES1    0.0000
     34 H13        5.1305   15.6594    3.6321 H         1 RES1    0.0000
     35 H14        4.4467   14.4876    4.4055 H         1 RES1    0.0000
     36 H15        5.2421   14.2168    1.9228 H         1 RES1    0.0000
     37 H16        4.0278   13.3941    2.4764 H         1 RES1    0.0000
     38 H17       -0.0129   12.3228   -2.1172 H         1 RES1    0.0000
     39 H18        1.4388   11.8868   -1.7157 H         1 RES1    0.0000
     40 H19        0.2396   11.6040   -0.7469 H         1 RES1    0.0000
     41 H20       -0.1555   16.0699   -1.5741 H         1 RES1    0.0000
     42 H21       -1.1241   14.1963   -2.5725 H         1 RES1    0.0000
     43 H22       -1.3697   15.4499   -3.4800 H         1 RES1    0.0000
     44 H23       -0.2470   14.4212   -3.8519 H         1 RES1    0.0000
     45 H24        0.2964   17.2758   -3.5434 H         1 RES1    0.0000
     46 H25        1.5631   17.2264   -2.6221 H         1 RES1    0.0000
     47 H26        1.4562   16.2692   -3.8593 H         1 RES1    0.0000
@<TRIPOS>BOND
     1    1    6 2
     2    2    4 2
     3    3    4 2
     4    4    7 1
     5    5   13 1
     6    6    7 1
     7    7    8 1
     8    8    9 1
     9    9   10 1
    10   10   11 1
    11   11   12 1
    12   12   13 1
    13   13    6 1
    14   14    5 1
    15   15   14 1
    16   16   15 1
    17   17    5 1
    18   18    7 1
    19   19    8 1
    20   20   19 1
    21   21   19 1
    22   22    8 1
    23   23    9 1
    24   24   10 1
    25   25   10 1
    26   26   11 1
    27   27   11 1
    28   28   12 1
    29   29   12 1
    30   30   14 1
    31   31   14 1
    32   32   15 1
    33   33   15 1
    34   34   16 1
    35   35   16 1
    36   36   17 1
    37   37   17 1
    38   38   18 1
    39   39   18 1
    40   40   18 1
    41   41   19 1
    42   42   20 1
    43   43   20 1
    44   44   20 1
    45   45   21 1
    46   46   21 1
    47   47   21 1
    48    9   13 1
    49   16   17 1
@<TRIPOS>SUBSTRUCTURE
     1 RES1 1

@<TRIPOS>CRYSIN
   9.0761   17.0322   11.1067  90.0000 107.9740  90.0000  14 1

