# MOL2 file generated by ConQuest
# Please check atom types

@<TRIPOS>MOLECULE
JUKVUG
    51    52     1
SMALL
NO_CHARGES
****
Generated from CSD

@<TRIPOS>ATOM
      1 O1         0.7075    4.6754    0.8528 O.3       1 RES1    0.0000
      2 O2         0.3519    7.4199   -1.5539 O.3       1 RES1    0.0000
      3 O3         2.4304    3.4639   -0.1133 O.3       1 RES1    0.0000
      4 O4         6.1789    0.3546    2.3209 O.2       1 RES1    0.0000
      5 C1         0.3860    3.6535   -1.3260 C.3       1 RES1    0.0000
      6 O5         0.8741    2.7242   -2.2704 O.3       1 RES1    0.0000
      7 C2         0.2127    6.1258   -0.9866 C.3       1 RES1    0.0000
      8 C3         0.5296    5.0315   -1.9656 C.3       1 RES1    0.0000
      9 O6        -0.3744    5.1372   -3.0598 O.3       1 RES1    0.0000
     10 O7        -0.3823    7.3186    1.6378 O.3       1 RES1    0.0000
     11 C4         3.1328    1.2883    0.5846 C.3       1 RES1    0.0000
     12 N1         5.2639    1.0871    1.8011 N.pl3     1 RES1    0.0000
     13 C5         1.0794    5.9275    0.2510 C.3       1 RES1    0.0000
     14 C6         1.0459    3.5478    0.0423 C.3       1 RES1    0.0000
     15 C7         4.4942    3.2974    1.0046 C.3       1 RES1    0.0000
     16 C8         3.1049    2.7589    0.9501 C.3       1 RES1    0.0000
     17 C9         5.4361    2.5650    1.9611 C.3       1 RES1    0.0000
     18 C10        3.9536    0.4227    1.5475 C.3       1 RES1    0.0000
     19 C11        0.9567    7.0479    1.2671 C.3       1 RES1    0.0000
     20 C12        3.2414    0.1809    2.8729 C.3       1 RES1    0.0000
     21 C13        4.2505   -0.9076    0.8631 C.3       1 RES1    0.0000
     22 C14        6.8710    2.9066    1.6045 C.3       1 RES1    0.0000
     23 C15        5.1665    2.9384    3.4222 C.3       1 RES1    0.0000
     24 H1         1.1169    7.5415   -1.7754 H         1 RES1    0.0000
     25 H2         0.7307    1.9570   -2.0866 H         1 RES1    0.0000
     26 H3        -0.0610    4.7246   -3.6482 H         1 RES1    0.0000
     27 H4        -0.4194    6.6889    2.1308 H         1 RES1    0.0000
     28 H5        -0.6760    3.5131   -1.1698 H         1 RES1    0.0000
     29 H6        -0.8224    6.0115   -0.7478 H         1 RES1    0.0000
     30 H7         1.4443    5.1531   -2.2377 H         1 RES1    0.0000
     31 H8         3.5941    1.1797   -0.3156 H         1 RES1    0.0000
     32 H9         2.1809    1.0726    0.6454 H         1 RES1    0.0000
     33 H10        2.0122    5.9015   -0.0435 H         1 RES1    0.0000
     34 H11        0.7936    2.8125    0.4911 H         1 RES1    0.0000
     35 H12        4.9072    3.2699    0.0704 H         1 RES1    0.0000
     36 H13        4.5044    4.1543    1.3164 H         1 RES1    0.0000
     37 H14        2.6065    2.8501    1.8574 H         1 RES1    0.0000
     38 H15        1.2277    7.8628    0.8951 H         1 RES1    0.0000
     39 H16        1.5247    6.8279    2.0322 H         1 RES1    0.0000
     40 H17        2.3911   -0.4531    2.6654 H         1 RES1    0.0000
     41 H18        2.8975    1.1175    3.2852 H         1 RES1    0.0000
     42 H19        3.8900   -0.3098    3.5835 H         1 RES1    0.0000
     43 H20        3.2787   -1.3404    0.6755 H         1 RES1    0.0000
     44 H21        4.8076   -1.5459    1.5315 H         1 RES1    0.0000
     45 H22        4.7854   -0.8092   -0.0698 H         1 RES1    0.0000
     46 H23        6.8216    3.9777    1.7114 H         1 RES1    0.0000
     47 H24        7.1801    2.6576    0.6006 H         1 RES1    0.0000
     48 H25        7.5834    2.5056    2.3107 H         1 RES1    0.0000
     49 H26        5.5104    3.9285    3.6777 H         1 RES1    0.0000
     50 H27        5.6795    2.2103    4.0324 H         1 RES1    0.0000
     51 H28        4.1041    2.8718    3.5976 H         1 RES1    0.0000
@<TRIPOS>BOND
     1    1   13 1
     2    2    7 1
     3    3   14 1
     4    4   12 2
     5    5    6 1
     6    6   25 1
     7    7    8 1
     8    8    5 1
     9    9    8 1
    10   10   19 1
    11   11   16 1
    12   12   17 1
    13   13    7 1
    14   14    1 1
    15   15   16 1
    16   16    3 1
    17   17   15 1
    18   18   11 1
    19   19   13 1
    20   20   18 1
    21   21   18 1
    22   22   17 1
    23   23   17 1
    24   24    2 1
    25   26    9 1
    26   27   10 1
    27   28    5 1
    28   29    7 1
    29   30    8 1
    30   31   11 1
    31   32   11 1
    32   33   13 1
    33   34   14 1
    34   35   15 1
    35   36   15 1
    36   37   16 1
    37   38   19 1
    38   39   19 1
    39   40   20 1
    40   41   20 1
    41   42   20 1
    42   43   21 1
    43   44   21 1
    44   45   21 1
    45   46   22 1
    46   47   22 1
    47   48   22 1
    48   49   23 1
    49   50   23 1
    50   51   23 1
    51    5   14 1
    52   12   18 1
@<TRIPOS>SUBSTRUCTURE
     1 RES1 1

@<TRIPOS>CRYSIN
   9.2390   14.4750    6.4040  90.0000  91.1900  90.0000   4 1

