# MOL2 file generated by ConQuest
# Please check atom types

@<TRIPOS>MOLECULE
JULHED
    32    33     1
SMALL
NO_CHARGES
****
Generated from CSD

@<TRIPOS>ATOM
      1 C1         5.7393   -0.7993    2.7388 C.ar      1 RES1    0.0000
      2 C2         6.5323    0.3319    2.5185 C.ar      1 RES1    0.0000
      3 C3         6.1824    1.3514    1.6555 C.ar      1 RES1    0.0000
      4 C4         4.9708    1.2699    1.0083 C.ar      1 RES1    0.0000
      5 C5         4.1453    0.1788    1.2048 C.ar      1 RES1    0.0000
      6 C6         4.5246   -0.8520    2.0459 C.ar      1 RES1    0.0000
      7 C7         6.1405   -1.9311    3.5880 C.2       1 RES1    0.0000
      8 N1         5.2585   -2.5949    4.2161 N.2       1 RES1    0.0000
      9 N2         7.7980    0.4994    3.2562 N.pl3     1 RES1    0.0000
     10 O1         7.9642   -0.1092    4.3011 O.2       1 RES1    0.0000
     11 O2         8.6299    1.2667    2.7927 O.2       1 RES1    0.0000
     12 H1         6.7991    2.1018    1.4901 H         1 RES1    0.0000
     13 H2         4.7445    1.9826    0.4754 H         1 RES1    0.0000
     14 H3         3.3238    0.1443    0.7953 H         1 RES1    0.0000
     15 H4         3.9410   -1.6752    2.1848 H         1 RES1    0.0000
     16 H5         7.0877   -2.2084    3.6475 H         1 RES1    0.0000
     17 C1B        5.3707   -5.4747    6.4027 C.ar      1 RES1    0.0000
     18 C2B        4.5777   -6.6059    6.6230 C.ar      1 RES1    0.0000
     19 C3B        4.9277   -7.6254    7.4860 C.ar      1 RES1    0.0000
     20 C4B        6.1393   -7.5439    8.1332 C.ar      1 RES1    0.0000
     21 C5B        6.9647   -6.4528    7.9367 C.ar      1 RES1    0.0000
     22 C6B        6.5855   -5.4220    7.0956 C.ar      1 RES1    0.0000
     23 C7B        4.9696   -4.3429    5.5535 C.2       1 RES1    0.0000
     24 N1B        5.8516   -3.6791    4.9254 N.2       1 RES1    0.0000
     25 N2B        3.3121   -6.7734    5.8853 N.pl3     1 RES1    0.0000
     26 O1B        3.1458   -6.1648    4.8404 O.2       1 RES1    0.0000
     27 O2B        2.4801   -7.5407    6.3488 O.2       1 RES1    0.0000
     28 H1B        4.3109   -8.3758    7.6514 H         1 RES1    0.0000
     29 H2B        6.3656   -8.2566    8.6661 H         1 RES1    0.0000
     30 H3B        7.7863   -6.4183    8.3462 H         1 RES1    0.0000
     31 H4B        7.1690   -4.5988    6.9567 H         1 RES1    0.0000
     32 H5B        4.0223   -4.0656    5.4940 H         1 RES1    0.0000
@<TRIPOS>BOND
     1    1    2 ar
     2    2    3 ar
     3    3    4 ar
     4    4    5 ar
     5    5    6 ar
     6    6    1 ar
     7    7    1 1
     8    8    7 2
     9    9    2 1
    10   10    9 2
    11   11    9 2
    12   12    3 1
    13   13    4 1
    14   14    5 1
    15   15    6 1
    16   16    7 1
    17   17   18 ar
    18   18   19 ar
    19   19   20 ar
    20   20   21 ar
    21   21   22 ar
    22   22   17 ar
    23   23   17 1
    24   24    8 1
    25   25   18 1
    26   26   25 2
    27   27   25 2
    28   28   19 1
    29   29   20 1
    30   30   21 1
    31   31   22 1
    32   32   23 1
    33   23   24 2
@<TRIPOS>SUBSTRUCTURE
     1 RES1 1

@<TRIPOS>CRYSIN
  11.9050    6.2740    9.1760  90.0000  94.9700  90.0000 231 1

