# MOL2 file generated by ConQuest
# Please check atom types

@<TRIPOS>MOLECULE
JULHAZ
    38    39     1
SMALL
NO_CHARGES
****
Generated from CSD

@<TRIPOS>ATOM
      1 C1        -1.1566    2.5916   10.8995 C.ar      1 RES1    0.0000
      2 C2        -1.2324    2.0546    9.6166 C.ar      1 RES1    0.0000
      3 C3        -1.6498    2.7747    8.5115 C.ar      1 RES1    0.0000
      4 C4        -2.0188    4.0919    8.6908 C.ar      1 RES1    0.0000
      5 C5        -1.9593    4.6676    9.9385 C.ar      1 RES1    0.0000
      6 C6        -1.5292    3.9275   11.0375 C.ar      1 RES1    0.0000
      7 C7        -0.6756    1.8208   12.0782 C.2       1 RES1    0.0000
      8 C8        -1.3537    2.0546   13.4025 C.3       1 RES1    0.0000
      9 N1         0.2854    1.0059   11.8606 N.2       1 RES1    0.0000
     10 N2        -0.9641    0.6212    9.3821 N.pl3     1 RES1    0.0000
     11 O1        -1.6500   -0.1950    9.9829 O.2       1 RES1    0.0000
     12 O2        -0.1093    0.3353    8.5590 O.2       1 RES1    0.0000
     13 C9         1.8210   -1.1515   11.3501 C.ar      1 RES1    0.0000
     14 C10        2.6045   -0.4181   10.4627 C.ar      1 RES1    0.0000
     15 C11        2.9144   -0.8470    9.1843 C.ar      1 RES1    0.0000
     16 C12        2.4383   -2.0813    8.7766 C.ar      1 RES1    0.0000
     17 C13        1.6705   -2.8415    9.6227 C.ar      1 RES1    0.0000
     18 C14        1.3578   -2.3832   10.8995 C.ar      1 RES1    0.0000
     19 C15        1.4439   -0.7054   12.7358 C.2       1 RES1    0.0000
     20 C16        1.9332   -1.5550   13.8669 C.3       1 RES1    0.0000
     21 N3         0.6943    0.2886   13.0147 N.2       1 RES1    0.0000
     22 N4         3.1617    0.8697   10.8781 N.pl3     1 RES1    0.0000
     23 O3         3.5096    0.9993   12.0460 O.2       1 RES1    0.0000
     24 O4         3.2693    1.7500   10.0274 O.2       1 RES1    0.0000
     25 H1        -1.7214    2.3245    7.6485 H         1 RES1    0.0000
     26 H2        -2.3400    4.5688    7.9244 H         1 RES1    0.0000
     27 H3        -2.1546    5.5573   10.0550 H         1 RES1    0.0000
     28 H4        -1.4434    4.3150   11.9556 H         1 RES1    0.0000
     29 H5        -2.2305    2.2176   13.3351 H         1 RES1    0.0000
     30 H6        -1.0856    1.3626   14.0708 H         1 RES1    0.0000
     31 H7        -0.9970    2.6985   13.8715 H         1 RES1    0.0000
     32 H8         3.5024   -0.2939    8.6142 H         1 RES1    0.0000
     33 H9         2.6737   -2.3779    7.8784 H         1 RES1    0.0000
     34 H10        1.3565   -3.7405    9.3346 H         1 RES1    0.0000
     35 H11        0.8193   -2.8989   11.4958 H         1 RES1    0.0000
     36 H12        1.5663   -1.2023   14.7452 H         1 RES1    0.0000
     37 H13        2.9103   -1.5630   13.9788 H         1 RES1    0.0000
     38 H14        1.5717   -2.3913   13.8256 H         1 RES1    0.0000
@<TRIPOS>BOND
     1    1    2 ar
     2    2    3 ar
     3    3    4 ar
     4    4    5 ar
     5    5    6 ar
     6    6    1 ar
     7    7    1 1
     8    8    7 1
     9    9    7 2
    10   10    2 1
    11   11   10 2
    12   12   10 2
    13   13   14 ar
    14   14   15 ar
    15   15   16 ar
    16   16   17 ar
    17   17   18 ar
    18   18   13 ar
    19   19   13 1
    20   20   19 1
    21   21    9 1
    22   22   14 1
    23   23   22 2
    24   24   22 2
    25   25    3 1
    26   26    4 1
    27   27    5 1
    28   28    6 1
    29   29    8 1
    30   30    8 1
    31   31    8 1
    32   32   15 1
    33   33   16 1
    34   34   17 1
    35   35   18 1
    36   36   20 1
    37   37   20 1
    38   38   20 1
    39   19   21 2
@<TRIPOS>SUBSTRUCTURE
     1 RES1 1

@<TRIPOS>CRYSIN
   7.7130   13.3590   15.5570  90.0000  99.8500  90.0000  14 1

