# MOL2 file generated by ConQuest
# Please check atom types

@<TRIPOS>MOLECULE
JULHED02
    32    33     1
SMALL
NO_CHARGES
****
Generated from CSD

@<TRIPOS>ATOM
      1 O1         5.3492    9.0420    0.4599 O.2       1 RES1    0.0000
      2 O2         5.3816   10.5584   -1.0841 O.2       1 RES1    0.0000
      3 N1         2.4266    7.4925    2.2036 N.2       1 RES1    0.0000
      4 N2         4.8018    9.7105   -0.4016 N.pl3     1 RES1    0.0000
      5 C1         2.5518    8.8949    0.2963 C.ar      1 RES1    0.0000
      6 C2         3.3777    9.4933   -0.6676 C.ar      1 RES1    0.0000
      7 C3         2.8983    9.8885   -1.9073 C.ar      1 RES1    0.0000
      8 C4         1.5440    9.6890   -2.2236 C.ar      1 RES1    0.0000
      9 C5         0.7176    9.1173   -1.2751 C.ar      1 RES1    0.0000
     10 C6         1.2081    8.7363   -0.0412 C.ar      1 RES1    0.0000
     11 C7         2.9908    8.4946    1.6453 C.2       1 RES1    0.0000
     12 H1         3.4813   10.2916   -2.5388 H         1 RES1    0.0000
     13 H2         1.2030    9.9427   -3.0731 H         1 RES1    0.0000
     14 H3        -0.2020    8.9848   -1.4742 H         1 RES1    0.0000
     15 H4         0.6135    8.3565    0.5955 H         1 RES1    0.0000
     16 H5         3.6797    8.9730    2.0915 H         1 RES1    0.0000
     17 O1B       -0.0091    5.7405    5.2607 O.2       1 RES1    0.0000
     18 O2B       -0.0415    4.2241    6.8047 O.2       1 RES1    0.0000
     19 N1B        2.9135    7.2900    3.5171 N.2       1 RES1    0.0000
     20 N2B        0.5384    5.0720    6.1223 N.pl3     1 RES1    0.0000
     21 C1B        2.7884    5.8876    5.4243 C.ar      1 RES1    0.0000
     22 C2B        1.9624    5.2892    6.3883 C.ar      1 RES1    0.0000
     23 C3B        2.4419    4.8940    7.6279 C.ar      1 RES1    0.0000
     24 C4B        3.7962    5.0935    7.9443 C.ar      1 RES1    0.0000
     25 C5B        4.6226    5.6652    6.9958 C.ar      1 RES1    0.0000
     26 C6B        4.1321    6.0462    5.7619 C.ar      1 RES1    0.0000
     27 C7B        2.3493    6.2879    4.0754 C.2       1 RES1    0.0000
     28 H1B        1.8588    4.4909    8.2595 H         1 RES1    0.0000
     29 H2B        4.1371    4.8398    8.7938 H         1 RES1    0.0000
     30 H3B        5.5421    5.7977    7.1949 H         1 RES1    0.0000
     31 H4B        4.7266    6.4260    5.1251 H         1 RES1    0.0000
     32 H5B        1.6604    5.8095    3.6292 H         1 RES1    0.0000
@<TRIPOS>BOND
     1    1    4 2
     2    2    4 2
     3    3   11 2
     4    4    6 1
     5    5    6 ar
     6    6    7 ar
     7    7    8 ar
     8    8    9 ar
     9    9   10 ar
    10   10    5 ar
    11   11    5 1
    12   12    7 1
    13   13    8 1
    14   14    9 1
    15   15   10 1
    16   16   11 1
    17   17   20 2
    18   18   20 2
    19   19    3 1
    20   20   22 1
    21   21   22 ar
    22   22   23 ar
    23   23   24 ar
    24   24   25 ar
    25   25   26 ar
    26   26   21 ar
    27   27   19 2
    28   28   23 1
    29   29   24 1
    30   30   25 1
    31   31   26 1
    32   32   27 1
    33   21   27 1
@<TRIPOS>SUBSTRUCTURE
     1 RES1 1

@<TRIPOS>CRYSIN
   7.7809   14.7825    6.2196  90.0000 113.1060  90.0000  14 1

