# MOL2 file generated by ConQuest
# Please check atom types

@<TRIPOS>MOLECULE
JUMCAX
    26    27     1
SMALL
NO_CHARGES
****
Generated from CSD

@<TRIPOS>ATOM
      1 O1         4.8658    3.2209    2.7519 O.3       1 RES1    0.0000
      2 O2         0.8771    1.7216    1.3847 O.2       1 RES1    0.0000
      3 O3         4.5487    0.9464    5.5026 O.2       1 RES1    0.0000
      4 N1         6.1570    1.2326    3.9476 N.am      1 RES1    0.0000
      5 H1         6.6404    0.5939    4.2605 H         1 RES1    0.0000
      6 H2         6.4241    1.6770    3.2617 H         1 RES1    0.0000
      7 N2         4.1431    2.8544    1.6084 N.2       1 RES1    0.0000
      8 C1         4.2030    2.6731    3.9330 C.3       1 RES1    0.0000
      9 H3         4.1011    3.3780    4.6062 H         1 RES1    0.0000
     10 C2         2.3171    1.8320   -0.4806 C.ar      1 RES1    0.0000
     11 C3         3.0472    2.3023    1.9643 C.2       1 RES1    0.0000
     12 C4         3.5755    1.5012   -0.9696 C.ar      1 RES1    0.0000
     13 H4         4.2760    1.3329   -0.3816 H         1 RES1    0.0000
     14 C5         2.0064    1.9204    0.9712 C.2       1 RES1    0.0000
     15 C6         5.0111    1.5292    4.5173 C.2       1 RES1    0.0000
     16 C7         3.7821    1.4225   -2.3334 C.ar      1 RES1    0.0000
     17 H5         4.6204    1.1908   -2.6635 H         1 RES1    0.0000
     18 C8         2.8322    2.2371    3.4470 C.3       1 RES1    0.0000
     19 H6         2.6163    1.3374    3.7395 H         1 RES1    0.0000
     20 H7         2.1371    2.8484    3.7363 H         1 RES1    0.0000
     21 C9         1.2721    2.0754   -1.3687 C.ar      1 RES1    0.0000
     22 H8         0.4234    2.2784   -1.0474 H         1 RES1    0.0000
     23 C10        2.7495    1.6861   -3.2067 C.ar      1 RES1    0.0000
     24 H9         2.8978    1.6426   -4.1231 H         1 RES1    0.0000
     25 C11        1.5057    2.0121   -2.7354 C.ar      1 RES1    0.0000
     26 H10        0.8156    2.1916   -3.3325 H         1 RES1    0.0000
@<TRIPOS>BOND
     1    1    7 1
     2    2   14 2
     3    3   15 2
     4    4    5 1
     5    6    4 1
     6    7   11 2
     7    8    1 1
     8    9    8 1
     9   10   12 ar
    10   11   14 1
    11   12   13 1
    12   14   10 1
    13   15    4 1
    14   16   12 ar
    15   17   16 1
    16   18    8 1
    17   19   18 1
    18   20   18 1
    19   21   10 ar
    20   22   21 1
    21   23   16 ar
    22   24   23 1
    23   25   21 ar
    24   26   25 1
    25    8   15 1
    26   11   18 1
    27   23   25 ar
@<TRIPOS>SUBSTRUCTURE
     1 RES1 1

@<TRIPOS>CRYSIN
   6.6980   14.9600   10.6340  90.0000  96.3160  90.0000  14 1

