# MOL2 file generated by ConQuest
# Please check atom types

@<TRIPOS>MOLECULE
JUNBEB
    21    22     1
SMALL
NO_CHARGES
****
Generated from CSD

@<TRIPOS>ATOM
      1 N1        -1.2835    1.5189    0.5875 N.2       1 RES1    0.0000
      2 N2        -1.2914    2.5575    1.3857 N.2       1 RES1    0.0000
      3 N3         0.5536    1.5412    2.5161 N.pl3     1 RES1    0.0000
      4 N4         1.4283    1.7457    3.5427 N.2       1 RES1    0.0000
      5 N5        -0.5599   -0.5352   -0.2466 N.pl3     1 RES1    0.0000
      6 N6         1.4346   -0.5060    1.9867 N.3       1 RES1    0.0000
      7 N7        -0.5847    4.7955    3.4621 N.pl3     1 RES1    0.0000
      8 N8         1.7303    3.4141    5.2041 N.pl3     1 RES1    0.0000
      9 O1         0.2447   -1.4519   -0.2119 O.2       1 RES1    0.0000
     10 O2        -1.4620   -0.4802   -1.0482 O.2       1 RES1    0.0000
     11 O3        -1.7414    4.9510    3.1032 O.2       1 RES1    0.0000
     12 O4         0.1400    5.6735    3.8855 O.2       1 RES1    0.0000
     13 O5         1.1067    4.1194    5.9758 O.2       1 RES1    0.0000
     14 O6         2.8855    3.0575    5.3764 O.2       1 RES1    0.0000
     15 C1        -0.4194    0.5215    0.7409 C.2       1 RES1    0.0000
     16 C2         0.5741    0.4270    1.7293 C.2       1 RES1    0.0000
     17 C3        -0.3563    2.5558    2.3564 C.2       1 RES1    0.0000
     18 C4        -0.0268    3.4776    3.3422 C.2       1 RES1    0.0000
     19 C5         1.0615    2.9252    4.0040 C.2       1 RES1    0.0000
     20 H1         1.4262   -1.2715    1.4520 H         1 RES1    0.0000
     21 H2         1.8630   -0.4038    2.4900 H         1 RES1    0.0000
@<TRIPOS>BOND
     1    1    2 2
     2    2   17 1
     3    3    4 1
     4    4   19 2
     5    5    9 2
     6    6   16 1
     7    7   11 2
     8    8   13 2
     9   10    5 2
    10   12    7 2
    11   14    8 2
    12   15    1 1
    13   16    3 1
    14   17    3 1
    15   18    7 1
    16   19    8 1
    17   20    6 1
    18   21    6 1
    19    5   15 1
    20   15   16 2
    21   17   18 2
    22   18   19 1
@<TRIPOS>SUBSTRUCTURE
     1 RES1 1

@<TRIPOS>CRYSIN
   5.2626    8.5910   20.3930  90.0000  90.0000  90.0000  19 1

