# MOL2 file generated by ConQuest
# Please check atom types

@<TRIPOS>MOLECULE
JUNGOO
    51    53     1
SMALL
NO_CHARGES
****
Generated from CSD

@<TRIPOS>ATOM
      1 O1        -2.4091    3.6226    5.1845 O.3       1 RES1    0.0000
      2 O2        -3.5309    2.5907    6.7735 O.2       1 RES1    0.0000
      3 O3         0.8972    3.7560    3.4102 O.3       1 RES1    0.0000
      4 O4        -0.0615    5.0176    1.8866 O.2       1 RES1    0.0000
      5 O5         2.2931   -0.9545   -1.3588 O.2       1 RES1    0.0000
      6 O6         1.2267    0.1864   -2.8075 O.2       1 RES1    0.0000
      7 N1         1.6391    0.0139   -1.6976 N.pl3     1 RES1    0.0000
      8 C1        -1.0855    5.2764    6.7922 C.2       1 RES1    0.0000
      9 C2        -1.1082    6.5245    6.3262 C.2       1 RES1    0.0000
     10 C3        -2.3219    7.3640    6.1727 C.3       1 RES1    0.0000
     11 C4        -3.5893    6.5607    6.3187 C.3       1 RES1    0.0000
     12 C5        -3.4789    5.6349    7.4922 C.3       1 RES1    0.0000
     13 C6        -2.3391    4.6152    7.3406 C.3       1 RES1    0.0000
     14 C7        -2.0177    3.9908    8.7163 C.3       1 RES1    0.0000
     15 C8        -0.8089    3.0702    8.6751 C.3       1 RES1    0.0000
     16 C9         0.4164    3.7909    8.1586 C.3       1 RES1    0.0000
     17 C10        0.1283    4.4567    6.8390 C.2       1 RES1    0.0000
     18 C11       -2.8293    3.5021    6.4310 C.2       1 RES1    0.0000
     19 C12       -2.8013    2.5930    4.2599 C.3       1 RES1    0.0000
     20 C13        0.8899    4.2423    5.7535 C.2       1 RES1    0.0000
     21 C14        0.6453    4.8205    4.4021 C.3       1 RES1    0.0000
     22 C15        0.4876    3.9993    2.2104 C.2       1 RES1    0.0000
     23 C16        0.7838    2.9072    1.2297 C.ar      1 RES1    0.0000
     24 C17        1.4913    1.7717    1.5628 C.ar      1 RES1    0.0000
     25 C18        1.7695    0.8229    0.6176 C.ar      1 RES1    0.0000
     26 C19        1.3260    1.0267   -0.6570 C.ar      1 RES1    0.0000
     27 C20        0.6087    2.1230   -1.0163 C.ar      1 RES1    0.0000
     28 C21        0.3392    3.0686   -0.0786 C.ar      1 RES1    0.0000
     29 H1        -0.2600    6.9174    6.0660 H         1 RES1    0.0000
     30 H2        -2.3104    8.0652    6.8578 H         1 RES1    0.0000
     31 H3        -2.3099    7.7782    5.2837 H         1 RES1    0.0000
     32 H4        -4.3457    7.1698    6.4535 H         1 RES1    0.0000
     33 H5        -3.7384    6.0368    5.5045 H         1 RES1    0.0000
     34 H6        -3.3184    6.1683    8.2989 H         1 RES1    0.0000
     35 H7        -4.3250    5.1488    7.5896 H         1 RES1    0.0000
     36 H8        -1.8410    4.7126    9.3545 H         1 RES1    0.0000
     37 H9        -2.7946    3.4752    9.0158 H         1 RES1    0.0000
     38 H10       -0.6277    2.7402    9.5791 H         1 RES1    0.0000
     39 H11       -1.0048    2.3122    8.0856 H         1 RES1    0.0000
     40 H12        0.6885    4.4708    8.8099 H         1 RES1    0.0000
     41 H13        1.1445    3.1450    8.0406 H         1 RES1    0.0000
     42 H14       -3.7790    2.5348    4.2337 H         1 RES1    0.0000
     43 H15       -2.4602    2.8125    3.3671 H         1 RES1    0.0000
     44 H16       -2.4278    1.7357    4.5519 H         1 RES1    0.0000
     45 H17        1.6619    3.6648    5.8564 H         1 RES1    0.0000
     46 H18       -0.2824    5.1298    4.3348 H         1 RES1    0.0000
     47 H19        1.2506    5.5746    4.2468 H         1 RES1    0.0000
     48 H20        1.7946    1.6448    2.4762 H         1 RES1    0.0000
     49 H21        2.2696    0.0248    0.8479 H         1 RES1    0.0000
     50 H22        0.2941    2.2286   -1.9278 H         1 RES1    0.0000
     51 H23       -0.1657    3.8598   -0.3238 H         1 RES1    0.0000
@<TRIPOS>BOND
     1    1   18 1
     2    2   18 2
     3    3   21 1
     4    4   22 2
     5    5    7 2
     6    6    7 2
     7    7   26 1
     8    8    9 2
     9    9   10 1
    10   10   11 1
    11   11   12 1
    12   12   13 1
    13   13    8 1
    14   14   13 1
    15   15   14 1
    16   16   15 1
    17   17    8 1
    18   18   13 1
    19   19    1 1
    20   20   17 2
    21   21   20 1
    22   22    3 1
    23   23   22 1
    24   24   23 ar
    25   25   24 ar
    26   26   25 ar
    27   27   26 ar
    28   28   23 ar
    29   29    9 1
    30   30   10 1
    31   31   10 1
    32   32   11 1
    33   33   11 1
    34   34   12 1
    35   35   12 1
    36   36   14 1
    37   37   14 1
    38   38   15 1
    39   39   15 1
    40   40   16 1
    41   41   16 1
    42   42   19 1
    43   43   19 1
    44   44   19 1
    45   45   20 1
    46   46   21 1
    47   47   21 1
    48   48   24 1
    49   49   25 1
    50   50   27 1
    51   51   28 1
    52   16   17 1
    53   27   28 ar
@<TRIPOS>SUBSTRUCTURE
     1 RES1 1

@<TRIPOS>CRYSIN
   7.4619    7.6458   19.0270  94.5470  96.7180 113.2900   2 1

