# MOL2 file generated by ConQuest
# Please check atom types

@<TRIPOS>MOLECULE
JUPROB
    23    23     1
SMALL
NO_CHARGES
****
Generated from CSD

@<TRIPOS>ATOM
      1 C1        -1.0440    6.1941    2.0586 C.ar      1 RES1    0.0000
      2 N1        -1.1886    6.3009    0.7377 N.3       1 RES1    0.0000
      3 C2        -2.0031    7.2550   -0.0097 C.3       1 RES1    0.0000
      4 C3        -0.0066    5.4027    2.6568 C.ar      1 RES1    0.0000
      5 N2         0.8051    4.4893    1.8669 N.pl3     1 RES1    0.0000
      6 O1         0.6793    4.4638    0.6423 O.2       1 RES1    0.0000
      7 O2         1.5797    3.7555    2.4518 O.2       1 RES1    0.0000
      8 C4         0.2900    5.4654    3.9891 C.ar      1 RES1    0.0000
      9 C5        -0.4189    6.2941    4.8188 C.ar      1 RES1    0.0000
     10 N3        -0.0398    6.3738    6.2227 N.pl3     1 RES1    0.0000
     11 O3        -0.6169    7.2093    6.9136 O.2       1 RES1    0.0000
     12 O4         0.8283    5.6332    6.6397 O.2       1 RES1    0.0000
     13 C6        -1.5092    6.9889    4.3514 C.ar      1 RES1    0.0000
     14 C7        -1.8350    6.8923    3.0173 C.ar      1 RES1    0.0000
     15 N4        -3.1272    7.4702    2.6621 N.pl3     1 RES1    0.0000
     16 O5        -3.3973    8.5955    3.0747 O.2       1 RES1    0.0000
     17 O6        -3.8895    6.7720    1.9968 O.2       1 RES1    0.0000
     18 H1        -0.5441    5.7993    0.3039 H         1 RES1    0.0000
     19 H2        -1.6693    7.3533   -0.8632 H         1 RES1    0.0000
     20 H3        -1.9850    8.1430    0.4488 H         1 RES1    0.0000
     21 H4        -2.9322    6.9245   -0.1723 H         1 RES1    0.0000
     22 H5         0.9544    5.0061    4.2869 H         1 RES1    0.0000
     23 H6        -2.0149    7.4668    4.9866 H         1 RES1    0.0000
@<TRIPOS>BOND
     1    1    2 1
     2    2    3 1
     3    3   19 1
     4    4    1 ar
     5    5    4 1
     6    6    5 2
     7    7    5 2
     8    8    4 ar
     9    9    8 ar
    10   10    9 1
    11   11   10 2
    12   12   10 2
    13   13    9 ar
    14   14    1 ar
    15   15   14 1
    16   16   15 2
    17   17   15 2
    18   18    2 1
    19   20    3 1
    20   21    3 1
    21   22    8 1
    22   23   13 1
    23   13   14 ar
@<TRIPOS>SUBSTRUCTURE
     1 RES1 1

@<TRIPOS>CRYSIN
   6.5379   16.9470    8.9270  90.0000  98.2200  90.0000 231 1

