# MOL2 file generated by ConQuest
# Please check atom types

@<TRIPOS>MOLECULE
JUPRIV
    26    26     1
SMALL
NO_CHARGES
****
Generated from CSD

@<TRIPOS>ATOM
      1 C1         0.7582   15.8048    1.9248 C.ar      1 RES1    0.0000
      2 N1         1.4560   14.6558    2.0443 N.3       1 RES1    0.0000
      3 C2         1.0820   13.6042    2.9811 C.3       1 RES1    0.0000
      4 C3         2.6663   14.3620    1.2807 C.3       1 RES1    0.0000
      5 C4        -0.6554   15.8840    2.0696 C.ar      1 RES1    0.0000
      6 N2        -1.4869   14.6789    2.0643 N.pl3     1 RES1    0.0000
      7 O1        -1.1603   13.7611    1.3274 O.2       1 RES1    0.0000
      8 O2        -2.5081   14.6855    2.7391 O.2       1 RES1    0.0000
      9 C5        -1.3541   17.0660    2.0727 C.ar      1 RES1    0.0000
     10 C6        -0.6885   18.2380    1.8191 C.ar      1 RES1    0.0000
     11 N3        -1.4299   19.4992    1.8222 N.pl3     1 RES1    0.0000
     12 O3        -2.5649   19.4992    2.2695 O.2       1 RES1    0.0000
     13 O4        -0.8791   20.4864    1.3734 O.2       1 RES1    0.0000
     14 C7         0.6648   18.2413    1.5679 C.ar      1 RES1    0.0000
     15 C8         1.3558   17.0577    1.6399 C.ar      1 RES1    0.0000
     16 N4         2.8195   17.2013    1.5733 N.pl3     1 RES1    0.0000
     17 O5         3.2886   17.6867    0.5607 O.2       1 RES1    0.0000
     18 O6         3.4655   16.8547    2.5468 O.2       1 RES1    0.0000
     19 H1         0.7713   12.8300    2.5108 H         1 RES1    0.0000
     20 H2         0.3602   13.8783    3.6023 H         1 RES1    0.0000
     21 H3         1.8505   13.3715    3.5073 H         1 RES1    0.0000
     22 H4         2.7706   15.0041    0.4810 H         1 RES1    0.0000
     23 H5         2.5951   13.4788    0.9467 H         1 RES1    0.0000
     24 H6         3.4366   14.4825    1.8161 H         1 RES1    0.0000
     25 H7        -2.2700   17.0462    2.1592 H         1 RES1    0.0000
     26 H8         1.0965   19.0139    1.3963 H         1 RES1    0.0000
@<TRIPOS>BOND
     1    1    2 1
     2    2    3 1
     3    3   19 1
     4    4    2 1
     5    5    1 ar
     6    6    5 1
     7    7    6 2
     8    8    6 2
     9    9    5 ar
    10   10    9 ar
    11   11   10 1
    12   12   11 2
    13   13   11 2
    14   14   10 ar
    15   15    1 ar
    16   16   15 1
    17   17   16 2
    18   18   16 2
    19   20    3 1
    20   21    3 1
    21   22    4 1
    22   23    4 1
    23   24    4 1
    24   25    9 1
    25   26   14 1
    26   14   15 ar
@<TRIPOS>SUBSTRUCTURE
     1 RES1 1

@<TRIPOS>CRYSIN
   8.3690   16.5080    8.6550  90.0000 117.7500  90.0000  14 2

