# MOL2 file generated by ConQuest
# Please check atom types

@<TRIPOS>MOLECULE
JUPSES
    24    24     1
SMALL
NO_CHARGES
****
Generated from CSD

@<TRIPOS>ATOM
      1 C1         1.5017    2.9153    4.6031 C.ar      1 RES1    0.0000
      2 N1         1.1372    2.5536    5.8194 N.3       1 RES1    0.0000
      3 C2         1.1155    4.1783    4.0439 C.ar      1 RES1    0.0000
      4 N2         0.4329    5.1322    4.9317 N.pl3     1 RES1    0.0000
      5 O1        -0.5531    4.7171    5.5465 O.2       1 RES1    0.0000
      6 O2         0.8781    6.2545    5.0403 O.2       1 RES1    0.0000
      7 C3         1.3823    4.5871    2.7507 C.ar      1 RES1    0.0000
      8 O3         0.8517    5.7628    2.3453 O.3       1 RES1    0.0000
      9 C4         1.7710    6.8432    2.0537 C.3       1 RES1    0.0000
     10 C5         2.1253    3.7142    1.9186 C.ar      1 RES1    0.0000
     11 N3         2.3411    3.9654    0.4982 N.pl3     1 RES1    0.0000
     12 O4         3.2081    3.3321   -0.0530 O.2       1 RES1    0.0000
     13 O5         1.6295    4.7421   -0.0742 O.2       1 RES1    0.0000
     14 C6         2.6078    2.5340    2.4433 C.ar      1 RES1    0.0000
     15 C7         2.3245    2.1448    3.7312 C.ar      1 RES1    0.0000
     16 N4         2.9124    0.8791    4.1738 N.pl3     1 RES1    0.0000
     17 O6         3.7489    0.3572    3.4636 O.2       1 RES1    0.0000
     18 O7         2.5569    0.4008    5.2523 O.2       1 RES1    0.0000
     19 H1         0.5663    3.0729    6.3838 H         1 RES1    0.0000
     20 H2         1.3407    1.8072    6.1904 H         1 RES1    0.0000
     21 H3         2.3037    6.8922    2.9415 H         1 RES1    0.0000
     22 H4         1.3394    7.4685    1.7066 H         1 RES1    0.0000
     23 H5         2.4621    6.6117    1.4867 H         1 RES1    0.0000
     24 H6         3.1439    2.0379    1.8948 H         1 RES1    0.0000
@<TRIPOS>BOND
     1    1    2 1
     2    2   19 1
     3    3    1 ar
     4    4    3 1
     5    5    4 2
     6    6    4 2
     7    7    3 ar
     8    8    7 1
     9    9    8 1
    10   10    7 ar
    11   11   10 1
    12   12   11 2
    13   13   11 2
    14   14   10 ar
    15   15    1 ar
    16   16   15 1
    17   17   16 2
    18   18   16 2
    19   20    2 1
    20   21    9 1
    21   22    9 1
    22   23    9 1
    23   24   14 1
    24   14   15 ar
@<TRIPOS>SUBSTRUCTURE
     1 RES1 1

@<TRIPOS>CRYSIN
   4.2480    8.9070   26.5000  90.0000  90.0000  90.0000  19 1

