# MOL2 file generated by ConQuest
# Please check atom types

@<TRIPOS>MOLECULE
JUQZEA
    59    63     1
SMALL
USER_CHARGES
****
Generated from CSD

@<TRIPOS>ATOM
      1 N1         4.4622    0.1089    5.2703 N.pl3     1 RES1    0.0000
      2 N2         4.6452    0.7844    7.3289 N.pl3     1 RES1    1.0000
      3 N3         2.6057    1.3672    6.0901 N.2       1 RES1    0.0000
      4 N4         3.1067    3.3057    7.3024 N.3       1 RES1    0.0000
      5 O1         4.3478    1.3528    8.5005 O.2       1 RES1   -1.0000
      6 O2         2.1317   -0.5207    0.2604 O.3       1 RES1    0.0000
      7 C1         3.8448    0.8589    6.2426 C.2       1 RES1    0.0000
      8 C2         5.7634    0.0029    7.0665 C.2       1 RES1    0.0000
      9 C3         5.6193   -0.3984    5.7728 C.2       1 RES1    0.0000
     10 H1         6.2190   -0.9353    5.3070 H         1 RES1    0.0000
     11 C4         2.2619    2.5375    6.5762 C.2       1 RES1    0.0000
     12 C5         0.8755    2.9646    6.3220 C.ar      1 RES1    0.0000
     13 C6         0.1228    3.6114    7.2943 C.ar      1 RES1    0.0000
     14 H2         0.4975    3.7767    8.1303 H         1 RES1    0.0000
     15 C7        -1.1603    4.0079    7.0400 C.ar      1 RES1    0.0000
     16 H3        -1.6611    4.4139    7.7113 H         1 RES1    0.0000
     17 C8        -1.7121    3.8092    5.8012 C.ar      1 RES1    0.0000
     18 H4        -2.5704    4.1178    5.6222 H         1 RES1    0.0000
     19 C9        -0.9999    3.1528    4.8208 C.ar      1 RES1    0.0000
     20 H5        -1.3795    3.0066    3.9848 H         1 RES1    0.0000
     21 C10        0.2797    2.7133    5.0893 C.ar      1 RES1    0.0000
     22 H6         0.7508    2.2442    4.4404 H         1 RES1    0.0000
     23 C11        3.0173    4.7082    7.5445 C.ar      1 RES1    0.0000
     24 C12        3.5047    5.1716    8.7283 C.ar      1 RES1    0.0000
     25 H7         3.8187    4.5630    9.3589 H         1 RES1    0.0000
     26 C13        3.5467    6.5111    9.0151 C.ar      1 RES1    0.0000
     27 H8         3.8892    6.7967    9.8308 H         1 RES1    0.0000
     28 C14        3.0935    7.4215    8.1201 C.ar      1 RES1    0.0000
     29 H9         3.1220    8.3311    8.3134 H         1 RES1    0.0000
     30 C15        2.5938    6.9802    6.9363 C.ar      1 RES1    0.0000
     31 H10        2.2757    7.5964    6.3159 H         1 RES1    0.0000
     32 C16        2.5534    5.6321    6.6332 C.ar      1 RES1    0.0000
     33 H11        2.2121    5.3493    5.8175 H         1 RES1    0.0000
     34 C17        3.9212   -0.0955    3.9400 C.ar      1 RES1    0.0000
     35 C18        3.6261    0.9764    3.1488 C.ar      1 RES1    0.0000
     36 H12        3.8200    1.8372    3.4458 H         1 RES1    0.0000
     37 C19        3.0434    0.7939    1.9182 C.ar      1 RES1    0.0000
     38 H13        2.8372    1.5315    1.3913 H         1 RES1    0.0000
     39 C20        2.7677   -0.4557    1.4666 C.ar      1 RES1    0.0000
     40 C21        3.1109   -1.5315    2.2355 C.ar      1 RES1    0.0000
     41 H14        2.9542   -2.3933    1.9222 H         1 RES1    0.0000
     42 C22        3.6911   -1.3481    3.4803 C.ar      1 RES1    0.0000
     43 H15        3.9218   -2.0837    4.0011 H         1 RES1    0.0000
     44 C23        1.6980   -1.7895   -0.1871 C.3       1 RES1    0.0000
     45 H16        1.2698   -1.6977   -1.0415 H         1 RES1    0.0000
     46 H17        1.0759   -2.1563    0.4455 H         1 RES1    0.0000
     47 H18        2.4536   -2.3751   -0.2705 H         1 RES1    0.0000
     48 C24        6.8169   -0.2685    8.0530 C.ar      1 RES1    0.0000
     49 C25        8.1433   -0.3745    7.6441 C.ar      1 RES1    0.0000
     50 H19        8.3585   -0.2608    6.7451 H         1 RES1    0.0000
     51 C26        9.1357   -0.6449    8.5493 C.ar      1 RES1    0.0000
     52 H20       10.0178   -0.6994    8.2584 H         1 RES1    0.0000
     53 C27        8.8552   -0.8331    9.8593 C.ar      1 RES1    0.0000
     54 H21        9.5360   -1.0156   10.4654 H         1 RES1    0.0000
     55 C28        7.5503   -0.7509   10.2864 C.ar      1 RES1    0.0000
     56 H22        7.3502   -0.8857   11.1835 H         1 RES1    0.0000
     57 C29        6.5328   -0.4691    9.3914 C.ar      1 RES1    0.0000
     58 H23        5.6538   -0.4137    9.6925 H         1 RES1    0.0000
     59 H24        4.0750    2.6474    7.8882 H         1 RES1    0.0000
@<TRIPOS>BOND
     1    1    7 1
     2    2    5 1
     3    3    7 1
     4    4   11 1
     5    6   39 1
     6    7    2 2
     7    8    2 1
     8    9    1 1
     9   10    9 1
    10   11    3 2
    11   12   11 1
    12   13   12 ar
    13   14   13 1
    14   15   13 ar
    15   16   15 1
    16   17   15 ar
    17   18   17 1
    18   19   17 ar
    19   20   19 1
    20   21   12 ar
    21   22   21 1
    22   23    4 1
    23   24   23 ar
    24   25   24 1
    25   26   24 ar
    26   27   26 1
    27   28   26 ar
    28   29   28 1
    29   30   28 ar
    30   31   30 1
    31   32   23 ar
    32   33   32 1
    33   34    1 1
    34   35   34 ar
    35   36   35 1
    36   37   35 ar
    37   38   37 1
    38   39   37 ar
    39   40   39 ar
    40   41   40 1
    41   42   34 ar
    42   43   42 1
    43   44    6 1
    44   45   44 1
    45   46   44 1
    46   47   44 1
    47   48    8 1
    48   49   48 ar
    49   50   49 1
    50   51   49 ar
    51   52   51 1
    52   53   51 ar
    53   54   53 1
    54   55   53 ar
    55   56   55 1
    56   57   48 ar
    57   58   57 1
    58   59    4 1
    59    8    9 2
    60   19   21 ar
    61   30   32 ar
    62   40   42 ar
    63   55   57 ar
@<TRIPOS>SUBSTRUCTURE
     1 RES1 1

@<TRIPOS>CRYSIN
  12.2950    9.5540   20.6360  90.0000  99.7000  90.0000  14 1

