# MOL2 file generated by ConQuest
# Please check atom types

@<TRIPOS>MOLECULE
JURKAK
    22    22     1
SMALL
NO_CHARGES
****
Generated from CSD

@<TRIPOS>ATOM
      1 O1         2.0375   -1.3098   -0.1657 O.3       1 RES1    0.0000
      2 O2         0.0672   -1.3289    0.8767 O.2       1 RES1    0.0000
      3 O3         0.6131    0.4369    4.0764 O.2       1 RES1    0.0000
      4 O4        -1.4212    2.0579    4.6790 O.3       1 RES1    0.0000
      5 O5        -2.3289    0.3159    3.6051 O.2       1 RES1    0.0000
      6 O6        -2.5822    0.5709    5.7461 O.2       1 RES1    0.0000
      7 N1         0.8294    1.2382    1.9656 N.am      1 RES1    0.0000
      8 H1         0.5774    1.8606    1.3967 H         1 RES1    0.0000
      9 N2        -2.1712    0.8715    4.6589 N.pl3     1 RES1    0.0000
     10 C1         1.1721   -0.8615    0.7483 C.2       1 RES1    0.0000
     11 C2         1.8005    0.2592    1.5551 C.3       1 RES1    0.0000
     12 H2         2.2165   -0.1359    2.3746 H         1 RES1    0.0000
     13 C3         2.9125    0.7414    0.6340 C.3       1 RES1    0.0000
     14 H3         3.6775    1.1029    1.1470 H         1 RES1    0.0000
     15 H4         2.5870    1.4308    0.0016 H         1 RES1    0.0000
     16 C4         3.2836   -0.5467   -0.0882 C.3       1 RES1    0.0000
     17 H5         3.6331   -0.3526   -0.9938 H         1 RES1    0.0000
     18 H6         3.9704   -1.0473    0.4187 H         1 RES1    0.0000
     19 C5         0.3028    1.2210    3.1935 C.2       1 RES1    0.0000
     20 C6        -0.7443    2.3034    3.4318 C.3       1 RES1    0.0000
     21 H7        -0.3078    3.1912    3.4585 H         1 RES1    0.0000
     22 H8        -1.4001    2.3029    2.6906 H         1 RES1    0.0000
@<TRIPOS>BOND
     1    1   10 1
     2    2   10 2
     3    3   19 2
     4    4    9 1
     5    5    9 2
     6    6    9 2
     7    7    8 1
     8   10   11 1
     9   11    7 1
    10   12   11 1
    11   13   11 1
    12   14   13 1
    13   15   13 1
    14   16    1 1
    15   17   16 1
    16   18   16 1
    17   19    7 1
    18   20    4 1
    19   21   20 1
    20   22   20 1
    21   13   16 1
    22   19   20 1
@<TRIPOS>SUBSTRUCTURE
     1 RES1 1

@<TRIPOS>CRYSIN
  10.0324    5.2469   16.1420  90.0000 101.8260  90.0000 231 1

