# MOL2 file generated by ConQuest
# Please check atom types

@<TRIPOS>MOLECULE
JURPOB
    64    68     1
SMALL
NO_CHARGES
****
Generated from CSD

@<TRIPOS>ATOM
      1 N1        -1.1381   -4.7784   -3.2627 N.3       1 RES1    0.0000
      2 O1        -0.8206   -4.2017   -2.0169 O.3       1 RES1    0.0000
      3 O2        -0.6690   -6.1995   -3.1089 O.3       1 RES1    0.0000
      4 O3         0.7898   -3.5659    0.3249 O.3       1 RES1    0.0000
      5 H1         0.8846   -4.0856    0.9786 H         1 RES1    0.0000
      6 O4        -0.1142   -4.3816   -6.6678 O.3       1 RES1    0.0000
      7 O5         1.9695   -3.6351   -6.3063 O.2       1 RES1    0.0000
      8 O6        -2.5352   -7.3664   -3.9491 O.3       1 RES1    0.0000
      9 C1         0.5542   -3.6558   -2.0246 C.3       1 RES1    0.0000
     10 H2         0.5050   -2.6589   -1.9630 H         1 RES1    0.0000
     11 C2         1.1116   -4.0339   -3.3820 C.3       1 RES1    0.0000
     12 H3         1.6813   -3.3128   -3.7492 H         1 RES1    0.0000
     13 H4         1.6385   -4.8707   -3.3320 H         1 RES1    0.0000
     14 C3        -0.1391   -4.2233   -4.2145 C.3       1 RES1    0.0000
     15 H5        -0.4554   -3.3267   -4.5240 H         1 RES1    0.0000
     16 C4        -0.0452   -5.1509   -5.4257 C.3       1 RES1    0.0000
     17 H6         0.8117   -5.6653   -5.3950 H         1 RES1    0.0000
     18 C5        -1.2212   -6.1098   -5.4757 C.3       1 RES1    0.0000
     19 H7        -2.0678   -5.6022   -5.5507 H         1 RES1    0.0000
     20 H8        -1.1414   -6.7023   -6.2640 H         1 RES1    0.0000
     21 C6        -1.2285   -6.9390   -4.2029 C.3       1 RES1    0.0000
     22 H9        -0.6605   -7.7468   -4.3567 H         1 RES1    0.0000
     23 C7         1.3266   -4.1741   -0.8479 C.3       1 RES1    0.0000
     24 H10        1.2416   -5.1588   -0.7902 H         1 RES1    0.0000
     25 H11        2.2856   -3.9476   -0.9421 H         1 RES1    0.0000
     26 C8         0.9752   -3.6680   -6.9965 C.2       1 RES1    0.0000
     27 C9         0.8089   -2.9412   -8.2674 C.ar      1 RES1    0.0000
     28 C10       -0.3011   -3.1055   -9.0865 C.ar      1 RES1    0.0000
     29 H12       -0.9992   -3.6930   -8.8192 H         1 RES1    0.0000
     30 C11       -0.3988   -2.4277  -10.2804 C.ar      1 RES1    0.0000
     31 H13       -1.1639   -2.5367  -10.8322 H         1 RES1    0.0000
     32 C12        0.6236   -1.5875  -10.6669 C.ar      1 RES1    0.0000
     33 H14        0.5614   -1.1300  -11.4975 H         1 RES1    0.0000
     34 C13        1.7227   -1.4003   -9.8805 C.ar      1 RES1    0.0000
     35 H15        2.4118   -0.8105  -10.1593 H         1 RES1    0.0000
     36 C14        1.8316   -2.0720   -8.6750 C.ar      1 RES1    0.0000
     37 H16        2.5963   -1.9445   -8.1271 H         1 RES1    0.0000
     38 C15       -2.6509   -8.4500   -2.9917 C.3       1 RES1    0.0000
     39 H17       -1.7437   -8.6608   -2.6283 H         1 RES1    0.0000
     40 C16       -3.5475   -8.0165   -1.8554 C.3       1 RES1    0.0000
     41 H18       -4.4241   -7.7326   -2.2168 H         1 RES1    0.0000
     42 H19       -3.1415   -7.2397   -1.3939 H         1 RES1    0.0000
     43 C17       -3.7551   -9.1466   -0.8537 C.3       1 RES1    0.0000
     44 H20       -2.8927   -9.3693   -0.4211 H         1 RES1    0.0000
     45 H21       -4.3864   -8.8545   -0.1500 H         1 RES1    0.0000
     46 C18       -4.3047  -10.3734   -1.5477 C.3       1 RES1    0.0000
     47 H22       -5.2084  -10.1735   -1.8996 H         1 RES1    0.0000
     48 H23       -4.3870  -11.1114   -0.8940 H         1 RES1    0.0000
     49 C19       -3.3992  -10.8207   -2.7033 C.3       1 RES1    0.0000
     50 H24       -2.5210  -11.1032   -2.3456 H         1 RES1    0.0000
     51 H25       -3.8077  -11.5967   -3.1628 H         1 RES1    0.0000
     52 C20       -3.1967   -9.6815   -3.7107 C.3       1 RES1    0.0000
     53 H26       -4.1006   -9.4382   -4.0607 H         1 RES1    0.0000
     54 C21       -2.3448  -10.0504   -4.9009 C.ar      1 RES1    0.0000
     55 C22       -2.6803   -9.5825   -6.1794 C.ar      1 RES1    0.0000
     56 H27       -3.4787   -9.0800   -6.2948 H         1 RES1    0.0000
     57 C23       -1.8830   -9.8327   -7.2696 C.ar      1 RES1    0.0000
     58 H28       -2.1356   -9.5047   -8.1232 H         1 RES1    0.0000
     59 C24       -0.7113  -10.5615   -7.1292 C.ar      1 RES1    0.0000
     60 H29       -0.1540  -10.7183   -7.8829 H         1 RES1    0.0000
     61 C25       -0.3593  -11.0567   -5.8929 C.ar      1 RES1    0.0000
     62 H30        0.4366  -11.5662   -5.7910 H         1 RES1    0.0000
     63 C26       -1.1752  -10.8088   -4.7913 C.ar      1 RES1    0.0000
     64 H31       -0.9319  -11.1650   -3.9434 H         1 RES1    0.0000
@<TRIPOS>BOND
     1    1    2 1
     2    2    9 1
     3    3    1 1
     4    4    5 1
     5    6   16 1
     6    7   26 2
     7    8   21 1
     8    9   10 1
     9   11    9 1
    10   12   11 1
    11   13   11 1
    12   14    1 1
    13   15   14 1
    14   16   14 1
    15   17   16 1
    16   18   16 1
    17   19   18 1
    18   20   18 1
    19   21    3 1
    20   22   21 1
    21   23    4 1
    22   24   23 1
    23   25   23 1
    24   26    6 1
    25   27   26 1
    26   28   27 ar
    27   29   28 1
    28   30   28 ar
    29   31   30 1
    30   32   30 ar
    31   33   32 1
    32   34   32 ar
    33   35   34 1
    34   36   27 ar
    35   37   36 1
    36   38    8 1
    37   39   38 1
    38   40   38 1
    39   41   40 1
    40   42   40 1
    41   43   40 1
    42   44   43 1
    43   45   43 1
    44   46   43 1
    45   47   46 1
    46   48   46 1
    47   49   46 1
    48   50   49 1
    49   51   49 1
    50   52   38 1
    51   53   52 1
    52   54   52 1
    53   55   54 ar
    54   56   55 1
    55   57   55 ar
    56   58   57 1
    57   59   57 ar
    58   60   59 1
    59   61   59 ar
    60   62   61 1
    61   63   54 ar
    62   64   63 1
    63    9   23 1
    64   11   14 1
    65   18   21 1
    66   34   36 ar
    67   49   52 1
    68   61   63 ar
@<TRIPOS>SUBSTRUCTURE
     1 RES1 1

@<TRIPOS>CRYSIN
   5.6313   10.6452   19.4462  96.2470  95.8440  90.6480   1 1

