# MOL2 file generated by ConQuest
# Please check atom types

@<TRIPOS>MOLECULE
JURQOC
    58    60     1
SMALL
NO_CHARGES
****
Generated from CSD

@<TRIPOS>ATOM
      1 N1        -0.5419  -14.4606   -2.2878 N.3       1 RES1    0.0000
      2 O1        -0.4527  -15.5086   -1.3568 O.3       1 RES1    0.0000
      3 O2         0.7965  -14.5259   -2.9363 O.3       1 RES1    0.0000
      4 O3         2.8665  -15.2143   -0.2094 O.2       1 RES1    0.0000
      5 O4         1.7047  -17.0247   -0.8269 O.3       1 RES1    0.0000
      6 O5        -0.7702  -13.3368    1.6633 O.2       1 RES1    0.0000
      7 O6         0.8970  -11.8964    1.2391 O.3       1 RES1    0.0000
      8 O7        -1.5413  -11.7984   -2.9647 O.3       1 RES1    0.0000
      9 O8        -1.3713   -9.5664   -2.7226 O.2       1 RES1    0.0000
     10 O9        -0.0949  -13.5450   -4.8684 O.3       1 RES1    0.0000
     11 C1         0.4668  -15.1059   -0.2969 C.3       1 RES1    0.0000
     12 H1         0.0808  -15.3829    0.5832 H         1 RES1    0.0000
     13 C2         0.5222  -13.5777   -0.3499 C.3       1 RES1    0.0000
     14 H2         1.4314  -13.2680   -0.6256 H         1 RES1    0.0000
     15 C3        -0.5128  -13.2645   -1.4395 C.3       1 RES1    0.0000
     16 H3        -1.4060  -13.1854   -0.9968 H         1 RES1    0.0000
     17 C4        -0.2883  -12.0031   -2.2481 C.3       1 RES1    0.0000
     18 H4        -0.1249  -11.2322   -1.6304 H         1 RES1    0.0000
     19 C5         0.8678  -12.1305   -3.2210 C.3       1 RES1    0.0000
     20 H5         0.7918  -11.4215   -3.9076 H         1 RES1    0.0000
     21 H6         1.7179  -11.9877   -2.7332 H         1 RES1    0.0000
     22 C6         0.9082  -13.4779   -3.8997 C.3       1 RES1    0.0000
     23 H7         1.7921  -13.5691   -4.3583 H         1 RES1    0.0000
     24 C7         1.8324  -15.7564   -0.4533 C.2       1 RES1    0.0000
     25 C8         2.9276  -17.8128   -0.8589 C.3       1 RES1    0.0000
     26 H8         2.7069  -18.7524   -1.0313 H         1 RES1    0.0000
     27 H9         3.3869  -17.7371    0.0053 H         1 RES1    0.0000
     28 H10        3.5127  -17.4790   -1.5694 H         1 RES1    0.0000
     29 C9         0.1287  -12.9565    0.9703 C.2       1 RES1    0.0000
     30 C10        0.5945  -11.1978    2.4734 C.3       1 RES1    0.0000
     31 H11        1.1524  -10.3958    2.5397 H         1 RES1    0.0000
     32 H12        0.7786  -11.7863    3.2343 H         1 RES1    0.0000
     33 H13       -0.3503  -10.9396    2.4814 H         1 RES1    0.0000
     34 C11       -1.9639  -10.5318   -3.1256 C.2       1 RES1    0.0000
     35 C12       -3.2516  -10.5180   -3.8520 C.ar      1 RES1    0.0000
     36 C13       -4.1974   -9.5681   -3.4994 C.ar      1 RES1    0.0000
     37 H14       -3.9964   -8.9193   -2.8340 H         1 RES1    0.0000
     38 C14       -5.4363   -9.5698   -4.1197 C.ar      1 RES1    0.0000
     39 H15       -6.1041   -8.9537   -3.8414 H         1 RES1    0.0000
     40 C15       -5.7058  -10.4595   -5.1377 C.ar      1 RES1    0.0000
     41 H16       -6.5502  -10.4423   -5.5725 H         1 RES1    0.0000
     42 C16       -4.7497  -11.3785   -5.5248 C.ar      1 RES1    0.0000
     43 H17       -4.9225  -11.9722   -6.2459 H         1 RES1    0.0000
     44 C17       -3.5409  -11.4301   -4.8567 C.ar      1 RES1    0.0000
     45 H18       -2.9032  -12.0943   -5.0873 H         1 RES1    0.0000
     46 C18       -0.1296  -14.7875   -5.5566 C.3       1 RES1    0.0000
     47 H19        0.6603  -14.8512   -6.1478 H         1 RES1    0.0000
     48 H20       -0.0714  -15.5241   -4.8965 H         1 RES1    0.0000
     49 C19       -1.2623  -14.9510   -6.3042 C.3       1 RES1    0.0000
     50 H21       -1.2792  -14.2506   -7.0040 H         1 RES1    0.0000
     51 H22       -2.0485  -14.8065   -5.7209 H         1 RES1    0.0000
     52 C20       -1.4098  -16.3277   -6.9881 C.3       1 RES1    0.0000
     53 H23       -1.3055  -17.0247   -6.2936 H         1 RES1    0.0000
     54 H24       -2.3340  -16.3965   -7.3354 H         1 RES1    0.0000
     55 C21       -0.5363  -16.6306   -8.0300 C.3       1 RES1    0.0000
     56 H25       -0.6969  -17.5478   -8.3349 H         1 RES1    0.0000
     57 H26        0.3879  -16.5463   -7.7172 H         1 RES1    0.0000
     58 H27       -0.6866  -16.0093   -8.7723 H         1 RES1    0.0000
@<TRIPOS>BOND
     1    1    2 1
     2    2   11 1
     3    3    1 1
     4    4   24 2
     5    5   24 1
     6    6   29 2
     7    7   29 1
     8    8   17 1
     9    9   34 2
    10   10   22 1
    11   11   12 1
    12   13   11 1
    13   14   13 1
    14   15    1 1
    15   16   15 1
    16   17   15 1
    17   18   17 1
    18   19   17 1
    19   20   19 1
    20   21   19 1
    21   22    3 1
    22   23   22 1
    23   24   11 1
    24   25    5 1
    25   26   25 1
    26   27   25 1
    27   28   25 1
    28   29   13 1
    29   30    7 1
    30   31   30 1
    31   32   30 1
    32   33   30 1
    33   34    8 1
    34   35   34 1
    35   36   35 ar
    36   37   36 1
    37   38   36 ar
    38   39   38 1
    39   40   38 ar
    40   41   40 1
    41   42   40 ar
    42   43   42 1
    43   44   35 ar
    44   45   44 1
    45   46   10 1
    46   47   46 1
    47   48   46 1
    48   49   46 1
    49   50   49 1
    50   51   49 1
    51   52   49 1
    52   53   52 1
    53   54   52 1
    54   55   52 1
    55   56   55 1
    56   57   55 1
    57   58   55 1
    58   13   15 1
    59   19   22 1
    60   42   44 ar
@<TRIPOS>SUBSTRUCTURE
     1 RES1 1

@<TRIPOS>CRYSIN
   9.3923   17.2088   26.5104  90.0000  90.0000  90.0000  61 1

