# MOL2 file generated by ConQuest
# Please check atom types

@<TRIPOS>MOLECULE
JURQIW
    61    63     1
SMALL
NO_CHARGES
****
Generated from CSD

@<TRIPOS>ATOM
      1 N1         0.1862    6.2326    7.5542 N.3       1 RES1    0.0000
      2 O1         0.3476    5.9106    6.1094 O.3       1 RES1    0.0000
      3 O2         0.2014    4.9514    8.1074 O.3       1 RES1    0.0000
      4 C1        -1.0280    4.2803    7.7407 C.3       1 RES1    0.0000
      5 H1        -0.8549    3.7235    7.0366 H         1 RES1    0.0000
      6 O3        -1.3706    3.4547    8.8387 O.3       1 RES1    0.0000
      7 C2        -1.2152    6.6543    7.7512 C.3       1 RES1    0.0000
      8 H2        -1.2911    6.9095    8.6711 H         1 RES1    0.0000
      9 C3        -2.0559    5.4012    7.5322 C.3       1 RES1    0.0000
     10 H3        -2.4074    5.3504    6.6196 H         1 RES1    0.0000
     11 O4        -4.1194    4.4091    8.0320 O.3       1 RES1    0.0000
     12 C4        -1.5349    7.8759    6.9098 C.3       1 RES1    0.0000
     13 H4        -2.5116    8.0667    6.9570 H         1 RES1    0.0000
     14 O5        -0.7754    8.9843    7.4683 O.3       1 RES1    0.0000
     15 C5        -1.1145    7.7171    5.4640 C.3       1 RES1    0.0000
     16 H5        -1.7822    7.1177    5.0637 H         1 RES1    0.0000
     17 H6        -1.0739    8.5945    5.0512 H         1 RES1    0.0000
     18 O6         1.2449    8.0144    5.5614 O.3       1 RES1    0.0000
     19 C6         0.2402    7.0823    5.3068 C.3       1 RES1    0.0000
     20 H7         0.4045    6.6626    4.4319 H         1 RES1    0.0000
     21 O7        -2.5729    9.7232    8.5862 O.2       1 RES1    0.0000
     22 C7        -0.7083    2.2530    8.8943 C.2       1 RES1    0.0000
     23 O8        -3.3026    5.8651    9.5449 O.2       1 RES1    0.0000
     24 C8        -1.2346    1.4100   10.0101 C.3       1 RES1    0.0000
     25 H8        -2.1513    1.6753   10.3967 H         1 RES1    0.0000
     26 H9        -0.5687    1.4235   10.6911 H         1 RES1    0.0000
     27 H10       -1.2805    0.4697    9.7398 H         1 RES1    0.0000
     28 O9         0.1696    1.9629    8.1483 O.2       1 RES1    0.0000
     29 C9        -3.2146    5.2807    8.4930 C.2       1 RES1    0.0000
     30 C10       -5.2334    4.0668    8.9152 C.3       1 RES1    0.0000
     31 H11       -5.9523    3.7574    8.2520 H         1 RES1    0.0000
     32 H12       -5.4260    4.8904    9.3815 H         1 RES1    0.0000
     33 C11       -4.8237    2.9667    9.8561 C.3       1 RES1    0.0000
     34 H13       -5.6132    2.6534   10.3653 H         1 RES1    0.0000
     35 H14       -4.1313    3.2151   10.4365 H         1 RES1    0.0000
     36 H15       -4.5781    2.1353    9.4139 H         1 RES1    0.0000
     37 C12       -1.4024    9.8021    8.3201 C.2       1 RES1    0.0000
     38 C13       -0.4787   10.8000    8.9236 C.ar      1 RES1    0.0000
     39 C14        0.8902   10.7322    8.7161 C.ar      1 RES1    0.0000
     40 H16        1.2523    9.9841    8.1682 H         1 RES1    0.0000
     41 C15        1.7203   11.6629    9.3186 C.ar      1 RES1    0.0000
     42 H17        2.6441   11.6595    9.1552 H         1 RES1    0.0000
     43 C16        1.1887   12.6661   10.0981 C.ar      1 RES1    0.0000
     44 H18        1.7875   13.3154   10.4711 H         1 RES1    0.0000
     45 C17       -0.1660   12.7460   10.2972 C.ar      1 RES1    0.0000
     46 H19       -0.5493   13.5430   10.8001 H         1 RES1    0.0000
     47 C18       -0.9979   11.8115    9.7136 C.ar      1 RES1    0.0000
     48 H20       -1.9146   11.8338    9.8027 H         1 RES1    0.0000
     49 C19        2.5346    7.5961    5.0794 C.3       1 RES1    0.0000
     50 H21        2.5134    7.4082    4.0631 H         1 RES1    0.0000
     51 H22        2.7907    6.7545    5.5708 H         1 RES1    0.0000
     52 C20        3.4990    8.7233    5.2953 C.3       1 RES1    0.0000
     53 H23        4.3927    8.6187    4.8238 H         1 RES1    0.0000
     54 H24        3.1192    9.7517    4.9652 H         1 RES1    0.0000
     55 C21        3.8928    8.8899    6.7349 C.3       1 RES1    0.0000
     56 H25        4.5199    7.9360    6.8323 H         1 RES1    0.0000
     57 H26        3.0715    8.8705    7.2818 H         1 RES1    0.0000
     58 C22        4.6735   10.1793    7.0041 C.3       1 RES1    0.0000
     59 H27        4.8731   10.1972    7.9974 H         1 RES1    0.0000
     60 H28        4.2514   11.0058    6.8009 H         1 RES1    0.0000
     61 H29        5.4224   10.2456    6.4289 H         1 RES1    0.0000
@<TRIPOS>BOND
     1    1    2 1
     2    2   19 1
     3    3    1 1
     4    4    3 1
     5    5    4 1
     6    6    4 1
     7    7    1 1
     8    8    7 1
     9    9    4 1
    10   10    9 1
    11   11   29 1
    12   12    7 1
    13   13   12 1
    14   14   12 1
    15   15   12 1
    16   16   15 1
    17   17   15 1
    18   18   19 1
    19   19   15 1
    20   20   19 1
    21   21   37 2
    22   22    6 1
    23   23   29 2
    24   24   22 1
    25   25   24 1
    26   26   24 1
    27   27   24 1
    28   28   22 2
    29   29    9 1
    30   30   11 1
    31   31   30 1
    32   32   30 1
    33   33   30 1
    34   34   33 1
    35   35   33 1
    36   36   33 1
    37   37   14 1
    38   38   37 1
    39   39   38 ar
    40   40   39 1
    41   41   39 ar
    42   42   41 1
    43   43   41 ar
    44   44   43 1
    45   45   43 ar
    46   46   45 1
    47   47   38 ar
    48   48   47 1
    49   49   18 1
    50   50   49 1
    51   51   49 1
    52   52   49 1
    53   53   52 1
    54   54   52 1
    55   55   52 1
    56   56   55 1
    57   57   55 1
    58   58   55 1
    59   59   58 1
    60   60   58 1
    61   61   58 1
    62    7    9 1
    63   45   47 ar
@<TRIPOS>SUBSTRUCTURE
     1 RES1 1

@<TRIPOS>CRYSIN
  17.6626   48.4197   10.4774  90.0000  90.0000  90.0000  43 1

