# MOL2 file generated by ConQuest
# Please check atom types

@<TRIPOS>MOLECULE
JUTDEJ
    62    65     1
SMALL
NO_CHARGES
****
Generated from CSD

@<TRIPOS>ATOM
      1 O1         7.3238    5.0961    1.9099 O.3       1 RES1    0.0000
      2 O2         6.5180    7.8859    2.0015 O.2       1 RES1    0.0000
      3 N1         4.7221    8.7626    3.0656 N.am      1 RES1    0.0000
      4 N2         5.2255    7.0720    5.2647 N.3       1 RES1    0.0000
      5 N3         2.8595    9.6205    4.1500 N.ar      1 RES1    0.0000
      6 N4         3.3595    7.9126    6.3483 N.ar      1 RES1    0.0000
      7 O3         9.0657    6.1733    2.8082 O.2       1 RES1    0.0000
      8 N5         6.8556    3.5541    6.9343 N.3       1 RES1    0.0000
      9 C1         3.8628    8.7818    4.1648 C.ar      1 RES1    0.0000
     10 O4        -1.5396   10.4279    8.5335 O.2       1 RES1    0.0000
     11 N6        -0.5833    9.6649    8.5697 N.pl3     1 RES1    0.0000
     12 C2         2.2940    8.7863    6.3525 C.ar      1 RES1    0.0000
     13 C3         4.1330    7.9156    5.2903 C.ar      1 RES1    0.0000
     14 C4         2.0361    9.6221    5.2598 C.ar      1 RES1    0.0000
     15 C5         6.0229    6.9426    4.1160 C.2       1 RES1    0.0000
     16 C6         5.1473   10.9900    2.0230 C.ar      1 RES1    0.0000
     17 C7         5.7778    7.8831    2.9777 C.2       1 RES1    0.0000
     18 C8         7.9065    5.8378    2.8608 C.2       1 RES1    0.0000
     19 C9         7.0202    6.0532    4.0197 C.2       1 RES1    0.0000
     20 H1         7.1691    5.5127    4.7621 H         1 RES1    0.0000
     21 C10        0.3566    9.6639    7.4391 C.ar      1 RES1    0.0000
     22 O5        -0.3696    8.9249    9.5074 O.2       1 RES1    0.0000
     23 C11        1.4365    8.8237    7.4661 C.ar      1 RES1    0.0000
     24 H2         1.6005    8.2864    8.2083 H         1 RES1    0.0000
     25 C12        0.9185   10.4849    5.2741 C.ar      1 RES1    0.0000
     26 H3         0.7522   11.0436    4.5491 H         1 RES1    0.0000
     27 C13        5.4569    6.1671    6.4068 C.3       1 RES1    0.0000
     28 H4         5.0801    6.5648    7.2072 H         1 RES1    0.0000
     29 H5         6.4119    6.0698    6.5455 H         1 RES1    0.0000
     30 C14        4.4392    9.6583    1.9105 C.3       1 RES1    0.0000
     31 H6         3.4833    9.8119    1.8551 H         1 RES1    0.0000
     32 H7         4.7183    9.2182    1.0915 H         1 RES1    0.0000
     33 C15        0.0803   10.5015    6.3544 C.ar      1 RES1    0.0000
     34 H8        -0.6622   11.0618    6.3683 H         1 RES1    0.0000
     35 C16        6.3726   11.2092    1.4154 C.ar      1 RES1    0.0000
     36 H9         6.7600   10.5301    0.9125 H         1 RES1    0.0000
     37 C17        4.6130   12.0376    2.7688 C.ar      1 RES1    0.0000
     38 H10        3.7867   11.9311    3.1823 H         1 RES1    0.0000
     39 C18        4.8388    4.7830    6.1996 C.3       1 RES1    0.0000
     40 H11        3.8798    4.8338    6.3344 H         1 RES1    0.0000
     41 H12        4.9988    4.4911    5.2881 H         1 RES1    0.0000
     42 C19        5.4280    3.7752    7.1605 C.3       1 RES1    0.0000
     43 H13        5.2953    4.0881    8.0688 H         1 RES1    0.0000
     44 H14        4.9577    2.9325    7.0640 H         1 RES1    0.0000
     45 C20        7.0313   12.4206    1.5440 C.ar      1 RES1    0.0000
     46 H15        7.8505   12.5457    1.1217 H         1 RES1    0.0000
     47 C21        5.2941   13.2380    2.9061 C.ar      1 RES1    0.0000
     48 H16        4.9303   13.9170    3.4273 H         1 RES1    0.0000
     49 C22        6.4929   13.4353    2.2838 C.ar      1 RES1    0.0000
     50 H17        6.9368   14.2488    2.3622 H         1 RES1    0.0000
     51 C23        8.1156    4.8556    0.7175 C.3       1 RES1    0.0000
     52 H18        7.6531    4.2388    0.1452 H         1 RES1    0.0000
     53 H19        8.9654    4.4848    0.9671 H         1 RES1    0.0000
     54 H20        8.2526    5.6842    0.2507 H         1 RES1    0.0000
     55 C24        7.1176    2.6127    5.8772 C.3       1 RES1    0.0000
     56 H21        6.7911    1.7461    6.1327 H         1 RES1    0.0000
     57 H22        8.0632    2.5643    5.7198 H         1 RES1    0.0000
     58 H23        6.6735    2.8990    5.0750 H         1 RES1    0.0000
     59 C25        7.4936    3.0688    8.1585 C.3       1 RES1    0.0000
     60 H24        7.3387    3.6950    8.8700 H         1 RES1    0.0000
     61 H25        8.4378    2.9772    8.0122 H         1 RES1    0.0000
     62 H26        7.1224    2.2166    8.3968 H         1 RES1    0.0000
@<TRIPOS>BOND
     1    1   18 1
     2    2   17 2
     3    3    9 1
     4    4   13 1
     5    5    9 ar
     6    6   12 ar
     7    7   18 2
     8    8   42 1
     9    9   13 ar
    10   10   11 2
    11   11   21 1
    12   12   14 ar
    13   13    6 ar
    14   14    5 ar
    15   15    4 1
    16   16   30 1
    17   17    3 1
    18   18   19 1
    19   19   15 2
    20   20   19 1
    21   21   23 ar
    22   22   11 2
    23   23   12 ar
    24   24   23 1
    25   25   14 ar
    26   26   25 1
    27   27    4 1
    28   28   27 1
    29   29   27 1
    30   30    3 1
    31   31   30 1
    32   32   30 1
    33   33   21 ar
    34   34   33 1
    35   35   16 ar
    36   36   35 1
    37   37   16 ar
    38   38   37 1
    39   39   27 1
    40   40   39 1
    41   41   39 1
    42   42   39 1
    43   43   42 1
    44   44   42 1
    45   45   35 ar
    46   46   45 1
    47   47   37 ar
    48   48   47 1
    49   49   45 ar
    50   50   49 1
    51   51    1 1
    52   52   51 1
    53   53   51 1
    54   54   51 1
    55   55    8 1
    56   56   55 1
    57   57   55 1
    58   58   55 1
    59   59    8 1
    60   60   59 1
    61   61   59 1
    62   62   59 1
    63   15   17 1
    64   25   33 ar
    65   47   49 ar
@<TRIPOS>SUBSTRUCTURE
     1 RES1 1

@<TRIPOS>CRYSIN
   5.8603   11.0162   19.3710  76.7190  87.4870  80.9800   2 1

