# MOL2 file generated by ConQuest
# Please check atom types

@<TRIPOS>MOLECULE
JUVMIW01
    27    28     1
SMALL
NO_CHARGES
****
Generated from CSD

@<TRIPOS>ATOM
      1 C1         7.9833    1.0972    6.5870 C.3       1 RES1    0.0000
      2 C2         7.3110   -0.2171    6.2484 C.3       1 RES1    0.0000
      3 N1         6.1594   -0.0396    5.2523 N.pl3     1 RES1    0.0000
      4 O1         5.9613    1.0651    4.7934 O.2       1 RES1    0.0000
      5 O2         5.5326   -1.0373    4.9697 O.2       1 RES1    0.0000
      6 N2         6.5753   -0.8502    7.4277 N.pl3     1 RES1    0.0000
      7 O3         5.8490   -0.0888    8.0338 O.2       1 RES1    0.0000
      8 O4         6.7460   -2.0041    7.6800 O.2       1 RES1    0.0000
      9 C3         8.4404   -1.0886    5.6774 C.3       1 RES1    0.0000
     10 C4         9.6537   -0.1326    5.7147 C.3       1 RES1    0.0000
     11 C5        10.0688    0.0845    7.1557 C.3       1 RES1    0.0000
     12 N3        11.3927    0.8545    7.2759 N.pl3     1 RES1    0.0000
     13 O5        11.9716    1.1614    6.2670 O.2       1 RES1    0.0000
     14 O6        11.7400    1.1229    8.4016 O.2       1 RES1    0.0000
     15 N4        10.4229   -1.2148    7.8691 N.pl3     1 RES1    0.0000
     16 O7        11.4451   -1.7474    7.5305 O.2       1 RES1    0.0000
     17 O8         9.6597   -1.6340    8.6900 O.2       1 RES1    0.0000
     18 C6         8.9317    0.8737    7.7780 C.3       1 RES1    0.0000
     19 C7         8.9677    1.2052    5.4170 C.3       1 RES1    0.0000
     20 H1         7.3282    1.6950    6.6827 H         1 RES1    0.0000
     21 H2         8.1763   -1.2448    4.8273 H         1 RES1    0.0000
     22 H3         8.5458   -1.9345    6.2472 H         1 RES1    0.0000
     23 H4        10.3852   -0.4556    5.2079 H         1 RES1    0.0000
     24 H5         9.2473    1.6244    8.0536 H         1 RES1    0.0000
     25 H6         8.4893    0.3657    8.5861 H         1 RES1    0.0000
     26 H7         8.5115    1.2544    4.4968 H         1 RES1    0.0000
     27 H8         9.5122    1.9057    5.5466 H         1 RES1    0.0000
@<TRIPOS>BOND
     1    1    2 1
     2    2    3 1
     3    3    4 2
     4    5    3 2
     5    6    2 1
     6    7    6 2
     7    8    6 2
     8    9    2 1
     9   10    9 1
    10   11   10 1
    11   12   11 1
    12   13   12 2
    13   14   12 2
    14   15   11 1
    15   16   15 2
    16   17   15 2
    17   18    1 1
    18   19    1 1
    19   20    1 1
    20   21    9 1
    21   22    9 1
    22   23   10 1
    23   24   18 1
    24   25   18 1
    25   26   19 1
    26   27   19 1
    27   10   19 1
    28   11   18 1
@<TRIPOS>SUBSTRUCTURE
     1 RES1 1

@<TRIPOS>CRYSIN
   8.5750   10.6940   11.6770  90.0000  90.0000  90.0000  19 1

