# MOL2 file generated by ConQuest
# Please check atom types

@<TRIPOS>MOLECULE
JUVNUJ
    49    51     1
SMALL
NO_CHARGES
****
Generated from CSD

@<TRIPOS>ATOM
      1 C1        -0.0286    4.9619    1.0143 C.2       1 RES1    0.0000
      2 O1         0.0941    3.7934    0.7860 O.2       1 RES1    0.0000
      3 C2         0.0456    6.2664    0.2022 C.3       1 RES1    0.0000
      4 C3         1.4372    6.6395   -0.2681 C.3       1 RES1    0.0000
      5 H1         2.0451    6.5940    0.4735 H         1 RES1    0.0000
      6 H2         1.4288    7.5324   -0.6207 H         1 RES1    0.0000
      7 C4        -0.9824    6.3164   -0.9212 C.3       1 RES1    0.0000
      8 H3        -1.8447    6.0727   -0.5767 H         1 RES1    0.0000
      9 H4        -0.7279    5.7002   -1.6120 H         1 RES1    0.0000
     10 H5        -1.0218    7.2046   -1.2831 H         1 RES1    0.0000
     11 C5        -0.4021    6.9209    1.5441 C.3       1 RES1    0.0000
     12 H6         0.0616    7.7280    1.7789 H         1 RES1    0.0000
     13 N1        -0.2946    5.6427    2.2333 N.am      1 RES1    0.0000
     14 O2        -1.8056    7.2913    1.6608 O.3       1 RES1    0.0000
     15 C6        -2.3947    6.4414    2.5787 C.2       1 RES1    0.0000
     16 C7        -3.8106    6.8132    2.9721 C.3       1 RES1    0.0000
     17 C8        -1.5368    5.4628    2.9616 C.2       1 RES1    0.0000
     18 C9        -1.6829    4.3900    3.9425 C.2       1 RES1    0.0000
     19 O3        -2.6940    4.0732    4.5348 O.2       1 RES1    0.0000
     20 O4        -0.4969    3.7655    4.1096 O.3       1 RES1    0.0000
     21 C10       -0.4955    2.6861    5.0698 C.3       1 RES1    0.0000
     22 H7        -0.7568    3.0148    5.9333 H         1 RES1    0.0000
     23 H8        -1.1045    1.9979    4.7918 H         1 RES1    0.0000
     24 C11        0.9081    2.1409    5.1366 C.ar      1 RES1    0.0000
     25 C12        1.3560    1.5783    6.3202 C.ar      1 RES1    0.0000
     26 H9         0.7890    1.5990    7.0947 H         1 RES1    0.0000
     27 C13        2.6098    0.9877    6.4058 C.ar      1 RES1    0.0000
     28 H10        2.9202    0.5992    7.2270 H         1 RES1    0.0000
     29 C14        3.4028    0.9821    5.2641 C.ar      1 RES1    0.0000
     30 H11        1.7204    6.0281   -0.9520 H         1 RES1    0.0000
     31 C15        2.9953    1.5511    4.0792 C.ar      1 RES1    0.0000
     32 H12        3.5703    1.5397    3.3104 H         1 RES1    0.0000
     33 C16        1.7436    2.1452    4.0133 C.ar      1 RES1    0.0000
     34 H13        1.4511    2.5598    3.1984 H         1 RES1    0.0000
     35 N2         4.7240    0.3346    5.3154 N.pl3     1 RES1    0.0000
     36 O5         5.1847    0.0351    6.4067 O.2       1 RES1    0.0000
     37 O6         5.2975    0.1093    4.2511 O.2       1 RES1    0.0000
     38 C17       -3.8003    7.1853    4.4668 C.3       1 RES1    0.0000
     39 H14       -4.6881    7.4242    4.7434 H         1 RES1    0.0000
     40 H15       -3.2113    7.9311    4.6026 H         1 RES1    0.0000
     41 H16       -3.4944    6.4379    4.9847 H         1 RES1    0.0000
     42 C18       -4.7589    5.6327    2.7133 C.3       1 RES1    0.0000
     43 H17       -5.6520    5.8756    2.9686 H         1 RES1    0.0000
     44 H18       -4.4735    4.8750    3.2290 H         1 RES1    0.0000
     45 H19       -4.7425    5.4090    1.7798 H         1 RES1    0.0000
     46 C19       -4.2963    8.0251    2.1516 C.3       1 RES1    0.0000
     47 H20       -5.1924    8.2515    2.4111 H         1 RES1    0.0000
     48 H21       -4.2798    7.8042    1.2174 H         1 RES1    0.0000
     49 H22       -3.7173    8.7735    2.3137 H         1 RES1    0.0000
@<TRIPOS>BOND
     1    1    2 2
     2    3    1 1
     3    4    3 1
     4    5    4 1
     5    6    4 1
     6    7    3 1
     7    8    7 1
     8    9    7 1
     9   10    7 1
    10   11    3 1
    11   12   11 1
    12   13    1 1
    13   14   11 1
    14   15   14 1
    15   16   15 1
    16   17   13 1
    17   18   17 1
    18   19   18 2
    19   20   18 1
    20   21   20 1
    21   22   21 1
    22   23   21 1
    23   24   21 1
    24   25   24 ar
    25   26   25 1
    26   27   25 ar
    27   28   27 1
    28   29   27 ar
    29   30    4 1
    30   31   29 ar
    31   32   31 1
    32   33   24 ar
    33   34   33 1
    34   35   29 1
    35   36   35 2
    36   37   35 2
    37   38   16 1
    38   39   38 1
    39   40   38 1
    40   41   38 1
    41   42   16 1
    42   43   42 1
    43   44   42 1
    44   45   42 1
    45   46   16 1
    46   47   46 1
    47   48   46 1
    48   49   46 1
    49   11   13 1
    50   15   17 2
    51   31   33 ar
@<TRIPOS>SUBSTRUCTURE
     1 RES1 1

@<TRIPOS>CRYSIN
   8.5210    9.5200   12.9810  99.2200  90.8600 115.0100   2 1

