# MOL2 file generated by ConQuest
# Please check atom types

@<TRIPOS>MOLECULE
JUVNAP
    26    26     1
SMALL
NO_CHARGES
****
Generated from CSD

@<TRIPOS>ATOM
      1 C1         2.5265   10.4925    6.7475 C.3       1 RES1    0.0000
      2 N1         2.8667   11.1124    5.3871 N.pl3     1 RES1    0.0000
      3 O1         4.0119   11.4676    5.2509 O.2       1 RES1    0.0000
      4 O2         2.0055   11.2108    4.5521 O.2       1 RES1    0.0000
      5 N2         1.0080   10.2517    6.6621 N.pl3     1 RES1    0.0000
      6 O3         0.2812   11.1526    7.0208 O.2       1 RES1    0.0000
      7 O4         0.6305    9.1763    6.2519 O.2       1 RES1    0.0000
      8 C2         2.8585   11.4856    7.8429 C.3       1 RES1    0.0000
      9 C3         3.2770    9.1833    6.8910 C.3       1 RES1    0.0000
     10 H1         2.3387   12.2571    7.7687 H         1 RES1    0.0000
     11 H2         3.0231    8.5633    6.2164 H         1 RES1    0.0000
     12 H3         3.7663   11.7394    7.7590 H         1 RES1    0.0000
     13 H4         4.1576    9.4060    6.7870 H         1 RES1    0.0000
     14 C3B        2.6337   10.8807    9.2283 C.3       1 RES1    0.0000
     15 C2B        3.0522    8.5784    8.2765 C.3       1 RES1    0.0000
     16 C1B        3.3842    9.5715    9.3718 C.3       1 RES1    0.0000
     17 H2B        2.8876   11.5007    9.9029 H         1 RES1    0.0000
     18 H4B        1.7531   10.6580    9.3323 H         1 RES1    0.0000
     19 H1B        3.5719    7.8069    8.3506 H         1 RES1    0.0000
     20 H3B        2.1443    8.3246    8.3603 H         1 RES1    0.0000
     21 N1B        3.0440    8.9516   10.7322 N.pl3     1 RES1    0.0000
     22 N2B        4.9027    9.8123    9.4572 N.pl3     1 RES1    0.0000
     23 O1B        1.8987    8.5964   10.8685 O.2       1 RES1    0.0000
     24 O2B        3.9051    8.8532   11.5672 O.2       1 RES1    0.0000
     25 O3B        5.6294    8.9114    9.0986 O.2       1 RES1    0.0000
     26 O4B        5.2802   10.8877    9.8674 O.2       1 RES1    0.0000
@<TRIPOS>BOND
     1    1    2 1
     2    2    3 2
     3    4    2 2
     4    5    1 1
     5    6    5 2
     6    7    5 2
     7    8    1 1
     8    9    1 1
     9   10    8 1
    10   11    9 1
    11   12    8 1
    12   13    9 1
    13   14    8 1
    14   15    9 1
    15   16   14 1
    16   17   14 1
    17   18   14 1
    18   19   15 1
    19   20   15 1
    20   21   16 1
    21   22   16 1
    22   23   21 2
    23   24   21 2
    24   25   22 2
    25   26   22 2
    26   15   16 1
@<TRIPOS>SUBSTRUCTURE
     1 RES1 1

@<TRIPOS>CRYSIN
   6.2990   10.0320    8.0620  90.0000  91.3800  90.0000 231 1

