# MOL2 file generated by ConQuest
# Please check atom types

@<TRIPOS>MOLECULE
JUWXEG
    27    29     1
SMALL
NO_CHARGES
****
Generated from CSD

@<TRIPOS>ATOM
      1 O1         1.7282   -2.3911    3.3595 O.3       1 RES1    0.0000
      2 O2        -4.1875   -0.2651    3.3465 O.2       1 RES1    0.0000
      3 O3        -4.6381    1.6457    2.3862 O.2       1 RES1    0.0000
      4 O4         2.3264    1.1469    0.4579 O.2       1 RES1    0.0000
      5 O5        -1.6808   -0.1441    2.6114 O.3       1 RES1    0.0000
      6 N1        -3.8647    0.7332    2.6983 N.pl3     1 RES1    0.0000
      7 C1         2.7788    0.1722    1.0364 C.2       1 RES1    0.0000
      8 C2         4.2565   -0.1859    0.9150 C.3       1 RES1    0.0000
      9 H1         4.7668    0.3674    1.5581 H         1 RES1    0.0000
     10 H2         4.5636    0.0550    0.0049 H         1 RES1    0.0000
     11 C3         4.5941   -1.6628    1.1683 C.3       1 RES1    0.0000
     12 H3         4.2218   -2.2151    0.4360 H         1 RES1    0.0000
     13 H4         5.5773   -1.7794    1.1698 H         1 RES1    0.0000
     14 C4         4.0267   -2.1430    2.5020 C.3       1 RES1    0.0000
     15 H5         4.0974   -3.1281    2.5683 H         1 RES1    0.0000
     16 H6         4.5325   -1.7409    3.2528 H         1 RES1    0.0000
     17 C5         2.6038   -1.7288    2.5655 C.2       1 RES1    0.0000
     18 C6         2.0004   -0.6925    1.9199 C.2       1 RES1    0.0000
     19 C7        -2.5213    0.8559    2.2524 C.2       1 RES1    0.0000
     20 C8        -1.9264    1.8119    1.5010 C.2       1 RES1    0.0000
     21 H7        -2.3182    2.6028    1.1501 H         1 RES1    0.0000
     22 C9         0.5145   -1.7519    3.2207 C.2       1 RES1    0.0000
     23 H8        -0.2831   -2.0082    3.6674 H         1 RES1    0.0000
     24 C10       -0.5824    1.3669    1.3534 C.2       1 RES1    0.0000
     25 H9         0.1075    1.8020    0.8671 H         1 RES1    0.0000
     26 C11       -0.4750    0.1914    2.0459 C.2       1 RES1    0.0000
     27 C12        0.6126   -0.7057    2.3580 C.2       1 RES1    0.0000
@<TRIPOS>BOND
     1    1   17 1
     2    2    6 2
     3    3    6 2
     4    4    7 2
     5    5   19 1
     6    6   19 1
     7    7    8 1
     8    8    9 1
     9   10    8 1
    10   11    8 1
    11   12   11 1
    12   13   11 1
    13   14   11 1
    14   15   14 1
    15   16   14 1
    16   17   14 1
    17   18    7 1
    18   19   20 2
    19   20   21 1
    20   22    1 1
    21   23   22 1
    22   24   20 1
    23   25   24 1
    24   26    5 1
    25   27   18 1
    26   17   18 2
    27   22   27 2
    28   24   26 2
    29   26   27 1
@<TRIPOS>SUBSTRUCTURE
     1 RES1 1

@<TRIPOS>CRYSIN
  11.5368    5.5005   16.5000  90.0000  94.3250  90.0000 231 1

