# MOL2 file generated by ConQuest
# Please check atom types

@<TRIPOS>MOLECULE
JUXBOV
    24    24     1
SMALL
NO_CHARGES
****
Generated from CSD

@<TRIPOS>ATOM
      1 O1         5.3724    7.7014    8.1118 O.3       1 RES1    0.0000
      2 O2         3.3880   10.3908    7.0875 O.2       1 RES1    0.0000
      3 O3        -0.2262    9.3762    1.4092 O.2       1 RES1    0.0000
      4 O4        -0.2585    7.2353    1.4752 O.2       1 RES1    0.0000
      5 N1         4.9005    9.0231    8.0364 N.am      1 RES1    0.0000
      6 H1         4.7422    9.3342    8.8214 H         1 RES1    0.0000
      7 N2         3.7403    8.3127    6.1793 N.am      1 RES1    0.0000
      8 H2         4.0569    7.5538    6.4172 H         1 RES1    0.0000
      9 N3         0.1237    8.3166    1.8894 N.pl3     1 RES1    0.0000
     10 C1         6.6946    7.6578    7.5468 C.3       1 RES1    0.0000
     11 H3         6.6547    7.8975    6.6178 H         1 RES1    0.0000
     12 H4         7.0508    6.7706    7.6343 H         1 RES1    0.0000
     13 H5         7.2616    8.2773    8.0126 H         1 RES1    0.0000
     14 C2         3.9498    9.2931    7.0908 C.2       1 RES1    0.0000
     15 C3         2.8351    8.3660    5.1023 C.ar      1 RES1    0.0000
     16 C4         2.5298    9.5459    4.4398 C.ar      1 RES1    0.0000
     17 H6         2.9333   10.3438    4.6962 H         1 RES1    0.0000
     18 C5         1.6252    9.5288    3.3977 C.ar      1 RES1    0.0000
     19 H7         1.3890   10.3191    2.9664 H         1 RES1    0.0000
     20 C6         1.0781    8.3360    3.0047 C.ar      1 RES1    0.0000
     21 C7         1.3964    7.1508    3.6187 C.ar      1 RES1    0.0000
     22 H8         1.0276    6.3487    3.3262 H         1 RES1    0.0000
     23 C8         2.2734    7.1768    4.6764 C.ar      1 RES1    0.0000
     24 H9         2.4915    6.3847    5.1116 H         1 RES1    0.0000
@<TRIPOS>BOND
     1    1    5 1
     2    2   14 2
     3    3    9 2
     4    4    9 2
     5    5    6 1
     6    7    8 1
     7    9   20 1
     8   10    1 1
     9   11   10 1
    10   12   10 1
    11   13   10 1
    12   14    5 1
    13   15    7 1
    14   16   15 ar
    15   17   16 1
    16   18   16 ar
    17   19   18 1
    18   20   18 ar
    19   21   20 ar
    20   22   21 1
    21   23   15 ar
    22   24   23 1
    23    7   14 1
    24   21   23 ar
@<TRIPOS>SUBSTRUCTURE
     1 RES1 1

@<TRIPOS>CRYSIN
  10.4233   10.2913    8.9662  90.0000  99.6590  90.0000  14 1

