# MOL2 file generated by ConQuest
# Please check atom types

@<TRIPOS>MOLECULE
JUXJET
    25    24     1
SMALL
NO_CHARGES
****
Generated from CSD

@<TRIPOS>ATOM
      1 O1         3.1767    0.4116    0.2022 O.3       1 RES1    0.0000
      2 O2         2.0511    0.1602    2.2003 O.3       1 RES1    0.0000
      3 O3         0.5456    2.2162    1.4918 O.2       1 RES1    0.0000
      4 N1         2.5196    1.0847    1.2503 N.am      1 RES1    0.0000
      5 N2         1.5927    2.3105   -0.5069 N.am      1 RES1    0.0000
      6 H1         1.0283    2.8652   -0.8441 H         1 RES1    0.0000
      7 H2         2.2551    2.0307   -0.9789 H         1 RES1    0.0000
      8 C1         1.4421    1.8876    0.7366 C.2       1 RES1    0.0000
      9 C2         4.6333    0.4439    0.3840 C.3       1 RES1    0.0000
     10 C3         5.1143    1.8692    0.3761 C.3       1 RES1    0.0000
     11 H3         4.8132    2.3042   -0.4260 H         1 RES1    0.0000
     12 H4         6.0745    1.8838    0.4064 H         1 RES1    0.0000
     13 H5         4.7621    2.3302    1.1411 H         1 RES1    0.0000
     14 C4         5.1058   -0.3052   -0.8480 C.3       1 RES1    0.0000
     15 H6         4.7417   -1.1929   -0.8422 H         1 RES1    0.0000
     16 H7         6.0644   -0.3527   -0.8451 H         1 RES1    0.0000
     17 H8         4.8106    0.1564   -1.6364 H         1 RES1    0.0000
     18 C5         5.0260   -0.2742    1.6599 C.3       1 RES1    0.0000
     19 H9         4.6960    0.2153    2.4171 H         1 RES1    0.0000
     20 H10        5.9827   -0.3362    1.7107 H         1 RES1    0.0000
     21 H11        4.6486   -1.1562    1.6589 H         1 RES1    0.0000
     22 C6         1.1316   -0.7959    1.6511 C.3       1 RES1    0.0000
     23 H12        1.5408   -1.2411    0.9047 H         1 RES1    0.0000
     24 H13        0.3370   -0.3438    1.3580 H         1 RES1    0.0000
     25 H14        0.9032   -1.4418    2.3233 H         1 RES1    0.0000
@<TRIPOS>BOND
     1    1    4 1
     2    2    4 1
     3    3    8 2
     4    4    8 1
     5    5    6 1
     6    7    5 1
     7    8    5 1
     8    9    1 1
     9   10    9 1
    10   11   10 1
    11   12   10 1
    12   13   10 1
    13   14    9 1
    14   15   14 1
    15   16   14 1
    16   17   14 1
    17   18    9 1
    18   19   18 1
    19   20   18 1
    20   21   18 1
    21   22    2 1
    22   23   22 1
    23   24   22 1
    24   25   22 1
@<TRIPOS>SUBSTRUCTURE
     1 RES1 1

@<TRIPOS>CRYSIN
  14.4290    6.3320   10.3340  90.0000 109.0200  90.0000  14 1

