# MOL2 file generated by ConQuest
# Please check atom types

@<TRIPOS>MOLECULE
JUXLEV
    12    11     1
SMALL
NO_CHARGES
****
Generated from CSD

@<TRIPOS>ATOM
      1 O1         1.1511    5.0366    0.4370 O.2       1 RES1    0.0000
      2 O2         3.6805    2.9585    1.5666 O.3       1 RES1    0.0000
      3 N1         2.3498    3.3840    1.3670 N.am      1 RES1    0.0000
      4 N2         3.2693    5.4802    1.0967 N.am      1 RES1    0.0000
      5 C1         2.2399    4.6703    0.9167 C.2       1 RES1    0.0000
      6 C2         3.7669    2.2013    2.7431 C.3       1 RES1    0.0000
      7 H1         3.2042    1.4271    2.6681 H         1 RES1    0.0000
      8 H2         3.4799    2.7345    3.4882 H         1 RES1    0.0000
      9 H3         4.6760    1.9245    2.8796 H         1 RES1    0.0000
     10 H4         1.9157    2.8014    0.8894 H         1 RES1    0.0000
     11 H5         4.0607    5.1403    1.3166 H         1 RES1    0.0000
     12 H6         3.1630    6.2643    0.7493 H         1 RES1    0.0000
@<TRIPOS>BOND
     1    1    5 2
     2    2    3 1
     3    3    5 1
     4    4    5 1
     5    6    2 1
     6    7    6 1
     7    8    6 1
     8    9    6 1
     9   10    3 1
    10   11    4 1
    11   12    4 1
@<TRIPOS>SUBSTRUCTURE
     1 RES1 1

@<TRIPOS>CRYSIN
   4.9905    6.8420    7.4120  77.3300  72.6000  72.0700   2 1

