# MOL2 file generated by ConQuest
# Please check atom types

@<TRIPOS>MOLECULE
JUYKIZ
    55    48     2
SMALL
NO_CHARGES
****
Generated from CSD

@<TRIPOS>ATOM
      1 N1         0.7524    6.0959    7.3977 N.2       1 RES1    0.0000
      2 O1         2.0822    5.6972    7.5165 O.3       1 RES1    0.0000
      3 N2         2.9127    6.3637    6.6362 N.2       1 RES1    0.0000
      4 O2         0.9191    9.5688    2.2720 O.2       1 RES1    0.0000
      5 C1         2.1188    7.1788    5.9767 C.2       1 RES1    0.0000
      6 O3         2.3675   10.6434    3.4737 O.2       1 RES1    0.0000
      7 C2         2.4774    8.1020    4.9223 C.2       1 RES1    0.0000
      8 C3         0.0276    8.5284    4.7775 C.2       1 RES1    0.0000
      9 C4         1.3862    8.7321    4.3733 C.2       1 RES1    0.0000
     10 C5         0.7765    6.9997    6.4454 C.2       1 RES1    0.0000
     11 C6        -1.2159    9.1814    4.2210 C.3       1 RES1    0.0000
     12 H1        -1.2706   10.1362    4.4805 H         1 RES1    0.0000
     13 H2        -1.2522    9.1099    3.2344 H         1 RES1    0.0000
     14 N3        -2.2837    8.3912    4.8554 N.3       1 RES1    0.0000
     15 C7        -1.7542    7.7823    6.0788 C.3       1 RES1    0.0000
     16 H3        -2.1312    6.8785    6.2194 H         1 RES1    0.0000
     17 H4        -1.9504    8.3436    6.8705 H         1 RES1    0.0000
     18 C8        -3.5259    9.1402    5.0503 C.3       1 RES1    0.0000
     19 H5        -4.2203    8.5390    5.3893 H         1 RES1    0.0000
     20 H6        -3.8137    9.5226    4.1951 H         1 RES1    0.0000
     21 H7        -3.3745    9.8610    5.6964 H         1 RES1    0.0000
     22 C9        -0.2822    7.7173    5.8177 C.2       1 RES1    0.0000
     23 C10        3.8733    8.2594    4.5156 C.2       1 RES1    0.0000
     24 C11        4.3808    8.2102    3.2277 C.2       1 RES1    0.0000
     25 N4         5.7404    8.4058    3.2679 N.3       1 RES1    0.0000
     26 C12        6.1353    8.5867    4.5800 C.ar      1 RES1    0.0000
     27 C13        7.4136    8.8247    5.0922 C.ar      1 RES1    0.0000
     28 H8         8.1739    8.8746    4.5248 H         1 RES1    0.0000
     29 C14        7.5233    8.9855    6.4638 C.ar      1 RES1    0.0000
     30 H9         8.3776    9.1470    6.8454 H         1 RES1    0.0000
     31 C15        6.3976    8.9156    7.3056 C.ar      1 RES1    0.0000
     32 H10        6.5074    9.0260    8.2429 H         1 RES1    0.0000
     33 C16        4.9889    8.5027    5.4043 C.ar      1 RES1    0.0000
     34 C17        5.1257    8.6886    6.7876 C.ar      1 RES1    0.0000
     35 H11        4.3672    8.6600    7.3584 H         1 RES1    0.0000
     36 C18        3.6995    7.9562    1.9239 C.3       1 RES1    0.0000
     37 H12        4.2136    7.2995    1.4092 H         1 RES1    0.0000
     38 H13        3.6402    8.7935    1.4176 H         1 RES1    0.0000
     39 H14        2.7973    7.6104    2.0879 H         1 RES1    0.0000
     40 C19        6.6184    8.4218    2.1047 C.3       1 RES1    0.0000
     41 H15        6.4548    7.6228    1.5607 H         1 RES1    0.0000
     42 H16        7.5530    8.4289    2.4001 H         1 RES1    0.0000
     43 H17        6.4384    9.2227    1.5699 H         1 RES1    0.0000
     44 N5         1.5836    9.7280    3.2988 N.pl3     1 RES1    0.0000
     45 C20       -1.2884    9.2172    4.6026 Du        2 SUP2    0.0000
     46 H18       -1.1414   10.1953    4.4813 Du        2 SUP2    0.0000
     47 H19       -1.7459    8.8760    3.7942 Du        2 SUP2    0.0000
     48 N6        -2.1242    8.9874    5.7893 Du        2 SUP2    0.0000
     49 C21       -1.7346    7.7603    6.4855 Du        2 SUP2    0.0000
     50 H20       -2.2961    6.9817    6.2437 Du        2 SUP2    0.0000
     51 H21       -1.7040    7.8676    7.4713 Du        2 SUP2    0.0000
     52 C22       -3.5747    9.0672    5.6068 Du        2 SUP2    0.0000
     53 H22       -4.0226    8.6655    6.3851 Du        2 SUP2    0.0000
     54 H23       -3.8323    8.5830    4.7985 Du        2 SUP2    0.0000
     55 H24       -3.8434   10.0068    5.5299 Du        2 SUP2    0.0000
@<TRIPOS>BOND
     1    1    2 1
     2    2    3 1
     3    3    5 2
     4    4   44 2
     5    5    7 1
     6    6   44 2
     7    7    9 2
     8    8    9 1
     9    9   44 1
    10   10    1 2
    11   11    8 1
    12   12   11 1
    13   13   11 1
    14   14   11 1
    15   15   14 1
    16   16   15 1
    17   17   15 1
    18   18   14 1
    19   19   18 1
    20   20   18 1
    21   21   18 1
    22   22    8 2
    23   23    7 1
    24   24   23 2
    25   25   24 1
    26   26   25 1
    27   27   26 ar
    28   28   27 1
    29   29   27 ar
    30   30   29 1
    31   31   29 ar
    32   32   31 1
    33   33   23 1
    34   34   31 ar
    35   35   34 1
    36   36   24 1
    37   37   36 1
    38   38   36 1
    39   39   36 1
    40   40   25 1
    41   41   40 1
    42   42   40 1
    43   43   40 1
    44    5   10 1
    45   10   22 1
    46   15   22 1
    47   26   33 ar
    48   33   34 ar
@<TRIPOS>SUBSTRUCTURE
     1 RES1 1
     2 SUP2 45

@<TRIPOS>CRYSIN
  14.6970   13.7570    8.5245  90.0000 100.9810  90.0000  14 1

