# MOL2 file generated by ConQuest
# Please check atom types

@<TRIPOS>MOLECULE
JUYKEV
    29    31     1
SMALL
USER_CHARGES
****
Generated from CSD

@<TRIPOS>ATOM
      1 O1         3.7715   12.8294    6.1085 O.2       1 RES1   -1.0000
      2 O2         5.9476    5.9680    6.0169 O.2       1 RES1    0.0000
      3 O3         3.5088    9.2928    3.4764 O.2       1 RES1    0.0000
      4 O4         5.4145   12.5245    7.6935 O.3       1 RES1    0.0000
      5 O5         7.8914    6.6988    6.6889 O.2       1 RES1    0.0000
      6 N1         6.2416   11.5174    8.1189 N.2       1 RES1    0.0000
      7 N2         6.6929    6.8645    6.4295 N.pl3     1 RES1    0.0000
      8 N3         4.5684   12.0278    6.5978 N.pl3     1 RES1    1.0000
      9 O6         2.5276   10.7303    4.8108 O.2       1 RES1    0.0000
     10 N4         3.4343    9.9405    4.5274 N.pl3     1 RES1    0.0000
     11 C1         5.0844    8.5044    5.5946 C.2       1 RES1    0.0000
     12 H1         4.8032    7.8141    5.0056 H         1 RES1    0.0000
     13 N5         8.9821    9.3068   10.2405 N.3       1 RES1    0.0000
     14 C2         4.5000    9.7229    5.5152 C.2       1 RES1    0.0000
     15 C3         5.9748   10.4623    7.3565 C.2       1 RES1    0.0000
     16 C4         7.5021    8.9102    8.6079 C.2       1 RES1    0.0000
     17 C5         6.5977    9.1452    7.4839 C.2       1 RES1    0.0000
     18 C6         6.1229    8.2335    6.5500 C.2       1 RES1    0.0000
     19 C7         4.9335   10.7489    6.4099 C.2       1 RES1    0.0000
     20 C8         7.6367    7.7209    9.4017 C.2       1 RES1    0.0000
     21 H2         7.1861    6.8961    9.2645 H         1 RES1    0.0000
     22 C9         8.5393    8.0041   10.3973 C.2       1 RES1    0.0000
     23 H3         8.8149    7.4042   11.0813 H         1 RES1    0.0000
     24 C10        8.3521    9.8672    9.1773 C.2       1 RES1    0.0000
     25 H4         8.4674   10.7591    8.8715 H         1 RES1    0.0000
     26 C11        9.9419    9.9927   11.1176 C.3       1 RES1    0.0000
     27 H5        10.4488   10.6498   10.5972 H         1 RES1    0.0000
     28 H6        10.5583    9.3369   11.5047 H         1 RES1    0.0000
     29 H7         9.4572   10.4498   11.8369 H         1 RES1    0.0000
@<TRIPOS>BOND
     1    1    8 1
     2    2    7 2
     3    3   10 2
     4    4    6 1
     5    5    7 2
     6    6   15 2
     7    7   18 1
     8    8    4 1
     9    9   10 2
    10   10   14 1
    11   11   12 1
    12   13   22 1
    13   14   11 2
    14   15   17 1
    15   16   17 1
    16   17   18 2
    17   18   11 1
    18   19    8 2
    19   20   16 1
    20   21   20 1
    21   22   20 2
    22   23   22 1
    23   24   13 1
    24   25   24 1
    25   26   13 1
    26   27   26 1
    27   28   26 1
    28   29   26 1
    29   14   19 1
    30   15   19 1
    31   16   24 2
@<TRIPOS>SUBSTRUCTURE
     1 RES1 1

@<TRIPOS>CRYSIN
   9.8400   12.4210    9.8490  90.0000  95.7440  90.0000  14 1

