# MOL2 file generated by ConQuest
# Please check atom types

@<TRIPOS>MOLECULE
KABDAS
    58    60     1
SMALL
NO_CHARGES
****
Generated from CSD

@<TRIPOS>ATOM
      1 C1         7.3275   -1.6568   -5.2750 C.3       1 RES1    0.0000
      2 C2         7.8084   -2.7338   -4.4038 C.3       1 RES1    0.0000
      3 C3         8.4388   -1.3609   -4.2735 C.3       1 RES1    0.0000
      4 C4         8.2478   -0.4714   -3.0556 C.3       1 RES1    0.0000
      5 C5         9.5895    0.2216   -2.9157 C.2       1 RES1    0.0000
      6 C6        10.4612   -0.3121   -3.9046 C.2       1 RES1    0.0000
      7 C7         9.8119   -1.1567   -4.6741 C.2       1 RES1    0.0000
      8 C8         7.6220   -1.7024   -6.7504 C.3       1 RES1    0.0000
      9 C9         6.8168   -2.7692   -7.4054 C.2       1 RES1    0.0000
     10 C10        5.8886   -2.6428   -8.3243 C.2       1 RES1    0.0000
     11 C11        5.3725   -1.4160   -8.9444 C.2       1 RES1    0.0000
     12 O1         5.9325   -0.3426   -8.9571 O.2       1 RES1    0.0000
     13 O2         4.2070   -1.6496   -9.5612 O.3       1 RES1    0.0000
     14 C12        5.9916   -1.0339   -4.9793 C.3       1 RES1    0.0000
     15 C13        3.4373   -0.6421  -10.2798 C.3       1 RES1    0.0000
     16 C14        2.1827   -1.3675  -10.6423 C.3       1 RES1    0.0000
     17 C15        3.0917    0.5091   -9.3609 C.3       1 RES1    0.0000
     18 C16        4.1798   -0.2833  -11.5135 C.3       1 RES1    0.0000
     19 N1         9.9270    1.1495   -2.0763 N.2       1 RES1    0.0000
     20 N2         8.9526    1.5334   -1.1733 N.3       1 RES1    0.0000
     21 C17        9.1581    2.6176   -0.4293 C.ar      1 RES1    0.0000
     22 C18        8.2287    3.0603    0.5851 C.ar      1 RES1    0.0000
     23 C19        8.4307    4.2325    1.2814 C.ar      1 RES1    0.0000
     24 C20        9.5694    4.9645    1.0652 C.ar      1 RES1    0.0000
     25 C21       10.4993    4.5626    0.1367 C.ar      1 RES1    0.0000
     26 C22       10.2890    3.4089   -0.6073 C.ar      1 RES1    0.0000
     27 N3         7.0513    2.2984    0.8998 N.pl3     1 RES1    0.0000
     28 O3         6.8038    1.2573    0.3148 O.2       1 RES1    0.0000
     29 O4         6.2980    2.7219    1.7711 O.2       1 RES1    0.0000
     30 N4         9.7719    6.1703    1.8219 N.pl3     1 RES1    0.0000
     31 O5         8.9008    6.5698    2.5660 O.2       1 RES1    0.0000
     32 O6        10.8462    6.7813    1.6693 O.2       1 RES1    0.0000
     33 H1         7.2468   -3.0687   -3.7043 H         1 RES1    0.0000
     34 H2         8.3176   -3.4574   -4.7822 H         1 RES1    0.0000
     35 H3         8.0471   -0.9943   -2.2766 H         1 RES1    0.0000
     36 H4         7.5457    0.1665   -3.2019 H         1 RES1    0.0000
     37 H5        11.3902   -0.0869   -4.0000 H         1 RES1    0.0000
     38 H6        10.2110   -1.5963   -5.4277 H         1 RES1    0.0000
     39 H7         8.5566   -1.8821   -6.8808 H         1 RES1    0.0000
     40 H8         7.4017   -0.8542   -7.1415 H         1 RES1    0.0000
     41 H9         7.0079   -3.6671   -7.1256 H         1 RES1    0.0000
     42 H10        5.4919   -3.4616   -8.6296 H         1 RES1    0.0000
     43 H11        5.8155   -1.0375   -4.0350 H         1 RES1    0.0000
     44 H12        5.3137   -1.5388   -5.4340 H         1 RES1    0.0000
     45 H13        5.9851   -0.1294   -5.3005 H         1 RES1    0.0000
     46 H14        1.6430   -0.7164  -11.0970 H         1 RES1    0.0000
     47 H15        1.7211   -1.6742   -9.8601 H         1 RES1    0.0000
     48 H16        2.3466   -2.1103  -11.2274 H         1 RES1    0.0000
     49 H17        2.3246    1.0776   -9.4563 H         1 RES1    0.0000
     50 H18        3.8888    1.0237   -9.4976 H         1 RES1    0.0000
     51 H19        3.1040    0.1330   -8.4770 H         1 RES1    0.0000
     52 H20        3.5208    0.3007  -11.8951 H         1 RES1    0.0000
     53 H21        4.4394   -0.9416  -12.1622 H         1 RES1    0.0000
     54 H22        4.9485    0.2288  -11.2528 H         1 RES1    0.0000
     55 H23        7.7771    4.5350    1.9173 H         1 RES1    0.0000
     56 H24       11.2967    5.0801    0.0064 H         1 RES1    0.0000
     57 H25       10.9427    3.1507   -1.2655 H         1 RES1    0.0000
     58 H26        8.2762    0.9267   -1.2337 H         1 RES1    0.0000
@<TRIPOS>BOND
     1    1    2 1
     2    2    3 1
     3    3    1 1
     4    4    3 1
     5    5    4 1
     6    6    5 1
     7    7    3 1
     8    8    1 1
     9    9    8 1
    10   10    9 2
    11   11   10 1
    12   12   11 2
    13   13   11 1
    14   14    1 1
    15   15   13 1
    16   16   15 1
    17   17   15 1
    18   18   15 1
    19   19    5 2
    20   20   19 1
    21   21   20 1
    22   22   21 ar
    23   23   22 ar
    24   24   23 ar
    25   25   24 ar
    26   26   21 ar
    27   27   22 1
    28   28   27 2
    29   29   27 2
    30   30   24 1
    31   31   30 2
    32   32   30 2
    33   33    2 1
    34   34    2 1
    35   35    4 1
    36   36    4 1
    37   37    6 1
    38   38    7 1
    39   39    8 1
    40   40    8 1
    41   41    9 1
    42   42   10 1
    43   43   14 1
    44   44   14 1
    45   45   14 1
    46   46   16 1
    47   47   16 1
    48   48   16 1
    49   49   17 1
    50   50   17 1
    51   51   17 1
    52   52   18 1
    53   53   18 1
    54   54   18 1
    55   55   23 1
    56   56   25 1
    57   57   26 1
    58   58   20 1
    59    6    7 2
    60   25   26 ar
@<TRIPOS>SUBSTRUCTURE
     1 RES1 1

@<TRIPOS>CRYSIN
  12.0290    5.9900   33.5000  90.0000 108.3500  90.0000  14 1

