# MOL2 file generated by ConQuest
# Please check atom types

@<TRIPOS>MOLECULE
KABGIF
    39    40     1
SMALL
NO_CHARGES
****
Generated from CSD

@<TRIPOS>ATOM
      1 O1         1.4289    4.1553    5.1264 O.2       1 RES1    0.0000
      2 O2         1.4598    2.5037    6.5004 O.2       1 RES1    0.0000
      3 O3         9.3122   -1.0378   -3.6137 O.3       1 RES1    0.0000
      4 O4         8.7753    1.3674   -4.6848 O.3       1 RES1    0.0000
      5 O5        10.7325    1.8737   -3.7285 O.2       1 RES1    0.0000
      6 N1         5.0641    0.1351    1.9833 N.pl3     1 RES1    0.0000
      7 H1         5.2453   -0.6776    2.2003 H         1 RES1    0.0000
      8 N2         5.5834    0.6544    0.8293 N.2       1 RES1    0.0000
      9 N3         1.7911    3.0341    5.4381 N.pl3     1 RES1    0.0000
     10 C1         3.9065    0.3458    4.0391 C.ar      1 RES1    0.0000
     11 H2         4.2117   -0.4983    4.2849 H         1 RES1    0.0000
     12 C2         3.1117    1.0572    4.8914 C.ar      1 RES1    0.0000
     13 H3         2.8818    0.7026    5.7195 H         1 RES1    0.0000
     14 C3         2.6504    2.3020    4.5219 C.ar      1 RES1    0.0000
     15 C4         2.9742    2.8375    3.2875 C.ar      1 RES1    0.0000
     16 H4         2.6454    3.6716    3.0376 H         1 RES1    0.0000
     17 C5         3.7816    2.1317    2.4361 C.ar      1 RES1    0.0000
     18 H5         4.0093    2.4928    1.6093 H         1 RES1    0.0000
     19 C6         4.2626    0.8834    2.7979 C.ar      1 RES1    0.0000
     20 C7         6.3759   -0.1077    0.1807 C.2       1 RES1    0.0000
     21 H6         6.5486   -0.9613    0.5067 H         1 RES1    0.0000
     22 C8         7.0176    0.3207   -1.0530 C.ar      1 RES1    0.0000
     23 C9         7.8619   -0.5659   -1.7049 C.ar      1 RES1    0.0000
     24 H7         8.0153   -1.4051   -1.3340 H         1 RES1    0.0000
     25 C10        8.4797   -0.2281   -2.8954 C.ar      1 RES1    0.0000
     26 C11        8.2350    1.0234   -3.4248 C.ar      1 RES1    0.0000
     27 C12        7.4075    1.9127   -2.8020 C.ar      1 RES1    0.0000
     28 H8         7.2545    2.7486   -3.1785 H         1 RES1    0.0000
     29 C13        6.7952    1.5676   -1.6088 C.ar      1 RES1    0.0000
     30 H9         6.2350    2.1739   -1.1806 H         1 RES1    0.0000
     31 C14        9.5445   -2.3450   -3.1074 C.3       1 RES1    0.0000
     32 H10       10.1476   -2.8118   -3.6902 H         1 RES1    0.0000
     33 H11        8.7130   -2.8221   -3.0590 H         1 RES1    0.0000
     34 H12        9.9309   -2.2841   -2.2305 H         1 RES1    0.0000
     35 C15       10.0593    1.7897   -4.7077 C.2       1 RES1    0.0000
     36 C16       10.4828    2.1329   -6.0968 C.3       1 RES1    0.0000
     37 H13        9.8527    2.7456   -6.4814 H         1 RES1    0.0000
     38 H14       10.5171    1.3331   -6.6272 H         1 RES1    0.0000
     39 H15       11.3529    2.5398   -6.0753 H         1 RES1    0.0000
@<TRIPOS>BOND
     1    1    9 2
     2    2    9 2
     3    3   25 1
     4    4   26 1
     5    5   35 2
     6    6    7 1
     7    8    6 1
     8    9   14 1
     9   10   11 1
    10   12   10 ar
    11   13   12 1
    12   14   12 ar
    13   15   14 ar
    14   16   15 1
    15   17   15 ar
    16   18   17 1
    17   19    6 1
    18   20    8 2
    19   21   20 1
    20   22   20 1
    21   23   22 ar
    22   24   23 1
    23   25   23 ar
    24   26   25 ar
    25   27   26 ar
    26   28   27 1
    27   29   22 ar
    28   30   29 1
    29   31    3 1
    30   32   31 1
    31   33   31 1
    32   34   31 1
    33   35    4 1
    34   36   35 1
    35   37   36 1
    36   38   36 1
    37   39   36 1
    38   10   19 ar
    39   17   19 ar
    40   27   29 ar
@<TRIPOS>SUBSTRUCTURE
     1 RES1 1

@<TRIPOS>CRYSIN
   8.5983   14.6982   13.2096  90.0000 107.8600  90.0000  14 1

