# MOL2 file generated by ConQuest
# Please check atom types

@<TRIPOS>MOLECULE
KABNUY
    61    64     1
SMALL
NO_CHARGES
****
Generated from CSD

@<TRIPOS>ATOM
      1 O1         4.3515   10.2705    8.6521 O.3       1 RES1    0.0000
      2 O2         1.0006    2.1528    6.5867 O.2       1 RES1    0.0000
      3 O3         0.4944   -4.8643    7.4244 O.2       1 RES1    0.0000
      4 O4         2.0524   -4.6901    5.9333 O.2       1 RES1    0.0000
      5 N1         2.8405    8.3428    9.7824 N.3       1 RES1    0.0000
      6 N2         2.1592    5.6951    8.8998 N.3       1 RES1    0.0000
      7 N3         1.6076    1.9815    8.7702 N.am      1 RES1    0.0000
      8 N4         3.5739    0.7813    9.1703 N.ar      1 RES1    0.0000
      9 N5         1.2836   -4.2053    6.7549 N.pl3     1 RES1    0.0000
     10 C1         3.4430   10.7013    9.5771 C.ar      1 RES1    0.0000
     11 C2         3.2944   12.0296    9.9525 C.ar      1 RES1    0.0000
     12 H1         3.8253   12.6997    9.5385 H         1 RES1    0.0000
     13 C3         2.3722   12.3823   10.9317 C.ar      1 RES1    0.0000
     14 H2         2.2761   13.2922   11.1864 H         1 RES1    0.0000
     15 C4         1.5993   11.4201   11.5322 C.ar      1 RES1    0.0000
     16 H3         0.9723   11.6619   12.2043 H         1 RES1    0.0000
     17 C5         1.7389   10.0819   11.1503 C.ar      1 RES1    0.0000
     18 H4         1.1990    9.4204   11.5680 H         1 RES1    0.0000
     19 C6         2.6481    9.6976   10.1764 C.ar      1 RES1    0.0000
     20 C7         2.2872    7.3527   10.7007 C.3       1 RES1    0.0000
     21 H5         1.3017    7.4396   10.7296 H         1 RES1    0.0000
     22 H6         2.6372    7.5140   11.6132 H         1 RES1    0.0000
     23 C8         2.6607    5.9530   10.2522 C.3       1 RES1    0.0000
     24 H7         3.6452    5.8527   10.2652 H         1 RES1    0.0000
     25 H8         2.2764    5.2911   10.8802 H         1 RES1    0.0000
     26 C9         2.7813    6.6604    7.9958 C.3       1 RES1    0.0000
     27 H9         2.4826    6.4887    7.0673 H         1 RES1    0.0000
     28 H10        3.7650    6.5600    8.0274 H         1 RES1    0.0000
     29 C10        2.3995    8.0684    8.4021 C.3       1 RES1    0.0000
     30 H11        2.8202    8.7177    7.7839 H         1 RES1    0.0000
     31 H12        1.4173    8.1764    8.3399 H         1 RES1    0.0000
     32 C11        2.4181    4.3133    8.4910 C.3       1 RES1    0.0000
     33 H13        3.2840    4.0130    8.8646 H         1 RES1    0.0000
     34 H14        2.4731    4.2627    7.5041 H         1 RES1    0.0000
     35 C12        1.3058    3.4044    8.9871 C.3       1 RES1    0.0000
     36 H15        1.1641    3.5631    9.9540 H         1 RES1    0.0000
     37 H16        0.4653    3.6329    8.5156 H         1 RES1    0.0000
     38 C13        2.4809    1.3359    9.6928 C.ar      1 RES1    0.0000
     39 C14        2.1903    1.3367   11.0500 C.ar      1 RES1    0.0000
     40 H17        1.4070    1.7591   11.3822 H         1 RES1    0.0000
     41 C15        3.0773    0.7013   11.9060 C.ar      1 RES1    0.0000
     42 H18        2.9171    0.6918   12.8419 H         1 RES1    0.0000
     43 C16        4.1973    0.0821   11.3815 C.ar      1 RES1    0.0000
     44 H19        4.8074   -0.3800   11.9445 H         1 RES1    0.0000
     45 C17        4.4058    0.1533   10.0166 C.ar      1 RES1    0.0000
     46 H20        5.1802   -0.2653    9.6578 H         1 RES1    0.0000
     47 C18        1.3628    1.4547    7.5231 C.2       1 RES1    0.0000
     48 C19        1.4140   -0.0365    7.3715 C.ar      1 RES1    0.0000
     49 C20        0.8218   -0.8676    8.3199 C.ar      1 RES1    0.0000
     50 H21        0.4646   -0.4948    9.1181 H         1 RES1    0.0000
     51 C21        0.7507   -2.2361    8.1051 C.ar      1 RES1    0.0000
     52 H22        0.3226   -2.8061    8.7328 H         1 RES1    0.0000
     53 C22        1.3183   -2.7473    6.9557 C.ar      1 RES1    0.0000
     54 C23        1.9251   -1.9517    6.0014 C.ar      1 RES1    0.0000
     55 H23        2.3163   -2.3330    5.2249 H         1 RES1    0.0000
     56 C24        1.9463   -0.5819    6.2090 C.ar      1 RES1    0.0000
     57 H24        2.3273   -0.0109    5.5524 H         1 RES1    0.0000
     58 C25        5.1318   11.2619    7.9950 C.3       1 RES1    0.0000
     59 H25        4.5414   11.8605    7.4915 H         1 RES1    0.0000
     60 H26        5.7600   10.8289    7.3798 H         1 RES1    0.0000
     61 H27        5.6308   11.7783    8.6612 H         1 RES1    0.0000
@<TRIPOS>BOND
     1    1   10 1
     2    2   47 2
     3    3    9 2
     4    4    9 2
     5    5   19 1
     6    6   23 1
     7    7   35 1
     8    8   38 ar
     9    9   53 1
    10   10   11 ar
    11   11   12 1
    12   13   11 ar
    13   14   13 1
    14   15   13 ar
    15   16   15 1
    16   17   15 ar
    17   18   17 1
    18   19   10 ar
    19   20    5 1
    20   21   20 1
    21   22   20 1
    22   23   20 1
    23   24   23 1
    24   25   23 1
    25   26    6 1
    26   27   26 1
    27   28   26 1
    28   29    5 1
    29   30   29 1
    30   31   29 1
    31   32    6 1
    32   33   32 1
    33   34   32 1
    34   35   32 1
    35   36   35 1
    36   37   35 1
    37   38    7 1
    38   39   38 ar
    39   40   39 1
    40   41   39 ar
    41   42   41 1
    42   43   41 ar
    43   44   43 1
    44   45    8 ar
    45   46   45 1
    46   47    7 1
    47   48   47 1
    48   49   48 ar
    49   50   49 1
    50   51   49 ar
    51   52   51 1
    52   53   51 ar
    53   54   53 ar
    54   55   54 1
    55   56   48 ar
    56   57   56 1
    57   58    1 1
    58   59   58 1
    59   60   58 1
    60   61   58 1
    61   17   19 ar
    62   26   29 1
    63   43   45 ar
    64   54   56 ar
@<TRIPOS>SUBSTRUCTURE
     1 RES1 1

@<TRIPOS>CRYSIN
  11.4800   15.5120   13.2350  90.0000 108.5050  90.0000 231 1

