# MOL2 file generated by ConQuest
# Please check atom types

@<TRIPOS>MOLECULE
KABQUZ
    38    39     1
SMALL
NO_CHARGES
****
Generated from CSD

@<TRIPOS>ATOM
      1 C1         9.1215    1.0715   11.7573 C.2       1 RES1    0.0000
      2 N1         8.9355    2.3683   12.0347 N.3       1 RES1    0.0000
      3 O1         7.7980    2.9350   12.2299 O.2       1 RES1    0.0000
      4 C2        10.2404    3.0960   12.1664 C.3       1 RES1    0.0000
      5 C3        10.5994    3.0340   13.6878 C.3       1 RES1    0.0000
      6 C4        10.0923    4.5265   11.8019 C.3       1 RES1    0.0000
      7 C5         8.0846    0.0346   11.7573 C.ar      1 RES1    0.0000
      8 C6         7.9840   -0.8525   10.6803 C.ar      1 RES1    0.0000
      9 C7         6.9963   -1.8282   10.6944 C.ar      1 RES1    0.0000
     10 C8         6.1236   -1.9272   11.7573 C.ar      1 RES1    0.0000
     11 C9         6.8522   -2.7982    9.5586 C.2       1 RES1    0.0000
     12 O2         6.0359   -3.6732    9.5351 O.co2     1 RES1    0.0000
     13 O3         7.7095   -2.5881    8.5687 O.co2     1 RES1    0.0000
     14 H1        11.4238    3.4816   13.8359 H         1 RES1    0.0000
     15 H2         9.9144    3.4559   14.1934 H         1 RES1    0.0000
     16 H3        10.6791    2.1260   13.9582 H         1 RES1    0.0000
     17 H4        10.9303    4.9644   11.8913 H         1 RES1    0.0000
     18 H5         9.7952    4.5941   10.9013 H         1 RES1    0.0000
     19 H6         9.4571    4.9363   12.3757 H         1 RES1    0.0000
     20 H7         8.5853   -0.7881    9.9490 H         1 RES1    0.0000
     21 H8         5.4515   -2.5985   11.7573 H         1 RES1    0.0000
     22 C2D       11.1460    2.1904   11.3481 C.3       1 RES1    0.0000
     23 N1D       10.4183    0.8855   11.4798 N.pl3     1 RES1    0.0000
     24 C7D        6.2218   -1.0537   12.8201 C.ar      1 RES1    0.0000
     25 C6D        7.1975   -0.0660   12.8342 C.ar      1 RES1    0.0000
     26 H7D        7.2619    0.5353   13.5655 H         1 RES1    0.0000
     27 C9D        5.2518   -1.1978   13.9559 C.2       1 RES1    0.0000
     28 O2D        4.3768   -2.0141   13.9794 O.co2     1 RES1    0.0000
     29 O3D        5.4619   -0.3405   14.9458 O.co2     1 RES1    0.0000
     30 O1D       10.9850   -0.2520   11.2846 O.2       1 RES1    0.0000
     31 C3D       11.0840    2.5494    9.8267 C.3       1 RES1    0.0000
     32 H1D       11.5316    3.3738    9.6786 H         1 RES1    0.0000
     33 H2D       11.5059    1.8644    9.3211 H         1 RES1    0.0000
     34 H3D       10.1760    2.6291    9.5563 H         1 RES1    0.0000
     35 C4D       12.5765    2.0423   11.7126 C.3       1 RES1    0.0000
     36 H4D       13.0144    2.8803   11.6232 H         1 RES1    0.0000
     37 H5D       12.6441    1.7452   12.6132 H         1 RES1    0.0000
     38 H6D       12.9863    1.4071   11.1388 H         1 RES1    0.0000
@<TRIPOS>BOND
     1    1    2 1
     2    2    3 1
     3    4    2 1
     4    5    4 1
     5    6    4 1
     6    7    1 1
     7    8    7 ar
     8    9    8 ar
     9   10    9 ar
    10   11    9 1
    11   12   11 2
    12   13   11 1
    13   14    5 1
    14   15    5 1
    15   16    5 1
    16   17    6 1
    17   18    6 1
    18   19    6 1
    19   20    8 1
    20   21   10 1
    21   22    4 1
    22   23    1 2
    23   24   10 ar
    24   25    7 ar
    25   26   25 1
    26   27   24 1
    27   28   27 2
    28   29   27 1
    29   30   23 1
    30   31   22 1
    31   32   31 1
    32   33   31 1
    33   34   31 1
    34   35   22 1
    35   36   35 1
    36   37   35 1
    37   38   35 1
    38   22   23 1
    39   24   25 ar
@<TRIPOS>SUBSTRUCTURE
     1 RES1 1

@<TRIPOS>CRYSIN
   8.0500    8.0500   23.5145  90.0000  90.0000  90.0000  92 1

