# MOL2 file generated by ConQuest
# Please check atom types

@<TRIPOS>MOLECULE
KABQAH
    56    58     1
SMALL
NO_CHARGES
****
Generated from CSD

@<TRIPOS>ATOM
      1 O1        -0.6633    6.5852   10.2801 O.2       1 RES1    0.0000
      2 O2         0.8971    9.3032    6.6802 O.2       1 RES1    0.0000
      3 O3         2.9634    9.8954    6.4717 O.2       1 RES1    0.0000
      4 O4         1.0729    4.3266   15.2959 O.2       1 RES1    0.0000
      5 O5         1.9792    6.2551   14.6767 O.3       1 RES1    0.0000
      6 N1         4.8165    8.3038    7.5102 N.3       1 RES1    0.0000
      7 H1         4.5769    8.8937    6.8330 H         1 RES1    0.0000
      8 N2         2.0812    9.2000    7.0081 N.pl3     1 RES1    0.0000
      9 C1         3.9791    6.7701    9.1706 C.ar      1 RES1    0.0000
     10 H2         4.8480    6.4343    9.2980 H         1 RES1    0.0000
     11 C2         3.7826    7.8047    8.2091 C.ar      1 RES1    0.0000
     12 C3         2.4443    8.2403    8.0300 C.ar      1 RES1    0.0000
     13 C4         1.4178    7.7434    8.8072 C.ar      1 RES1    0.0000
     14 H3         0.5489    8.0837    8.6914 H         1 RES1    0.0000
     15 C5         1.6384    6.7588    9.7516 C.ar      1 RES1    0.0000
     16 C6         2.9485    6.2392    9.9223 C.ar      1 RES1    0.0000
     17 C7         0.4925    6.2528   10.5260 C.2       1 RES1    0.0000
     18 C8         0.7736    5.2829   11.6419 C.3       1 RES1    0.0000
     19 H4         0.5190    4.3822   11.3511 H         1 RES1    0.0000
     20 H5         0.2172    5.5166   12.4142 H         1 RES1    0.0000
     21 C9         2.2370    5.2716   12.0712 C.3       1 RES1    0.0000
     22 H6         2.4294    6.1882   12.3879 H         1 RES1    0.0000
     23 C10        2.4584    4.3402   13.3087 C.3       1 RES1    0.0000
     24 C11        3.9625    4.3187   13.6634 C.3       1 RES1    0.0000
     25 H7         4.2278    5.2012   13.9967 H         1 RES1    0.0000
     26 H8         4.1142    3.6675   14.3801 H         1 RES1    0.0000
     27 C12        4.8273    3.9568   12.4712 C.3       1 RES1    0.0000
     28 H9         4.5902    3.0595   12.1566 H         1 RES1    0.0000
     29 H10        5.7692    3.9443   12.7429 H         1 RES1    0.0000
     30 C13        4.6366    4.9664   11.3315 C.3       1 RES1    0.0000
     31 H11        5.2112    4.7123   10.5782 H         1 RES1    0.0000
     32 H12        4.9193    5.8535   11.6392 H         1 RES1    0.0000
     33 C14        3.1781    5.0413   10.8480 C.3       1 RES1    0.0000
     34 C15        6.1730    7.7332    7.4962 C.3       1 RES1    0.0000
     35 H13        6.4433    7.5313    8.4155 H         1 RES1    0.0000
     36 H14        6.7965    8.4014    7.1414 H         1 RES1    0.0000
     37 C16        6.2775    6.4638    6.6581 C.3       1 RES1    0.0000
     38 H15        6.0685    6.6714    5.7232 H         1 RES1    0.0000
     39 H16        5.6225    5.8081    6.9770 H         1 RES1    0.0000
     40 C17        7.6779    5.8648    6.7445 C.3       1 RES1    0.0000
     41 H17        8.3321    6.5364    6.4962 H         1 RES1    0.0000
     42 H18        7.7443    5.1093    6.1391 H         1 RES1    0.0000
     43 H19        7.8479    5.5688    7.6526 H         1 RES1    0.0000
     44 C18        1.7454    4.9505   14.5230 C.2       1 RES1    0.0000
     45 C19        1.4436    6.8540   15.8794 C.3       1 RES1    0.0000
     46 H20        0.4759    6.7939   15.8672 H         1 RES1    0.0000
     47 H21        1.7089    7.7865   15.9220 H         1 RES1    0.0000
     48 H22        1.7876    6.3833   16.6564 H         1 RES1    0.0000
     49 C20        1.9112    2.9233   13.1405 C.3       1 RES1    0.0000
     50 H23        2.0306    2.4310   13.9683 H         1 RES1    0.0000
     51 H24        2.3896    2.4753   12.4264 H         1 RES1    0.0000
     52 H25        0.9676    2.9642   12.9214 H         1 RES1    0.0000
     53 C21        2.8622    3.7912   10.0075 C.3       1 RES1    0.0000
     54 H26        3.4078    3.7934    9.2067 H         1 RES1    0.0000
     55 H27        1.9245    3.7968    9.7606 H         1 RES1    0.0000
     56 H28        3.0546    2.9948   10.5274 H         1 RES1    0.0000
@<TRIPOS>BOND
     1    1   17 2
     2    2    8 2
     3    3    8 2
     4    4   44 2
     5    5   44 1
     6    6    7 1
     7    8   12 1
     8    9   10 1
     9   11    6 1
    10   12   11 ar
    11   13   12 ar
    12   14   13 1
    13   15   13 ar
    14   16    9 ar
    15   17   15 1
    16   18   17 1
    17   19   18 1
    18   20   18 1
    19   21   18 1
    20   22   21 1
    21   23   21 1
    22   24   23 1
    23   25   24 1
    24   26   24 1
    25   27   24 1
    26   28   27 1
    27   29   27 1
    28   30   27 1
    29   31   30 1
    30   32   30 1
    31   33   16 1
    32   34    6 1
    33   35   34 1
    34   36   34 1
    35   37   34 1
    36   38   37 1
    37   39   37 1
    38   40   37 1
    39   41   40 1
    40   42   40 1
    41   43   40 1
    42   44   23 1
    43   45    5 1
    44   46   45 1
    45   47   45 1
    46   48   45 1
    47   49   23 1
    48   50   49 1
    49   51   49 1
    50   52   49 1
    51   53   33 1
    52   54   53 1
    53   55   53 1
    54   56   53 1
    55    9   11 ar
    56   15   16 ar
    57   21   33 1
    58   30   33 1
@<TRIPOS>SUBSTRUCTURE
     1 RES1 1

@<TRIPOS>CRYSIN
   8.2915   11.3440   20.2880  90.0000  90.0000  90.0000  19 1

