# MOL2 file generated by ConQuest
# Please check atom types

@<TRIPOS>MOLECULE
KABWUF
    19    20     1
SMALL
NO_CHARGES
****
Generated from CSD

@<TRIPOS>ATOM
      1 O1        -0.3318   -1.1519    2.0201 O.3       1 RES1    0.0000
      2 N1        -0.1810   -1.3598    3.4480 N.2       1 RES1    0.0000
      3 C1         0.4799   -0.3260    3.7284 C.2       1 RES1    0.0000
      4 C2         0.8909    0.0059    4.9872 C.2       1 RES1    0.0000
      5 N2         1.5721    1.1331    5.0488 N.pl3     1 RES1    0.0000
      6 C3         0.5191   -0.7525    6.2257 C.3       1 RES1    0.0000
      7 O2         2.1389    1.7845    6.0904 O.2       1 RES1    0.0000
      8 N3         0.3298   -0.0270    1.5031 N.2       1 RES1    0.0000
      9 C4         0.8018    0.4423    2.4838 C.2       1 RES1    0.0000
     10 C5         1.5454    1.6107    2.5244 C.2       1 RES1    0.0000
     11 N4         1.9541    2.0353    3.7622 N.pl3     1 RES1    0.0000
     12 C6         1.8692    2.4295    1.3295 C.3       1 RES1    0.0000
     13 O3         2.7023    3.0263    4.1815 O.2       1 RES1    0.0000
     14 H1        -0.2169   -1.5431    6.2595 H         1 RES1    0.0000
     15 H2         0.0782    0.1645    6.5887 H         1 RES1    0.0000
     16 H3         1.3606   -1.0180    6.8480 H         1 RES1    0.0000
     17 H4         1.6113    2.0095    0.3690 H         1 RES1    0.0000
     18 H5         2.9399    2.5528    1.3933 H         1 RES1    0.0000
     19 H6         1.3881    3.3905    1.4437 H         1 RES1    0.0000
@<TRIPOS>BOND
     1    1    2 1
     2    2    3 2
     3    3    4 1
     4    4    5 2
     5    5    7 1
     6    6    4 1
     7    8    1 1
     8    9    3 1
     9   10    9 1
    10   11    5 1
    11   12   10 1
    12   13   11 1
    13   14    6 1
    14   15    6 1
    15   16    6 1
    16   17   12 1
    17   18   12 1
    18   19   12 1
    19    8    9 2
    20   10   11 2
@<TRIPOS>SUBSTRUCTURE
     1 RES1 1

@<TRIPOS>CRYSIN
   8.8870    5.8740    7.7790  90.0000 104.9600  90.0000   4 1

