# MOL2 file generated by ConQuest
# Please check atom types

@<TRIPOS>MOLECULE
KACGIH
    52    54     1
SMALL
NO_CHARGES
****
Generated from CSD

@<TRIPOS>ATOM
      1 O1        11.5366    2.8171    3.1185 O.2       1 RES1    0.0000
      2 O2        10.7414    3.8407    1.3978 O.2       1 RES1    0.0000
      3 O3        13.0306    9.8949    8.6165 O.3       1 RES1    0.0000
      4 O4        13.1503    5.7554    1.0434 O.3       1 RES1    0.0000
      5 H1        13.4726    5.8972    0.3028 H         1 RES1    0.0000
      6 O5         9.1180    9.2971    2.2565 O.3       1 RES1    0.0000
      7 O6        10.2265    9.9369    4.0888 O.2       1 RES1    0.0000
      8 N1        12.9107    7.5196    7.0796 N.3       1 RES1    0.0000
      9 N2        11.2599    3.8576    2.5332 N.pl3     1 RES1    0.0000
     10 C1         9.2651   10.0173    3.3955 C.2       1 RES1    0.0000
     11 C2        14.4970    4.4950    6.2774 C.ar      1 RES1    0.0000
     12 H2        14.7695    4.7849    5.4370 H         1 RES1    0.0000
     13 C3        15.0940    3.3841    6.8460 C.ar      1 RES1    0.0000
     14 H3        15.7651    2.9328    6.3873 H         1 RES1    0.0000
     15 C4        14.7007    2.9511    8.0790 C.ar      1 RES1    0.0000
     16 H4        15.1006    2.2025    8.4588 H         1 RES1    0.0000
     17 C5        13.7187    3.6159    8.7535 C.ar      1 RES1    0.0000
     18 H5        13.4562    3.3194    9.5949 H         1 RES1    0.0000
     19 C6        13.1129    4.7243    8.1983 C.ar      1 RES1    0.0000
     20 H6        12.4431    5.1690    8.6656 H         1 RES1    0.0000
     21 C7        13.5001    5.1779    6.9458 C.ar      1 RES1    0.0000
     22 C8        12.8612    6.3797    6.3479 C.2       1 RES1    0.0000
     23 C9        14.0425    7.8177    7.9601 C.3       1 RES1    0.0000
     24 H7        14.7415    8.2563    7.4515 H         1 RES1    0.0000
     25 H8        14.4033    6.9896    8.3149 H         1 RES1    0.0000
     26 C10       13.6187    8.6967    9.0833 C.3       1 RES1    0.0000
     27 H9        12.9811    8.2219    9.6389 H         1 RES1    0.0000
     28 H10       14.3910    8.9112    9.6309 H         1 RES1    0.0000
     29 C11       11.8928    9.5950    7.8342 C.3       1 RES1    0.0000
     30 H11       11.4948   10.4239    7.5255 H         1 RES1    0.0000
     31 H12       11.2393    9.1415    8.3888 H         1 RES1    0.0000
     32 C12       12.2084    8.7377    6.6531 C.3       1 RES1    0.0000
     33 H13       11.3860    8.4966    6.1984 H         1 RES1    0.0000
     34 H14       12.7627    9.2318    6.0306 H         1 RES1    0.0000
     35 C13       12.2480    6.3305    5.1179 C.2       1 RES1    0.0000
     36 H15       11.9934    7.1360    4.7295 H         1 RES1    0.0000
     37 C14       11.9800    5.1508    4.4093 C.2       1 RES1    0.0000
     38 H16       12.1428    4.3396    4.8344 H         1 RES1    0.0000
     39 C15       11.4980    5.1190    3.1433 C.2       1 RES1    0.0000
     40 C16       11.2659    6.3229    2.3135 C.ar      1 RES1    0.0000
     41 C17       12.1421    6.6338    1.2745 C.ar      1 RES1    0.0000
     42 C18       11.9773    7.8035    0.5512 C.ar      1 RES1    0.0000
     43 H17       12.5431    7.9902   -0.1629 H         1 RES1    0.0000
     44 C19       10.9763    8.6934    0.8857 C.ar      1 RES1    0.0000
     45 H18       10.8696    9.4827    0.4047 H         1 RES1    0.0000
     46 C20       10.1437    8.4024    1.9324 C.ar      1 RES1    0.0000
     47 C21       10.2630    7.2209    2.6354 C.ar      1 RES1    0.0000
     48 H19        9.6704    7.0285    3.3255 H         1 RES1    0.0000
     49 C22        8.0733   10.8758    3.6143 C.3       1 RES1    0.0000
     50 H20        8.1883   11.3830    4.4207 H         1 RES1    0.0000
     51 H21        7.2914   10.3234    3.6923 H         1 RES1    0.0000
     52 H22        7.9701   11.4748    2.8719 H         1 RES1    0.0000
@<TRIPOS>BOND
     1    1    9 2
     2    2    9 2
     3    3   26 1
     4    4    5 1
     5    6   10 1
     6    7   10 2
     7    8   22 1
     8    9   39 1
     9   10   49 1
    10   11   12 1
    11   13   11 ar
    12   14   13 1
    13   15   13 ar
    14   16   15 1
    15   17   15 ar
    16   18   17 1
    17   19   17 ar
    18   20   19 1
    19   21   11 ar
    20   22   21 1
    21   23    8 1
    22   24   23 1
    23   25   23 1
    24   26   23 1
    25   27   26 1
    26   28   26 1
    27   29    3 1
    28   30   29 1
    29   31   29 1
    30   32    8 1
    31   33   32 1
    32   34   32 1
    33   35   22 2
    34   36   35 1
    35   37   35 1
    36   38   37 1
    37   39   37 2
    38   40   39 1
    39   41    4 1
    40   42   41 ar
    41   43   42 1
    42   44   42 ar
    43   45   44 1
    44   46    6 1
    45   47   40 ar
    46   48   47 1
    47   49   50 1
    48   51   49 1
    49   52   49 1
    50   19   21 ar
    51   29   32 1
    52   40   41 ar
    53   44   46 ar
    54   46   47 ar
@<TRIPOS>SUBSTRUCTURE
     1 RES1 1

@<TRIPOS>CRYSIN
  10.4217   10.6970   11.3310  68.2230  65.3910  66.0660   2 1

