# MOL2 file generated by ConQuest
# Please check atom types

@<TRIPOS>MOLECULE
KACNIN
    45    47     1
SMALL
NO_CHARGES
****
Generated from CSD

@<TRIPOS>ATOM
      1 O1         9.6020   17.3893   12.0277 O.2       1 RES1    0.0000
      2 O2         7.7918   18.0243   11.0653 O.2       1 RES1    0.0000
      3 O3         5.8935   11.5634   10.0472 O.3       1 RES1    0.0000
      4 O4         3.6827   11.5223    8.7780 O.3       1 RES1    0.0000
      5 O5         5.0027    4.6655    5.9120 O.3       1 RES1    0.0000
      6 N1         8.5415   17.1496   11.4614 N.pl3     1 RES1    0.0000
      7 N2         4.3224    5.4897    8.6324 N.2       1 RES1    0.0000
      8 C1         8.1695   15.7524   11.2463 C.ar      1 RES1    0.0000
      9 C2         9.0130   14.7700   11.7197 C.ar      1 RES1    0.0000
     10 H1         9.8439   15.0093   12.1989 H         1 RES1    0.0000
     11 C3         8.6674   13.4540   11.5131 C.ar      1 RES1    0.0000
     12 H2         9.2644   12.7400   11.8279 H         1 RES1    0.0000
     13 C4         7.4995   13.1240   10.8294 C.ar      1 RES1    0.0000
     14 C5         6.6701   14.1345   10.3669 C.ar      1 RES1    0.0000
     15 H3         5.9012   13.8973    9.9063 H         1 RES1    0.0000
     16 C6         6.9932   15.4681   10.5787 C.ar      1 RES1    0.0000
     17 H4         6.4134   16.1798   10.2449 H         1 RES1    0.0000
     18 C7         7.2012   11.6675   10.6105 C.3       1 RES1    0.0000
     19 H5         7.2271   11.2057   11.4580 H         1 RES1    0.0000
     20 H6         7.8750   11.2701    9.9810 H         1 RES1    0.0000
     21 C8         5.4387   10.3100    9.7394 C.ar      1 RES1    0.0000
     22 C9         4.2192   10.2919    9.0337 C.ar      1 RES1    0.0000
     23 C10        3.6752    9.0817    8.6596 C.ar      1 RES1    0.0000
     24 H7         2.8665    9.0545    8.1475 H         1 RES1    0.0000
     25 C11        4.3186    7.8804    8.9776 C.ar      1 RES1    0.0000
     26 C12        5.5088    7.9164    9.6901 C.ar      1 RES1    0.0000
     27 H8         5.9518    7.1241    9.9063 H         1 RES1    0.0000
     28 C13        6.0686    9.1259   10.0684 C.ar      1 RES1    0.0000
     29 H9         6.8940    9.1225   10.5015 H         1 RES1    0.0000
     30 C14        3.7730    6.6244    8.4619 C.2       1 RES1    0.0000
     31 H10        2.9480    6.6850    7.9138 H         1 RES1    0.0000
     32 C15        3.6994    4.3571    7.9305 C.3       1 RES1    0.0000
     33 H11        3.5420    3.5877    8.5968 H         1 RES1    0.0000
     34 H12        2.7833    4.6173    7.4692 H         1 RES1    0.0000
     35 C16        4.6395    3.7999    6.9194 C.2       1 RES1    0.0000
     36 C17        5.2710    2.6284    6.7565 C.2       1 RES1    0.0000
     37 H13        5.1604    1.8851    7.3644 H         1 RES1    0.0000
     38 C18        6.0815    2.7481    5.5841 C.2       1 RES1    0.0000
     39 H14        6.6948    2.0319    5.1983 H         1 RES1    0.0000
     40 C19        5.8894    3.9874    5.1141 C.2       1 RES1    0.0000
     41 H15        6.1885    4.4312    4.3213 H         1 RES1    0.0000
     42 C20        2.5851   11.5622    7.8675 C.3       1 RES1    0.0000
     43 H16        2.8788   11.1413    7.0343 H         1 RES1    0.0000
     44 H17        1.8140   11.0816    8.2523 H         1 RES1    0.0000
     45 H18        2.3916   12.5217    7.7716 H         1 RES1    0.0000
@<TRIPOS>BOND
     1    1    6 2
     2    2    6 2
     3    3   18 1
     4    4   22 1
     5    5   35 1
     6    6    8 1
     7    7   30 2
     8    8    9 ar
     9    9   10 1
    10   11    9 ar
    11   12   11 1
    12   13   11 ar
    13   14   13 ar
    14   15   14 1
    15   16    8 ar
    16   17   16 1
    17   18   13 1
    18   19   18 1
    19   20   18 1
    20   21    3 1
    21   22   21 ar
    22   23   22 ar
    23   24   23 1
    24   25   23 ar
    25   26   25 ar
    26   27   26 1
    27   28   21 ar
    28   29   28 1
    29   30   25 1
    30   31   30 1
    31   32    7 1
    32   33   32 1
    33   34   32 1
    34   35   32 1
    35   36   35 2
    36   37   36 1
    37   38   36 1
    38   39   38 1
    39   40    5 1
    40   41   40 1
    41   42    4 1
    42   43   42 1
    43   44   42 1
    44   45   42 1
    45   14   16 ar
    46   26   28 ar
    47   38   40 2
@<TRIPOS>SUBSTRUCTURE
     1 RES1 1

@<TRIPOS>CRYSIN
  12.0422   11.9311   13.3770  90.0000 115.7650  90.0000  14 1

