# MOL2 file generated by ConQuest
# Please check atom types

@<TRIPOS>MOLECULE
KACSEN
    28    29     1
SMALL
NO_CHARGES
****
Generated from CSD

@<TRIPOS>ATOM
      1 O1         5.6912   -0.3800    5.0178 O.2       1 RES1    0.0000
      2 C1         6.0692    0.7709    4.8615 C.2       1 RES1    0.0000
      3 O2         5.1584    1.7052    4.6061 O.3       1 RES1    0.0000
      4 C2         5.6259    3.0287    4.1766 C.3       1 RES1    0.0000
      5 H1         4.8776    3.6588    4.2408 H         1 RES1    0.0000
      6 O3         6.0168    2.9427    2.8506 O.3       1 RES1    0.0000
      7 H2         5.3701    3.0775    2.3658 H         1 RES1    0.0000
      8 C3         6.7565    3.5325    5.0511 C.3       1 RES1    0.0000
      9 C4         7.8644    2.5030    5.0375 C.ar      1 RES1    0.0000
     10 C5         9.2127    2.8037    5.1384 C.ar      1 RES1    0.0000
     11 H3         9.4756    3.6942    5.1984 H         1 RES1    0.0000
     12 C6        10.1823    1.8079    5.1511 C.ar      1 RES1    0.0000
     13 H4        11.0863    2.0194    5.2078 H         1 RES1    0.0000
     14 C7         9.7625    0.5046    5.0776 C.ar      1 RES1    0.0000
     15 N1        10.7928   -0.5771    5.0550 N.pl3     1 RES1    0.0000
     16 O4        11.9551   -0.2468    5.1394 O.2       1 RES1    0.0000
     17 O5        10.3978   -1.7203    4.9914 O.2       1 RES1    0.0000
     18 C8         8.4421    0.1601    4.9821 C.ar      1 RES1    0.0000
     19 H5         8.1883   -0.7338    4.9334 H         1 RES1    0.0000
     20 C9         7.4937    1.1576    4.9586 C.ar      1 RES1    0.0000
     21 C10        7.2169    4.8880    4.5044 C.3       1 RES1    0.0000
     22 H6         6.4852    5.5089    4.5313 H         1 RES1    0.0000
     23 H7         7.5155    4.7835    3.5979 H         1 RES1    0.0000
     24 H8         7.9394    5.2208    5.0424 H         1 RES1    0.0000
     25 C11        6.2291    3.6984    6.4837 C.3       1 RES1    0.0000
     26 H9         5.5260    4.3522    6.4923 H         1 RES1    0.0000
     27 H10        6.9429    3.9891    7.0558 H         1 RES1    0.0000
     28 H11        5.8896    2.8585    6.7989 H         1 RES1    0.0000
@<TRIPOS>BOND
     1    1    2 2
     2    2    3 1
     3    3    4 1
     4    4    5 1
     5    6    4 1
     6    7    6 1
     7    8    4 1
     8    9    8 1
     9   10    9 ar
    10   11   10 1
    11   12   10 ar
    12   13   12 1
    13   14   12 ar
    14   15   14 1
    15   16   15 2
    16   17   15 2
    17   18   14 ar
    18   19   18 1
    19   20    2 1
    20   21    8 1
    21   22   21 1
    22   23   21 1
    23   24   21 1
    24   25    8 1
    25   26   25 1
    26   27   25 1
    27   28   25 1
    28    9   20 ar
    29   18   20 ar
@<TRIPOS>SUBSTRUCTURE
     1 RES1 1

@<TRIPOS>CRYSIN
  19.3650    8.4247   13.4640  90.0000  92.6200  90.0000  15 1

