# MOL2 file generated by ConQuest
# Please check atom types

@<TRIPOS>MOLECULE
KADZEU
    29    30     1
SMALL
NO_CHARGES
****
Generated from CSD

@<TRIPOS>ATOM
      1 C1         0.4709    7.4312    2.8148 C.ar      1 RES1    0.0000
      2 C2         1.5998    8.0130    3.4017 C.ar      1 RES1    0.0000
      3 C3         1.7737    9.3898    3.3682 C.ar      1 RES1    0.0000
      4 C4         0.8450   10.1927    2.7462 C.ar      1 RES1    0.0000
      5 C5        -0.2773    9.6456    2.1662 C.ar      1 RES1    0.0000
      6 C6        -0.4544    8.2761    2.2081 C.ar      1 RES1    0.0000
      7 O1         2.5164    7.2022    4.0023 O.3       1 RES1    0.0000
      8 C7         0.1948    5.9729    2.7378 C.2       1 RES1    0.0000
      9 O2        -0.9364    5.5418    2.4764 O.2       1 RES1    0.0000
     10 N1         1.2400    5.1422    2.9390 N.am      1 RES1    0.0000
     11 C8         1.2907    3.7415    2.8956 C.ar      1 RES1    0.0000
     12 C9         0.2773    2.9410    2.4070 C.ar      1 RES1    0.0000
     13 C10        0.4555    1.5724    2.3704 C.ar      1 RES1    0.0000
     14 C11        1.6119    1.0253    2.8217 C.ar      1 RES1    0.0000
     15 C12        2.6209    1.7972    3.3201 C.ar      1 RES1    0.0000
     16 C13        2.4636    3.1650    3.3453 C.ar      1 RES1    0.0000
     17 N2         1.7814   -0.4331    2.7744 N.pl3     1 RES1    0.0000
     18 O3         0.9265   -1.1002    2.2454 O.2       1 RES1    0.0000
     19 O4         2.7783   -0.9050    3.2653 O.2       1 RES1    0.0000
     20 H1         3.1579    7.6664    4.3445 H         1 RES1    0.0000
     21 H2         1.9695    5.5191    3.1708 H         1 RES1    0.0000
     22 H3         2.5384    9.7773    3.7737 H         1 RES1    0.0000
     23 H4         0.9771   11.1333    2.7180 H         1 RES1    0.0000
     24 H5        -0.9199   10.1994    1.7409 H         1 RES1    0.0000
     25 H6        -1.2312    7.8984    1.8110 H         1 RES1    0.0000
     26 H7        -0.5336    3.3271    2.0983 H         1 RES1    0.0000
     27 H8        -0.2333    1.0121    2.0297 H         1 RES1    0.0000
     28 H9         3.4175    1.3952    3.6479 H         1 RES1    0.0000
     29 H10        3.1645    3.7130    3.6746 H         1 RES1    0.0000
@<TRIPOS>BOND
     1    1    2 ar
     2    2    3 ar
     3    3    4 ar
     4    4    5 ar
     5    5    6 ar
     6    6    1 ar
     7    7    2 1
     8    8    1 1
     9    9    8 2
    10   10    8 1
    11   11   10 1
    12   12   11 ar
    13   13   12 ar
    14   14   13 ar
    15   15   14 ar
    16   16   11 ar
    17   17   14 1
    18   18   17 2
    19   19   17 2
    20   20    7 1
    21   21   10 1
    22   22    3 1
    23   23    4 1
    24   24    5 1
    25   25    6 1
    26   26   12 1
    27   27   13 1
    28   28   15 1
    29   29   16 1
    30   15   16 ar
@<TRIPOS>SUBSTRUCTURE
     1 RES1 1

@<TRIPOS>CRYSIN
  11.0030   27.9590    7.6220  90.0000  90.0000  90.0000  61 1

