# MOL2 file generated by ConQuest
# Please check atom types

@<TRIPOS>MOLECULE
KAGDEB
    33    34     1
SMALL
NO_CHARGES
****
Generated from CSD

@<TRIPOS>ATOM
      1 C1         4.3232   -1.1109   11.1029 C.2       1 RES1    0.0000
      2 C2         3.5921   -0.7149    9.9907 C.2       1 RES1    0.0000
      3 C3         2.5285    0.3146   10.0478 C.ar      1 RES1    0.0000
      4 C4         1.2004   -0.0257    9.8922 C.ar      1 RES1    0.0000
      5 C5         0.2144    0.9375    9.8956 C.ar      1 RES1    0.0000
      6 C6         0.5384    2.2453   10.0513 C.ar      1 RES1    0.0000
      7 C7         1.8540    2.6177   10.2277 C.ar      1 RES1    0.0000
      8 C8         2.8421    1.6545   10.2243 C.ar      1 RES1    0.0000
      9 C9         3.9726   -0.5383   12.4244 C.ar      1 RES1    0.0000
     10 C10        2.8023   -0.9043   13.0489 C.ar      1 RES1    0.0000
     11 C11        2.4873   -0.4045   14.2977 C.ar      1 RES1    0.0000
     12 C12        3.3232    0.4741   14.9100 C.ar      1 RES1    0.0000
     13 C13        4.4901    0.8647   14.3029 C.ar      1 RES1    0.0000
     14 C14        4.8106    0.3446   13.0540 C.ar      1 RES1    0.0000
     15 N1         5.3280   -1.9842   11.0805 N.3       1 RES1    0.0000
     16 C15        6.0319   -2.5043   12.2342 C.3       1 RES1    0.0000
     17 N2         3.8511   -1.2596    8.7350 N.pl3     1 RES1    0.0000
     18 O1         3.1654   -0.8904    7.7577 O.2       1 RES1    0.0000
     19 O2         4.7512   -2.1254    8.5707 O.2       1 RES1    0.0000
     20 H1         0.9986   -0.8883    9.7382 H         1 RES1    0.0000
     21 H2        -0.6913    0.5993    9.6171 H         1 RES1    0.0000
     22 H3        -0.0489    2.9431   10.1187 H         1 RES1    0.0000
     23 H4         2.1298    3.5745   10.3609 H         1 RES1    0.0000
     24 H5         3.7778    1.8836   10.3090 H         1 RES1    0.0000
     25 H6         2.2276   -1.5197   12.6614 H         1 RES1    0.0000
     26 H7         1.6410   -0.6635   14.7543 H         1 RES1    0.0000
     27 H8         3.1354    0.8562   15.6711 H         1 RES1    0.0000
     28 H9         5.0906    1.5304   14.7889 H         1 RES1    0.0000
     29 H10        5.5794    0.6849   12.6441 H         1 RES1    0.0000
     30 H11        5.5305   -2.3865   10.2398 H         1 RES1    0.0000
     31 H12        5.3490   -2.7825   12.9209 H         1 RES1    0.0000
     32 H13        6.5780   -1.8407   12.6787 H         1 RES1    0.0000
     33 H14        6.4034   -3.3711   12.0733 H         1 RES1    0.0000
@<TRIPOS>BOND
     1    1    2 2
     2    2    3 1
     3    3    4 ar
     4    4    5 ar
     5    5    6 ar
     6    6    7 ar
     7    7    8 ar
     8    8    3 ar
     9    9    1 1
    10   10    9 ar
    11   11   10 ar
    12   12   11 ar
    13   13   12 ar
    14   14    9 ar
    15   15    1 1
    16   16   15 1
    17   17    2 1
    18   18   17 2
    19   19   17 2
    20   20    4 1
    21   21    5 1
    22   22    6 1
    23   23    7 1
    24   24    8 1
    25   25   10 1
    26   26   11 1
    27   27   12 1
    28   28   13 1
    29   29   14 1
    30   30   15 1
    31   31   16 1
    32   32   16 1
    33   33   16 1
    34   13   14 ar
@<TRIPOS>SUBSTRUCTURE
     1 RES1 1

@<TRIPOS>CRYSIN
   6.9830   10.7020   17.2970  90.0000  90.0000  90.0000  19 1

