# MOL2 file generated by ConQuest
# Please check atom types

@<TRIPOS>MOLECULE
KAGTET
    73    76     1
SMALL
NO_CHARGES
****
Generated from CSD

@<TRIPOS>ATOM
      1 C1        -2.5195    1.0130   11.0038 C.3       1 RES1    0.0000
      2 H1        -3.4488    1.2958   10.8143 H         1 RES1    0.0000
      3 C2        -1.5647    1.8209   10.0747 C.3       1 RES1    0.0000
      4 H2        -1.0450    2.4481   10.6362 H         1 RES1    0.0000
      5 C3        -0.5840    0.7783    9.4781 C.3       1 RES1    0.0000
      6 H3        -0.3615    0.9809    8.5357 H         1 RES1    0.0000
      7 C4        -1.3129   -0.5263    9.6089 C.ar      1 RES1    0.0000
      8 C5        -1.0627   -1.7329    8.9687 C.ar      1 RES1    0.0000
      9 H4        -0.3861   -1.7985    8.3191 H         1 RES1    0.0000
     10 C6        -1.8211   -2.8308    9.3024 C.ar      1 RES1    0.0000
     11 H5        -1.6633   -3.6525    8.8749 H         1 RES1    0.0000
     12 C7        -2.8187   -2.7369   10.2628 C.ar      1 RES1    0.0000
     13 H6        -3.3071   -3.5040   10.5051 H         1 RES1    0.0000
     14 C8        -3.1018   -1.5258   10.8709 C.ar      1 RES1    0.0000
     15 H7        -3.7909   -1.4591   11.5069 H         1 RES1    0.0000
     16 C9        -2.3513   -0.4088   10.5230 C.ar      1 RES1    0.0000
     17 C10       -2.2646    1.1731   12.5159 C.3       1 RES1    0.0000
     18 H8        -2.6232    0.3607   12.9518 H         1 RES1    0.0000
     19 O1        -0.8681    1.2231   12.8257 O.3       1 RES1    0.0000
     20 H9        -0.4342    0.8895   12.2023 H         1 RES1    0.0000
     21 C11       -2.9569    2.3797   13.1864 C.3       1 RES1    0.0000
     22 C12       -2.5307    2.4241   14.6550 C.3       1 RES1    0.0000
     23 H10       -2.9944    3.1482   15.1050 H         1 RES1    0.0000
     24 H11       -1.5732    2.5705   14.7088 H         1 RES1    0.0000
     25 H12       -2.7537    1.5815   15.0822 H         1 RES1    0.0000
     26 C13       -4.4749    2.1866   13.1252 C.3       1 RES1    0.0000
     27 H13       -4.9106    2.8855   13.6372 H         1 RES1    0.0000
     28 H14       -4.7058    1.3203   13.4976 H         1 RES1    0.0000
     29 H15       -4.7700    2.2310   12.2023 H         1 RES1    0.0000
     30 C14       -2.5747    3.7007   12.5075 C.3       1 RES1    0.0000
     31 H16       -2.8893    3.6950   11.5895 H         1 RES1    0.0000
     32 H17       -1.6100    3.8027   12.5172 H         1 RES1    0.0000
     33 H18       -2.9824    4.4392   12.9846 H         1 RES1    0.0000
     34 C15       -2.2616    2.6217    8.9907 C.ar      1 RES1    0.0000
     35 C16       -3.3940    2.1788    8.3313 C.ar      1 RES1    0.0000
     36 H19       -3.7644    1.3432    8.5514 H         1 RES1    0.0000
     37 C17       -3.9876    2.9609    7.3447 C.ar      1 RES1    0.0000
     38 H20       -4.7592    2.6488    6.9084 H         1 RES1    0.0000
     39 C18       -3.4632    4.1774    7.0006 C.ar      1 RES1    0.0000
     40 H21       -3.8759    4.7036    6.3398 H         1 RES1    0.0000
     41 C19       -2.3302    4.6180    7.6309 C.ar      1 RES1    0.0000
     42 H22       -1.9555    5.4478    7.3957 H         1 RES1    0.0000
     43 C20       -1.7331    3.8433    8.6167 C.ar      1 RES1    0.0000
     44 H23       -0.9540    4.1568    9.0388 H         1 RES1    0.0000
     45 O2         0.5870    0.8776   10.3448 O.3       1 RES1    0.0000
     46 N1         1.7791    0.2427    9.8034 N.3       1 RES1    0.0000
     47 C21        2.6457    1.3365    9.2653 C.3       1 RES1    0.0000
     48 C22        3.9396    0.6757    8.7979 C.3       1 RES1    0.0000
     49 H24        3.7380    0.0881    8.0398 H         1 RES1    0.0000
     50 H25        4.5531    1.3709    8.4816 H         1 RES1    0.0000
     51 C23        4.6324   -0.1338    9.8681 C.3       1 RES1    0.0000
     52 H26        5.4262   -0.5696    9.4933 H         1 RES1    0.0000
     53 H27        4.9209    0.4553   10.5963 H         1 RES1    0.0000
     54 C24        3.6774   -1.1718   10.3954 C.3       1 RES1    0.0000
     55 H28        4.1131   -1.6631   11.1221 H         1 RES1    0.0000
     56 H29        3.4788   -1.8116    9.6800 H         1 RES1    0.0000
     57 C25        2.3621   -0.5869   10.9141 C.3       1 RES1    0.0000
     58 C26        2.9270    2.5032   10.2244 C.3       1 RES1    0.0000
     59 H30        2.1016    2.7696   10.6604 H         1 RES1    0.0000
     60 H31        3.2849    3.2543    9.7242 H         1 RES1    0.0000
     61 H32        3.5706    2.2229   10.8941 H         1 RES1    0.0000
     62 C27        1.9446    1.9144    8.0213 C.3       1 RES1    0.0000
     63 H33        1.6669    1.1881    7.4399 H         1 RES1    0.0000
     64 H34        2.5579    2.4938    7.5439 H         1 RES1    0.0000
     65 H35        1.1654    2.4236    8.2963 H         1 RES1    0.0000
     66 C28        1.3909   -1.7476   11.1549 C.3       1 RES1    0.0000
     67 H36        0.5406   -1.3987   11.4655 H         1 RES1    0.0000
     68 H37        1.7590   -2.3436   11.8261 H         1 RES1    0.0000
     69 H38        1.2574   -2.2359   10.3270 H         1 RES1    0.0000
     70 C29        2.5856    0.1404   12.2486 C.3       1 RES1    0.0000
     71 H39        3.3778    0.6969   12.1852 H         1 RES1    0.0000
     72 H40        2.7034   -0.5125   12.9561 H         1 RES1    0.0000
     73 H41        1.8157    0.6969   12.4474 H         1 RES1    0.0000
@<TRIPOS>BOND
     1    1    2 1
     2    3    1 1
     3    4    3 1
     4    5    3 1
     5    6    5 1
     6    7    5 1
     7    8    7 ar
     8    9    8 1
     9   10    8 ar
    10   11   10 1
    11   12   10 ar
    12   13   12 1
    13   14   12 ar
    14   15   14 1
    15   16    1 1
    16   17    1 1
    17   18   17 1
    18   19   17 1
    19   20   19 1
    20   21   17 1
    21   22   21 1
    22   23   22 1
    23   24   22 1
    24   25   22 1
    25   26   21 1
    26   27   26 1
    27   28   26 1
    28   29   26 1
    29   30   21 1
    30   31   30 1
    31   32   30 1
    32   33   30 1
    33   34    3 1
    34   35   34 ar
    35   36   35 1
    36   37   35 ar
    37   38   37 1
    38   39   37 ar
    39   40   39 1
    40   41   39 ar
    41   42   41 1
    42   43   34 ar
    43   44   43 1
    44   45    5 1
    45   46   45 1
    46   47   46 1
    47   48   47 1
    48   49   48 1
    49   50   48 1
    50   51   48 1
    51   52   51 1
    52   53   51 1
    53   54   51 1
    54   55   54 1
    55   56   54 1
    56   57   46 1
    57   58   47 1
    58   59   58 1
    59   60   58 1
    60   61   58 1
    61   62   47 1
    62   63   62 1
    63   64   62 1
    64   65   62 1
    65   66   57 1
    66   67   66 1
    67   68   66 1
    68   69   66 1
    69   70   57 1
    70   71   70 1
    71   72   70 1
    72   73   70 1
    73    7   16 ar
    74   14   16 ar
    75   41   43 ar
    76   54   57 1
@<TRIPOS>SUBSTRUCTURE
     1 RES1 1

@<TRIPOS>CRYSIN
  11.0522   16.3205   14.3821  90.0000  97.7720  90.0000 231 1

