# MOL2 file generated by ConQuest
# Please check atom types

@<TRIPOS>MOLECULE
KAHHUY
    15    15     1
SMALL
NO_CHARGES
****
Generated from CSD

@<TRIPOS>ATOM
      1 C1         1.3586    0.6306    1.8980 C.2       1 RES1    0.0000
      2 C2         1.7858    1.9674    2.0007 C.2       1 RES1    0.0000
      3 C3         3.1892    1.8968    1.8551 C.2       1 RES1    0.0000
      4 N1         3.4520    0.5834    1.6826 N.pl3     1 RES1    0.0000
      5 H1         4.2154    0.2187    1.5421 H         1 RES1    0.0000
      6 N2         2.3388   -0.2107    1.7075 N.2       1 RES1    0.0000
      7 N3         0.0080    0.0963    1.9168 N.pl3     1 RES1    0.0000
      8 O1        -0.8391    0.6784    1.2469 O.2       1 RES1    0.0000
      9 O2        -0.1907   -0.8985    2.5910 O.2       1 RES1    0.0000
     10 N4         1.0617    3.1195    2.3146 N.pl3     1 RES1    0.0000
     11 O3         1.6713    4.1967    2.2701 O.2       1 RES1    0.0000
     12 O4        -0.1172    3.0223    2.6583 O.2       1 RES1    0.0000
     13 N5         4.1132    2.8527    1.8720 N.3       1 RES1    0.0000
     14 H2         3.8933    3.6880    1.9396 H         1 RES1    0.0000
     15 H3         4.9506    2.6678    1.8779 H         1 RES1    0.0000
@<TRIPOS>BOND
     1    1    2 1
     2    2    3 2
     3    3    4 1
     4    4    5 1
     5    6    1 2
     6    7    1 1
     7    8    7 2
     8    9    7 2
     9   10    2 1
    10   11   10 2
    11   12   10 2
    12   13    3 1
    13   14   13 1
    14   15   13 1
    15    4    6 1
@<TRIPOS>SUBSTRUCTURE
     1 RES1 1

@<TRIPOS>CRYSIN
   7.2132   12.4258    7.1598  90.0000 106.8140  90.0000  14 1

