# MOL2 file generated by ConQuest
# Please check atom types

@<TRIPOS>MOLECULE
KAHJEI
    25    24     1
SMALL
USER_CHARGES
****
Generated from CSD

@<TRIPOS>ATOM
      1 O1         4.5071   -1.2058    8.4552 O.3       1 RES1    0.0000
      2 O2         1.5732    4.0820    7.1442 O.3       1 RES1    0.0000
      3 O3         4.3413    1.2481    8.2392 O.2       1 RES1   -1.0000
      4 O4         1.3249    1.6259    7.1573 O.2       1 RES1   -1.0000
      5 N1         3.3400   -0.6686    8.9283 N.2       1 RES1    0.0000
      6 N2         2.0268    3.4636    8.2775 N.2       1 RES1    0.0000
      7 N3         3.3938    0.5929    8.7581 N.pl3     1 RES1    1.0000
      8 N4         1.8287    2.2221    8.1485 N.pl3     1 RES1    1.0000
      9 C1         4.5286   -2.6122    8.8030 C.3       1 RES1    0.0000
     10 C2         2.2383    1.3718    9.3258 C.3       1 RES1    0.0000
     11 C3         1.7946    5.5074    7.2863 C.3       1 RES1    0.0000
     12 C4         1.0676    0.4993    9.7241 C.3       1 RES1    0.0000
     13 C5         2.7564    2.1976   10.4890 C.3       1 RES1    0.0000
     14 H1         4.5385   -2.7526    9.7643 H         1 RES1    0.0000
     15 H2         5.2242   -3.0211    8.3925 H         1 RES1    0.0000
     16 H3         3.7210   -2.8785    8.2139 H         1 RES1    0.0000
     17 H4         0.7153    0.0334    8.9143 H         1 RES1    0.0000
     18 H5         1.3195   -0.0323   10.4395 H         1 RES1    0.0000
     19 H6         0.2689    1.0732    9.9822 H         1 RES1    0.0000
     20 H7         1.3500    5.8038    8.2532 H         1 RES1    0.0000
     21 H8         2.6516    5.7514    7.2779 H         1 RES1    0.0000
     22 H9         1.3993    5.8729    6.4110 H         1 RES1    0.0000
     23 H10        3.5766    2.7247   10.2029 H         1 RES1    0.0000
     24 H11        2.0232    2.7526   10.8004 H         1 RES1    0.0000
     25 H12        2.9958    1.7284   11.2025 H         1 RES1    0.0000
@<TRIPOS>BOND
     1    1    5 1
     2    2    6 1
     3    3    7 1
     4    4    8 1
     5    5    7 2
     6    6    8 2
     7    7   10 1
     8    8   10 1
     9    9    1 1
    10   10   12 1
    11   11    2 1
    12   12   17 1
    13   13   10 1
    14   14    9 1
    15   15    9 1
    16   16    9 1
    17   18   12 1
    18   19   12 1
    19   20   11 1
    20   21   11 1
    21   22   11 1
    22   23   13 1
    23   24   13 1
    24   25   13 1
@<TRIPOS>SUBSTRUCTURE
     1 RES1 1

@<TRIPOS>CRYSIN
   8.9640   11.1440    9.3510  90.0000  90.0000  90.0000  19 1

