# MOL2 file generated by ConQuest
# Please check atom types

@<TRIPOS>MOLECULE
KAHKUZ
    34    32     2
SMALL
NO_CHARGES
****
Generated from CSD

@<TRIPOS>ATOM
      1 O1         6.8907   11.0375    2.2830 O.3       1 RES1    0.0000
      2 O2         4.1690   10.0201    1.8576 O.3       1 RES1    0.0000
      3 O3         3.4425   12.8343    1.0111 O.2       1 RES1    0.0000
      4 O4         6.4133    5.8193    6.6522 O.2       1 RES1    0.0000
      5 O5         6.0335    7.2174    8.2458 O.2       1 RES1    0.0000
      6 O6         2.2744    9.7547    2.9912 O.2       1 RES1    0.0000
      7 N1         6.1905    6.9474    7.0614 N.pl3     1 RES1    0.0000
      8 C1         5.8032   11.1882    3.2254 C.3       1 RES1    0.0000
      9 H1         5.9184   12.0622    3.6775 H         1 RES1    0.0000
     10 C2         4.4544   11.2793    2.5165 C.3       1 RES1    0.0000
     11 H2         3.8069   11.4987    3.1544 H         1 RES1    0.0000
     12 C3         4.4745   12.3256    1.4062 C.2       1 RES1    0.0000
     13 C4         5.7701   12.5324    0.7964 C.2       1 RES1    0.0000
     14 H3         5.8117   13.0796    0.0078 H         1 RES1    0.0000
     15 C5         6.8258   11.8388    1.2040 C.2       1 RES1    0.0000
     16 H4         7.6352   11.8291    0.7808 H         1 RES1    0.0000
     17 C6         5.9099   10.0658    4.2193 C.ar      1 RES1    0.0000
     18 C7         6.3694    8.8029    3.8461 C.ar      1 RES1    0.0000
     19 H5         6.6115    8.6765    2.9826 H         1 RES1    0.0000
     20 C8         6.4707    7.7929    4.7753 C.ar      1 RES1    0.0000
     21 H6         6.7714    6.9242    4.4661 H         1 RES1    0.0000
     22 C9         6.0989    8.0460    6.0721 C.ar      1 RES1    0.0000
     23 C10        5.6464    9.2786    6.4875 C.ar      1 RES1    0.0000
     24 H7         5.3852    9.4345    7.4096 H         1 RES1    0.0000
     25 C11        5.5451   10.2838    5.5412 C.ar      1 RES1    0.0000
     26 H8         5.3212   11.1528    5.7934 H         1 RES1    0.0000
     27 C12        3.0445    9.3657    2.1792 C.2       1 RES1    0.0000
     28 C13        2.9261    8.1026    1.3929 C.3       1 RES1    0.0000
     29 H9         3.6790    8.0219    0.8026 H         1 RES1    0.0000
     30 H10        2.1167    8.1207    0.8776 H         1 RES1    0.0000
     31 H11        2.9069    7.3534    1.9926 H         1 RES1    0.0000
     32 H12        2.1231    7.6421    1.6459 Du        2 SUP2    0.0000
     33 H13        3.6854    7.5433    1.5709 Du        2 SUP2    0.0000
     34 H14        2.8941    8.3106    0.4560 Du        2 SUP2    0.0000
@<TRIPOS>BOND
     1    1    8 1
     2    2   10 1
     3    3   12 2
     4    4    7 2
     5    5    7 2
     6    6   27 2
     7    7   22 1
     8    8    9 1
     9   10    8 1
    10   11   10 1
    11   12   10 1
    12   13   12 1
    13   14   13 1
    14   15    1 1
    15   16   15 1
    16   17    8 1
    17   18   17 ar
    18   19   18 1
    19   20   18 ar
    20   21   20 1
    21   22   20 ar
    22   23   22 ar
    23   24   23 1
    24   25   17 ar
    25   26   25 1
    26   27    2 1
    27   28   27 1
    28   29   28 1
    29   30   28 1
    30   31   28 1
    31   13   15 2
    32   23   25 ar
@<TRIPOS>SUBSTRUCTURE
     1 RES1 1
     2 SUP2 32

@<TRIPOS>CRYSIN
  10.6637   15.4386    7.8078  90.0000  90.0000  90.0000  19 1

