# MOL2 file generated by ConQuest
# Please check atom types

@<TRIPOS>MOLECULE
KAHMUC
    56    57     1
SMALL
NO_CHARGES
****
Generated from CSD

@<TRIPOS>ATOM
      1 C1         4.0713    1.1521    4.7420 C.3       1 RES1    0.0000
      2 H1         3.9914    0.3440    5.2898 H         1 RES1    0.0000
      3 C2         2.7699    1.9180    4.7230 C.3       1 RES1    0.0000
      4 H2         2.9004    2.7883    4.2914 H         1 RES1    0.0000
      5 O1         2.3145    2.1043    6.0792 O.3       1 RES1    0.0000
      6 C3         2.1510    3.3564    6.5360 C.2       1 RES1    0.0000
      7 O2         2.4571    4.3325    5.8993 O.2       1 RES1    0.0000
      8 C4         1.5636    3.3621    7.9103 C.3       1 RES1    0.0000
      9 H3         2.2164    3.0455    8.5386 H         1 RES1    0.0000
     10 H4         0.7941    2.7883    7.9314 H         1 RES1    0.0000
     11 H5         1.3031    4.2560    8.1425 H         1 RES1    0.0000
     12 C5         1.6772    1.1464    4.0102 C.3       1 RES1    0.0000
     13 H6         1.3673    0.4229    4.5942 H         1 RES1    0.0000
     14 O3         0.6051    2.0860    3.8230 O.3       1 RES1    0.0000
     15 C6        -0.6363    1.5728    3.6853 C.2       1 RES1    0.0000
     16 O4        -0.8627    0.3989    3.7171 O.2       1 RES1    0.0000
     17 C7        -1.6303    2.6472    3.4582 C.3       1 RES1    0.0000
     18 H7        -1.6384    2.8838    2.5271 H         1 RES1    0.0000
     19 H8        -1.3960    3.4170    3.9821 H         1 RES1    0.0000
     20 H9        -2.5006    2.3374    3.7169 H         1 RES1    0.0000
     21 C8         2.1217    0.5469    2.6688 C.3       1 RES1    0.0000
     22 H10        1.4619   -0.1120    2.3667 H         1 RES1    0.0000
     23 O5         2.2193    1.6151    1.7063 O.3       1 RES1    0.0000
     24 C9         1.8234    1.3390    0.4324 C.2       1 RES1    0.0000
     25 O6         1.5043    0.2315    0.0874 O.2       1 RES1    0.0000
     26 C10        1.8695    2.5386   -0.4323 C.3       1 RES1    0.0000
     27 H11        2.7837    2.7963   -0.5745 H         1 RES1    0.0000
     28 H12        1.3968    3.2581   -0.0065 H         1 RES1    0.0000
     29 H13        1.4588    2.3409   -1.2766 H         1 RES1    0.0000
     30 C11        3.4606   -0.1309    2.8863 C.3       1 RES1    0.0000
     31 H14        3.3392   -0.8344    3.5565 H         1 RES1    0.0000
     32 C12        4.0755   -0.7532    1.6670 C.3       1 RES1    0.0000
     33 H15        3.4412   -1.3419    1.2292 H         1 RES1    0.0000
     34 H16        4.3515   -0.0692    1.0377 H         1 RES1    0.0000
     35 O7         5.2148   -1.4979    2.1365 O.3       1 RES1    0.0000
     36 C13        5.6097   -2.5363    1.3799 C.2       1 RES1    0.0000
     37 O8         5.0445   -2.8809    0.3771 O.2       1 RES1    0.0000
     38 C14        6.8415   -3.1633    1.9483 C.3       1 RES1    0.0000
     39 H17        6.8908   -4.0811    1.6711 H         1 RES1    0.0000
     40 H18        6.8106   -3.1187    2.9068 H         1 RES1    0.0000
     41 H19        7.6162   -2.6923    1.6318 H         1 RES1    0.0000
     42 O9         4.4061    0.8212    3.4068 O.3       1 RES1    0.0000
     43 O10        5.0696    1.9974    5.2463 O.3       1 RES1    0.0000
     44 C15        6.2902    1.4385    5.5569 C.ar      1 RES1    0.0000
     45 C16        7.1127    2.2369    6.3378 C.ar      1 RES1    0.0000
     46 H20        6.8091    3.0638    6.6352 H         1 RES1    0.0000
     47 C17        8.3809    1.8071    6.6733 C.ar      1 RES1    0.0000
     48 H21        8.9461    2.3443    7.1802 H         1 RES1    0.0000
     49 C18        8.7907    0.5658    6.2405 C.ar      1 RES1    0.0000
     50 N1        10.1289    0.0829    6.6088 N.pl3     1 RES1    0.0000
     51 O11       10.3784   -1.1047    6.4497 O.2       1 RES1    0.0000
     52 O12       10.9259    0.8870    7.0746 O.2       1 RES1    0.0000
     53 C19        7.9831   -0.2360    5.4716 C.ar      1 RES1    0.0000
     54 H22        8.2822   -1.0716    5.1932 H         1 RES1    0.0000
     55 C20        6.7181    0.2080    5.1117 C.ar      1 RES1    0.0000
     56 H23        6.1680   -0.3183    4.5778 H         1 RES1    0.0000
@<TRIPOS>BOND
     1    1    2 1
     2    3    1 1
     3    4    3 1
     4    5    3 1
     5    6    5 1
     6    7    6 2
     7    8    6 1
     8    9    8 1
     9   10    8 1
    10   11    8 1
    11   12    3 1
    12   13   12 1
    13   14   12 1
    14   15   14 1
    15   16   15 2
    16   17   15 1
    17   18   17 1
    18   19   17 1
    19   20   17 1
    20   21   12 1
    21   22   21 1
    22   23   21 1
    23   24   23 1
    24   25   24 2
    25   26   24 1
    26   27   26 1
    27   28   26 1
    28   29   26 1
    29   30   21 1
    30   31   30 1
    31   32   30 1
    32   33   32 1
    33   34   32 1
    34   35   32 1
    35   36   35 1
    36   37   36 2
    37   38   36 1
    38   39   38 1
    39   40   38 1
    40   41   38 1
    41   42    1 1
    42   43    1 1
    43   44   43 1
    44   45   44 ar
    45   46   45 1
    46   47   45 ar
    47   48   47 1
    48   49   47 ar
    49   50   49 1
    50   51   50 2
    51   52   50 2
    52   53   49 ar
    53   54   53 1
    54   55   44 ar
    55   56   55 1
    56   30   42 1
    57   53   55 ar
@<TRIPOS>SUBSTRUCTURE
     1 RES1 1

@<TRIPOS>CRYSIN
  11.7580    5.7150   17.3790  90.0000 109.6500  90.0000   4 1

