# MOL2 file generated by ConQuest
# Please check atom types

@<TRIPOS>MOLECULE
KAHRUJ
    45    48     1
SMALL
NO_CHARGES
****
Generated from CSD

@<TRIPOS>ATOM
      1 C1         7.4861    4.7112    2.6916 C.ar      1 RES1    0.0000
      2 C2         7.7041    3.3954    2.2789 C.ar      1 RES1    0.0000
      3 C3         8.8537    3.0259    1.5801 C.ar      1 RES1    0.0000
      4 C4         9.8251    4.0125    1.2752 C.ar      1 RES1    0.0000
      5 C5         9.5772    5.3245    1.6411 C.ar      1 RES1    0.0000
      6 H1        10.2061    5.9984    1.4113 H         1 RES1    0.0000
      7 C6         8.4300    5.6752    2.3350 C.ar      1 RES1    0.0000
      8 C7        11.0750    3.6794    0.5007 C.3       1 RES1    0.0000
      9 H2        11.5002    4.5076    0.1937 H         1 RES1    0.0000
     10 H3        10.8417    3.1259   -0.2732 H         1 RES1    0.0000
     11 H4        11.6962    3.1884    1.0784 H         1 RES1    0.0000
     12 N1         6.4138    5.3423    3.3885 N.am      1 RES1    0.0000
     13 C8         5.6136    4.6505    4.3214 C.2       1 RES1    0.0000
     14 C9         4.4878    5.3699    4.9961 C.3       1 RES1    0.0000
     15 H5         3.9034    5.7768    4.3081 H         1 RES1    0.0000
     16 H6         4.8568    6.1007    5.5536 H         1 RES1    0.0000
     17 C10        3.6622    4.4494    5.8680 C.3       1 RES1    0.0000
     18 H7         2.9554    4.9644    6.3096 H         1 RES1    0.0000
     19 H8         4.2384    4.0372    6.5457 H         1 RES1    0.0000
     20 H9         3.2595    3.7497    5.3135 H         1 RES1    0.0000
     21 O1         5.8661    3.4944    4.5551 O.2       1 RES1    0.0000
     22 C11        7.9274    6.9653    2.7708 C.ar      1 RES1    0.0000
     23 C12        6.6855    6.7577    3.3738 C.ar      1 RES1    0.0000
     24 C13        8.4325    8.2481    2.6042 C.ar      1 RES1    0.0000
     25 H10        9.2733    8.3857    2.1846 H         1 RES1    0.0000
     26 C14        5.9304    7.8325    3.8087 C.ar      1 RES1    0.0000
     27 H11        5.0750    7.7074    4.2033 H         1 RES1    0.0000
     28 C15        7.6938    9.3156    3.0565 C.ar      1 RES1    0.0000
     29 H12        8.0290   10.1992    2.9618 H         1 RES1    0.0000
     30 C16        6.4708    9.1007    3.6460 C.ar      1 RES1    0.0000
     31 H13        5.9762    9.8504    3.9540 H         1 RES1    0.0000
     32 C17        9.0250    1.6411    1.0380 C.ar      1 RES1    0.0000
     33 C18        8.1517    1.1593    0.0783 C.ar      1 RES1    0.0000
     34 H14        7.4186    1.6919   -0.2069 H         1 RES1    0.0000
     35 C19       10.0826    0.8389    1.4484 C.ar      1 RES1    0.0000
     36 H15       10.6807    1.1499    2.1182 H         1 RES1    0.0000
     37 C20        8.3482   -0.1099   -0.4701 C.ar      1 RES1    0.0000
     38 H16        7.7428   -0.4409   -1.1235 H         1 RES1    0.0000
     39 C21       10.2667   -0.4110    0.8844 C.ar      1 RES1    0.0000
     40 H17       10.9988   -0.9499    1.1632 H         1 RES1    0.0000
     41 C22        9.4056   -0.8798   -0.0728 C.ar      1 RES1    0.0000
     42 H18        9.5422   -1.7374   -0.4589 H         1 RES1    0.0000
     43 N2         6.6719    2.3620    2.4453 N.pl3     1 RES1    0.0000
     44 O2         6.9493    1.3327    3.0358 O.2       1 RES1    0.0000
     45 O3         5.5896    2.5919    1.9136 O.2       1 RES1    0.0000
@<TRIPOS>BOND
     1    1    2 ar
     2    2    3 ar
     3    3    4 ar
     4    4    5 ar
     5    5    6 1
     6    7    1 ar
     7    8    4 1
     8    9    8 1
     9   10    8 1
    10   11    8 1
    11   12    1 1
    12   13   12 1
    13   14   13 1
    14   15   14 1
    15   16   14 1
    16   17   14 1
    17   18   17 1
    18   19   17 1
    19   20   17 1
    20   21   13 2
    21   22    7 1
    22   23   12 1
    23   24   22 ar
    24   25   24 1
    25   26   23 ar
    26   27   26 1
    27   28   24 ar
    28   29   28 1
    29   30   26 ar
    30   31   30 1
    31   32    3 1
    32   33   32 ar
    33   34   33 1
    34   35   32 ar
    35   36   35 1
    36   37   33 ar
    37   38   37 1
    38   39   35 ar
    39   40   39 1
    40   41   37 ar
    41   42   41 1
    42   43    2 1
    43   44   43 2
    44   45   43 2
    45    5    7 ar
    46   22   23 ar
    47   28   30 ar
    48   39   41 ar
@<TRIPOS>SUBSTRUCTURE
     1 RES1 1

@<TRIPOS>CRYSIN
  23.4378   11.3628   14.9029  90.0000 117.1240  90.0000  15 1

