# MOL2 file generated by ConQuest
# Please check atom types

@<TRIPOS>MOLECULE
KAHSAP
    27    28     1
SMALL
NO_CHARGES
****
Generated from CSD

@<TRIPOS>ATOM
      1 H1         5.8806    3.2800    9.2891 H         1 RES1    0.0000
      2 H2         5.4053    3.8418    7.0171 H         1 RES1    0.0000
      3 H3         3.9942    3.8945    5.2654 H         1 RES1    0.0000
      4 H4         4.6479    5.1376    1.6859 H         1 RES1    0.0000
      5 H5         2.8470    5.2002    0.1616 H         1 RES1    0.0000
      6 H6         0.6801    4.5777    0.8108 H         1 RES1    0.0000
      7 H7         0.3980    3.8391    3.0631 H         1 RES1    0.0000
      8 H8         1.5703    2.5915    7.5650 H         1 RES1    0.0000
      9 H9         2.0076    2.0516    9.7240 H         1 RES1    0.0000
     10 C1         3.7210    4.8665    1.9532 C.ar      1 RES1    0.0000
     11 C2         2.6907    4.9149    1.0356 C.ar      1 RES1    0.0000
     12 C3         1.4373    4.5302    1.4268 C.ar      1 RES1    0.0000
     13 C4         1.2425    4.1209    2.7376 C.ar      1 RES1    0.0000
     14 C5         2.3337    4.1024    3.5886 C.ar      1 RES1    0.0000
     15 C6         2.1428    3.6620    5.0163 C.2       1 RES1    0.0000
     16 C7         3.4722    3.2779    7.0863 C.ar      1 RES1    0.0000
     17 C8         2.4629    2.7359    7.8754 C.ar      1 RES1    0.0000
     18 C9         2.7244    2.4017    9.1930 C.ar      1 RES1    0.0000
     19 C10        3.9818    2.6112    9.7076 C.ar      1 RES1    0.0000
     20 C11        5.0004    3.1356    8.9417 C.ar      1 RES1    0.0000
     21 C12        4.7448    3.4656    7.6251 C.ar      1 RES1    0.0000
     22 N1         3.5610    4.4628    3.2207 N.ar      1 RES1    0.0000
     23 N2         3.2918    3.6418    5.7424 N.am      1 RES1    0.0000
     24 N3         4.2468    2.2689   11.1084 N.pl3     1 RES1    0.0000
     25 O1         1.0413    3.3641    5.4460 O.2       1 RES1    0.0000
     26 O2         3.3484    1.8079   11.7858 O.2       1 RES1    0.0000
     27 O3         5.3734    2.4667   11.5383 O.2       1 RES1    0.0000
@<TRIPOS>BOND
     1    1   20 1
     2    2   21 1
     3    3   23 1
     4    4   10 1
     5    5   11 1
     6    6   12 1
     7    7   13 1
     8    8   17 1
     9    9   18 1
    10   10   11 ar
    11   11   12 ar
    12   12   13 ar
    13   13   14 ar
    14   14   15 1
    15   15   23 1
    16   16   17 ar
    17   17   18 ar
    18   18   19 ar
    19   19   20 ar
    20   20   21 ar
    21   21   16 ar
    22   22   10 ar
    23   23   16 1
    24   24   19 1
    25   25   15 2
    26   26   24 2
    27   27   24 2
    28   14   22 ar
@<TRIPOS>SUBSTRUCTURE
     1 RES1 1

@<TRIPOS>CRYSIN
   6.1490    7.3055   13.6613 100.1620  97.1470 112.7600   2 1

