# MOL2 file generated by ConQuest
# Please check atom types

@<TRIPOS>MOLECULE
KAJRIY
    21    22     1
SMALL
NO_CHARGES
****
Generated from CSD

@<TRIPOS>ATOM
      1 C1         3.4481    6.2440    4.8403 C.2       1 RES1    0.0000
      2 C2         3.5589    5.3050    3.6920 C.3       1 RES1    0.0000
      3 H1         4.4901    4.9764    3.6330 H         1 RES1    0.0000
      4 H2         3.3570    5.7944    2.8550 H         1 RES1    0.0000
      5 C3         2.6196    4.1142    3.8085 C.3       1 RES1    0.0000
      6 H3         2.5803    3.6556    2.9322 H         1 RES1    0.0000
      7 H4         1.7102    4.4477    4.0120 H         1 RES1    0.0000
      8 C4         3.0160    3.0962    4.8740 C.3       1 RES1    0.0000
      9 H5         2.4710    2.2802    4.7448 H         1 RES1    0.0000
     10 H6         3.9633    2.8468    4.7316 H         1 RES1    0.0000
     11 C5         2.8513    3.5623    6.3162 C.3       1 RES1    0.0000
     12 H7         2.9563    2.7803    6.9133 H         1 RES1    0.0000
     13 H8         1.9295    3.9052    6.4329 H         1 RES1    0.0000
     14 C6         3.8321    4.6465    6.7583 C.3       1 RES1    0.0000
     15 H9         3.7884    4.7398    7.7431 H         1 RES1    0.0000
     16 H10        4.7517    4.3664    6.5210 H         1 RES1    0.0000
     17 N1         3.5509    5.9537    6.1373 N.3       1 RES1    0.0000
     18 N2         3.3884    7.0728    6.8677 N.2       1 RES1    0.0000
     19 N3         3.1933    8.0039    5.9449 N.pl3     1 RES1    0.0000
     20 N4         3.2164    7.5525    4.6799 N.2       1 RES1    0.0000
     21 O1         2.9852    9.2229    6.2299 O.2       1 RES1    0.0000
@<TRIPOS>BOND
     1    1    2 1
     2    2    3 1
     3    4    2 1
     4    5    2 1
     5    6    5 1
     6    7    5 1
     7    8    5 1
     8    9    8 1
     9   10    8 1
    10   11    8 1
    11   12   11 1
    12   13   11 1
    13   14   11 1
    14   15   14 1
    15   16   14 1
    16   17    1 1
    17   18   17 1
    18   19   18 2
    19   20    1 2
    20   21   19 1
    21   14   17 1
    22   19   20 1
@<TRIPOS>SUBSTRUCTURE
     1 RES1 1

@<TRIPOS>CRYSIN
   7.2868    9.2430   11.0190  90.0000  90.0000  90.0000  19 1

