# MOL2 file generated by ConQuest
# Please check atom types

@<TRIPOS>MOLECULE
KAJVIC
    48    49     1
SMALL
NO_CHARGES
****
Generated from CSD

@<TRIPOS>ATOM
      1 O1         4.5055    6.4940    1.7379 O.2       1 RES1    0.0000
      2 C1         3.4537    7.0635    1.9308 C.2       1 RES1    0.0000
      3 O2         2.8791    7.2360    3.1247 O.3       1 RES1    0.0000
      4 C2         3.4892    6.6097    4.2949 C.3       1 RES1    0.0000
      5 C3         3.5054    7.6461    5.4240 C.3       1 RES1    0.0000
      6 C4         4.1640    8.9899    5.0223 C.3       1 RES1    0.0000
      7 C5         5.6755    8.9037    4.8595 C.3       1 RES1    0.0000
      8 C6         3.7947   10.0811    6.0233 C.3       1 RES1    0.0000
      9 C7         4.1289    6.9762    6.6543 C.3       1 RES1    0.0000
     10 C8         3.3009    5.7592    7.0638 C.3       1 RES1    0.0000
     11 C9         3.1985    4.7228    5.9443 C.3       1 RES1    0.0000
     12 C10        2.6790    5.3968    4.6887 C.2       1 RES1    0.0000
     13 C11        1.6092    5.0020    4.0198 C.2       1 RES1    0.0000
     14 C12        2.3672    3.5231    6.4044 C.3       1 RES1    0.0000
     15 C13        2.6090    7.6339    0.8429 C.ar      1 RES1    0.0000
     16 C14        1.5258    8.4530    1.1228 C.ar      1 RES1    0.0000
     17 C15        0.7339    8.8641    0.0712 C.ar      1 RES1    0.0000
     18 N1        -0.4508    9.6913    0.3669 N.pl3     1 RES1    0.0000
     19 O3        -0.6066   10.0790    1.5149 O.2       1 RES1    0.0000
     20 O4        -1.2274    9.9197   -0.5487 O.2       1 RES1    0.0000
     21 C16        0.9659    8.4977   -1.2429 C.ar      1 RES1    0.0000
     22 C17        2.0649    7.7039   -1.4706 C.ar      1 RES1    0.0000
     23 C18        2.9028    7.2756   -0.4665 C.ar      1 RES1    0.0000
     24 N2         2.3174    7.2573   -2.8512 N.pl3     1 RES1    0.0000
     25 O5         3.3430    6.6229   -3.0678 O.2       1 RES1    0.0000
     26 O6         1.4799    7.5314   -3.7051 O.2       1 RES1    0.0000
     27 H1         4.4049    6.3398    4.0799 H         1 RES1    0.0000
     28 H2         2.5617    7.8288    5.6485 H         1 RES1    0.0000
     29 H3         3.7812    9.2508    4.1463 H         1 RES1    0.0000
     30 H4         6.0003    9.7492    4.5163 H         1 RES1    0.0000
     31 H5         5.8902    8.2053    4.2158 H         1 RES1    0.0000
     32 H6         6.0937    8.7088    5.7197 H         1 RES1    0.0000
     33 H7         4.1689   10.9225    5.7244 H         1 RES1    0.0000
     34 H8         2.8420   10.1816    6.0739 H         1 RES1    0.0000
     35 H9         4.1343    9.8497    6.9025 H         1 RES1    0.0000
     36 H10        5.0342    6.7001    6.4345 H         1 RES1    0.0000
     37 H11        4.1504    7.6136    7.3849 H         1 RES1    0.0000
     38 H12        2.3990    6.0444    7.3153 H         1 RES1    0.0000
     39 H13        3.7273    5.3278    7.8371 H         1 RES1    0.0000
     40 H14        4.1078    4.4072    5.7308 H         1 RES1    0.0000
     41 H15        1.3249    5.4648    3.2655 H         1 RES1    0.0000
     42 H16        1.1534    4.2458    4.2949 H         1 RES1    0.0000
     43 H17        2.3343    2.8704    5.6928 H         1 RES1    0.0000
     44 H18        1.4758    3.8215    6.6337 H         1 RES1    0.0000
     45 H19        2.7847    3.1394    7.1824 H         1 RES1    0.0000
     46 H20        1.3349    8.7220    2.0051 H         1 RES1    0.0000
     47 H21        0.3934    8.7859   -1.9371 H         1 RES1    0.0000
     48 H22        3.6598    6.7458   -0.6657 H         1 RES1    0.0000
@<TRIPOS>BOND
     1    1    2 2
     2    2    3 1
     3    3    4 1
     4    4    5 1
     5    5    6 1
     6    6    7 1
     7    7   30 1
     8    8    6 1
     9    9    5 1
    10   10    9 1
    11   11   10 1
    12   12    4 1
    13   13   12 2
    14   14   11 1
    15   15    2 1
    16   16   15 ar
    17   17   16 ar
    18   18   17 1
    19   19   18 2
    20   20   18 2
    21   21   17 ar
    22   22   21 ar
    23   23   15 ar
    24   24   22 1
    25   25   24 2
    26   26   24 2
    27   27    4 1
    28   28    5 1
    29   29    6 1
    30   31    7 1
    31   32    7 1
    32   33    8 1
    33   34    8 1
    34   35    8 1
    35   36    9 1
    36   37    9 1
    37   38   10 1
    38   39   10 1
    39   40   11 1
    40   41   13 1
    41   42   13 1
    42   43   14 1
    43   44   14 1
    44   45   14 1
    45   46   16 1
    46   47   21 1
    47   48   23 1
    48   11   12 1
    49   22   23 ar
@<TRIPOS>SUBSTRUCTURE
     1 RES1 1

@<TRIPOS>CRYSIN
   5.6584   10.1501   15.8737  90.0000  94.9963  90.0000   4 1

