# MOL2 file generated by ConQuest
# Please check atom types

@<TRIPOS>MOLECULE
KAKHUB
    39    41     1
SMALL
NO_CHARGES
****
Generated from CSD

@<TRIPOS>ATOM
      1 C1        -2.1300    5.5375    5.3353 C.ar      1 RES1    0.0000
      2 C2        -3.3731    5.8398    4.8060 C.ar      1 RES1    0.0000
      3 H1        -3.6510    6.7445    4.7299 H         1 RES1    0.0000
      4 C3        -4.2055    4.8214    4.3910 C.ar      1 RES1    0.0000
      5 H2        -5.0571    5.0344    4.0275 H         1 RES1    0.0000
      6 C4        -3.8285    3.5030    4.4917 C.ar      1 RES1    0.0000
      7 H3        -4.4023    2.8024    4.2056 H         1 RES1    0.0000
      8 C5        -2.5800    3.2349    5.0258 C.ar      1 RES1    0.0000
      9 C6        -1.7180    4.2168    5.4531 C.ar      1 RES1    0.0000
     10 H4        -0.8683    3.9984    5.8166 H         1 RES1    0.0000
     11 C7        -0.7266    8.4767    3.9772 C.ar      1 RES1    0.0000
     12 C8         0.1650    7.5157    3.5094 C.ar      1 RES1    0.0000
     13 H5         0.3671    6.7599    4.0496 H         1 RES1    0.0000
     14 C9         0.7572    7.6448    2.2729 C.ar      1 RES1    0.0000
     15 H6         1.3692    6.9850    1.9671 H         1 RES1    0.0000
     16 C10        0.4628    8.7326    1.4784 C.ar      1 RES1    0.0000
     17 H7         0.8631    8.8198    0.6201 H         1 RES1    0.0000
     18 C11       -0.4084    9.6903    1.9340 C.ar      1 RES1    0.0000
     19 H8        -0.6140   10.4405    1.3900 H         1 RES1    0.0000
     20 C12       -0.9834    9.5678    3.1643 C.ar      1 RES1    0.0000
     21 H9        -1.5734   10.2463    3.4713 H         1 RES1    0.0000
     22 C13       -2.6512    8.0784    7.3208 C.ar      1 RES1    0.0000
     23 C14       -2.6324    7.0004    8.1815 C.ar      1 RES1    0.0000
     24 H10       -2.0998    6.2425    7.9679 H         1 RES1    0.0000
     25 C15       -3.3670    7.0049    9.3431 C.ar      1 RES1    0.0000
     26 H11       -3.3421    6.2491    9.9178 H         1 RES1    0.0000
     27 C16       -4.1411    8.0916    9.6845 C.ar      1 RES1    0.0000
     28 H12       -4.6484    8.0894   10.4876 H         1 RES1    0.0000
     29 C17       -4.1672    9.1806    8.8471 C.ar      1 RES1    0.0000
     30 H13       -4.6890    9.9407    9.0742 H         1 RES1    0.0000
     31 C18       -3.4376    9.1728    7.6732 C.ar      1 RES1    0.0000
     32 H14       -3.4706    9.9275    7.0973 H         1 RES1    0.0000
     33 C19       -1.4210    8.3740    5.2751 C.2       1 RES1    0.0000
     34 H15       -1.4137    9.3030    5.4728 H         1 RES1    0.0000
     35 C20       -1.8785    8.0960    6.0818 C.2       1 RES1    0.0000
     36 N1        -2.1685    1.8359    5.1486 N.pl3     1 RES1    0.0000
     37 O1        -1.2259    6.4731    5.7736 O.3       1 RES1    0.0000
     38 O2        -1.0252    1.5843    5.4900 O.2       1 RES1    0.0000
     39 O3        -2.9958    0.9621    4.9190 O.2       1 RES1    0.0000
@<TRIPOS>BOND
     1    1    2 ar
     2    2    3 1
     3    4    2 ar
     4    5    4 1
     5    6    4 ar
     6    7    6 1
     7    8    6 ar
     8    9    1 ar
     9   10    9 1
    10   11   12 ar
    11   12   13 1
    12   14   12 ar
    13   15   14 1
    14   16   14 ar
    15   17   16 1
    16   18   16 ar
    17   19   18 1
    18   20   11 ar
    19   21   20 1
    20   22   23 ar
    21   23   24 1
    22   25   23 ar
    23   26   25 1
    24   27   25 ar
    25   28   27 1
    26   29   27 ar
    27   30   29 1
    28   31   22 ar
    29   32   31 1
    30   33   11 1
    31   34   33 1
    32   35   22 1
    33   36    8 1
    34   37    1 1
    35   38   36 2
    36   39   36 2
    37    8    9 ar
    38   18   20 ar
    39   29   31 ar
    40   33   35 2
    41   35   37 1
@<TRIPOS>SUBSTRUCTURE
     1 RES1 1

@<TRIPOS>CRYSIN
  23.1476   11.0330   16.6135  90.0000 132.3450  90.0000  15 1

