# MOL2 file generated by ConQuest
# Please check atom types

@<TRIPOS>MOLECULE
KAKJUB
    59    61     1
SMALL
NO_CHARGES
****
Generated from CSD

@<TRIPOS>ATOM
      1 N1         1.6626   -1.0865    5.0909 N.3       1 RES1    0.0000
      2 C1         2.6003   -0.4926    6.0729 C.3       1 RES1    0.0000
      3 C2         3.9656   -0.7976    5.3825 C.3       1 RES1    0.0000
      4 C3         3.5436   -0.8706    3.9302 C.2       1 RES1    0.0000
      5 C4         2.2357   -1.0277    3.8191 C.2       1 RES1    0.0000
      6 O1         2.4117    0.9000    6.1404 O.3       1 RES1    0.0000
      7 N2         0.3320   -0.7277    5.2793 N.am      1 RES1    0.0000
      8 C5        -0.6117   -1.7027    5.4083 C.2       1 RES1    0.0000
      9 O2        -0.3773   -2.8804    5.2992 O.2       1 RES1    0.0000
     10 C6        -1.9679   -1.1969    5.6920 C.ar      1 RES1    0.0000
     11 C7        -2.1786   -0.0294    6.4261 C.ar      1 RES1    0.0000
     12 C8        -3.4773    0.4145    6.6721 C.ar      1 RES1    0.0000
     13 C9        -4.5668   -0.3111    6.1860 C.ar      1 RES1    0.0000
     14 C10       -4.3553   -1.4797    5.4539 C.ar      1 RES1    0.0000
     15 C11       -3.0567   -1.9226    5.2079 C.ar      1 RES1    0.0000
     16 C12        2.3476   -1.0652    7.4339 C.ar      1 RES1    0.0000
     17 C13        2.5802   -0.2635    8.5509 C.ar      1 RES1    0.0000
     18 C14        2.3964   -0.7844    9.8325 C.ar      1 RES1    0.0000
     19 C15        1.9819   -2.1061    9.9952 C.ar      1 RES1    0.0000
     20 C16        1.7493   -2.9077    8.8783 C.ar      1 RES1    0.0000
     21 C17        1.9331   -2.3878    7.5966 C.ar      1 RES1    0.0000
     22 N3         1.8260   -2.6473   11.3304 N.pl3     1 RES1    0.0000
     23 O3         2.0871   -1.9287   12.2768 O.2       1 RES1    0.0000
     24 O4         1.4959   -3.8006   11.4396 O.2       1 RES1    0.0000
     25 C18        4.5517   -2.1030    5.8765 C.2       1 RES1    0.0000
     26 O5         4.3548   -3.1702    5.3825 O.2       1 RES1    0.0000
     27 O6         5.3120   -1.9094    6.9379 O.3       1 RES1    0.0000
     28 C19        5.8643   -3.1226    7.5510 C.3       1 RES1    0.0000
     29 C20        6.2283   -2.8489    8.8683 C.3       1 RES1    0.0000
     30 C21        4.4557   -0.8037    2.8133 C.2       1 RES1    0.0000
     31 O7         4.1579   -0.7794    1.6388 O.2       1 RES1    0.0000
     32 O8         5.7288   -0.8027    3.2319 O.3       1 RES1    0.0000
     33 C22        6.7831   -0.7419    2.2022 C.3       1 RES1    0.0000
     34 C23        6.9531    0.6182    1.8530 C.3       1 RES1    0.0000
     35 C24        1.3359   -1.1432    2.6327 C.3       1 RES1    0.0000
     36 H1         4.7127   -0.0426    5.5908 H         1 RES1    0.0000
     37 H2         0.0467    0.3132    5.3190 H         1 RES1    0.0000
     38 H3        -1.3410    0.5290    6.8090 H         1 RES1    0.0000
     39 H4        -3.6482    1.3125    7.2415 H         1 RES1    0.0000
     40 H5        -5.5762    0.0264    6.3705 H         1 RES1    0.0000
     41 H6        -5.1953   -2.0422    5.0651 H         1 RES1    0.0000
     42 H7        -2.8881   -2.8246    4.6326 H         1 RES1    0.0000
     43 H8         2.8962    0.7591    8.4259 H         1 RES1    0.0000
     44 H9         2.5670   -0.1642   10.6995 H         1 RES1    0.0000
     45 H10        1.4286   -3.9324    9.0013 H         1 RES1    0.0000
     46 H11        1.7579   -3.0081    6.7276 H         1 RES1    0.0000
     47 H12        6.7283   -3.4479    6.9915 H         1 RES1    0.0000
     48 H13        5.1151   -3.9010    7.5411 H         1 RES1    0.0000
     49 H14        6.6857   -3.6222    9.4675 H         1 RES1    0.0000
     50 H15        5.2583   -2.6047    9.2750 H         1 RES1    0.0000
     51 H16        6.8555   -1.9692    8.8763 H         1 RES1    0.0000
     52 H17        6.4807   -1.3145    1.3372 H         1 RES1    0.0000
     53 H18        7.7104   -1.1361    2.5891 H         1 RES1    0.0000
     54 H19        7.7064    0.5828    1.0813 H         1 RES1    0.0000
     55 H20        7.3342    1.1635    2.7041 H         1 RES1    0.0000
     56 H21        6.0716    1.1128    1.4721 H         1 RES1    0.0000
     57 H22        1.9269   -1.1878    1.7300 H         1 RES1    0.0000
     58 H23        0.6330   -0.3253    2.5633 H         1 RES1    0.0000
     59 H24        0.7978   -2.0706    2.7577 H         1 RES1    0.0000
@<TRIPOS>BOND
     1    1    2 1
     2    2    3 1
     3    3    4 1
     4    4    5 2
     5    5    1 1
     6    6    2 1
     7    7    1 1
     8    8    7 1
     9    9    8 2
    10   10    8 1
    11   11   10 ar
    12   12   11 ar
    13   13   12 ar
    14   14   13 ar
    15   15   10 ar
    16   16    2 1
    17   17   16 ar
    18   18   17 ar
    19   19   18 ar
    20   20   19 ar
    21   21   16 ar
    22   22   19 1
    23   23   22 2
    24   24   22 2
    25   25    3 1
    26   26   25 2
    27   27   25 1
    28   28   27 1
    29   29   28 1
    30   30    4 1
    31   31   30 2
    32   32   30 1
    33   33   32 1
    34   34   33 1
    35   35    5 1
    36   36    3 1
    37   37    7 1
    38   38   11 1
    39   39   12 1
    40   40   13 1
    41   41   14 1
    42   42   15 1
    43   43   17 1
    44   44   18 1
    45   45   20 1
    46   46   21 1
    47   47   28 1
    48   48   28 1
    49   49   29 1
    50   50   29 1
    51   51   29 1
    52   52   33 1
    53   53   33 1
    54   54   34 1
    55   55   34 1
    56   56   34 1
    57   57   35 1
    58   58   35 1
    59   59   35 1
    60   14   15 ar
    61   20   21 ar
@<TRIPOS>SUBSTRUCTURE
     1 RES1 1

@<TRIPOS>CRYSIN
  12.7610   10.1350   20.4120  90.0000 103.6000  90.0000 231 1

