# MOL2 file generated by ConQuest
# Please check atom types

@<TRIPOS>MOLECULE
KAKYOM
    38    38     1
SMALL
NO_CHARGES
****
Generated from CSD

@<TRIPOS>ATOM
      1 O1         0.6467   -0.2341    8.4251 O.2       1 RES1    0.0000
      2 O2         3.2176    1.8498    7.2665 O.3       1 RES1    0.0000
      3 H1         2.9617    2.7326    7.5431 H         1 RES1    0.0000
      4 O3         3.0404    2.2922   10.5379 O.2       1 RES1    0.0000
      5 O4         5.1391   -0.4929   10.8154 O.3       1 RES1    0.0000
      6 H2         4.6150   -1.0930   11.1036 H         1 RES1    0.0000
      7 O5         3.8427   -0.5727   13.2968 O.2       1 RES1    0.0000
      8 N1         2.4763    1.0300    8.1330 N.am      1 RES1    0.0000
      9 N2         4.5326    0.7240   11.1332 N.am      1 RES1    0.0000
     10 N3         4.8202    0.8278   14.7923 N.am      1 RES1    0.0000
     11 C1         0.6243    1.3088    6.5796 C.3       1 RES1    0.0000
     12 H3         1.1660    1.1975    5.7920 H         1 RES1    0.0000
     13 H4        -0.2539    0.9137    6.4529 H         1 RES1    0.0000
     14 H5         0.5529    2.2551    6.7571 H         1 RES1    0.0000
     15 C2         1.2350    0.6254    7.7748 C.2       1 RES1    0.0000
     16 C3         3.2819    0.3468    9.1073 C.3       1 RES1    0.0000
     17 H6         4.1066    0.0614    8.6859 H         1 RES1    0.0000
     18 H7         2.8209   -0.4305    9.3994 H         1 RES1    0.0000
     19 C4         3.5913    1.2226   10.3116 C.2       1 RES1    0.0000
     20 C5         4.9520    1.3137   12.3835 C.3       1 RES1    0.0000
     21 H8         4.5863    2.1765   12.4354 H         1 RES1    0.0000
     22 H9         5.9168    1.4037   12.3885 H         1 RES1    0.0000
     23 C6         4.4864    0.4485   13.5547 C.2       1 RES1    0.0000
     24 C7         4.3922    0.0514   15.9683 C.3       1 RES1    0.0000
     25 H10        3.9483   -0.7718   15.6676 H         1 RES1    0.0000
     26 H11        3.7416    0.5734   16.4266 H         1 RES1    0.0000
     27 C8         5.5747   -0.2251   16.8823 C.3       1 RES1    0.0000
     28 H12        6.1917   -0.8303   16.4138 H         1 RES1    0.0000
     29 H13        5.2569   -0.7028   17.6631 H         1 RES1    0.0000
     30 C9         6.2741    1.0679   17.2721 C.3       1 RES1    0.0000
     31 H14        5.6565    1.6357   17.7968 H         1 RES1    0.0000
     32 H15        7.0564    0.8936   17.8238 H         1 RES1    0.0000
     33 C10        6.6934    1.8368   16.0238 C.3       1 RES1    0.0000
     34 H16        7.3765    1.3174   15.5325 H         1 RES1    0.0000
     35 H17        7.0941    2.6741   16.2532 H         1 RES1    0.0000
     36 C11        5.4961    2.0894   15.1167 C.3       1 RES1    0.0000
     37 H18        5.7435    2.5648   14.2974 H         1 RES1    0.0000
     38 H19        4.8434    2.6568   15.5880 H         1 RES1    0.0000
@<TRIPOS>BOND
     1    1   15 2
     2    2    3 1
     3    4   19 2
     4    5    6 1
     5    7   23 2
     6    8    2 1
     7    9    5 1
     8   10   23 1
     9   11   12 1
    10   13   11 1
    11   14   11 1
    12   15    8 1
    13   16    8 1
    14   17   16 1
    15   18   16 1
    16   19    9 1
    17   20    9 1
    18   21   20 1
    19   22   20 1
    20   23   20 1
    21   24   10 1
    22   25   24 1
    23   26   24 1
    24   27   24 1
    25   28   27 1
    26   29   27 1
    27   30   27 1
    28   31   30 1
    29   32   30 1
    30   33   30 1
    31   34   33 1
    32   35   33 1
    33   36   10 1
    34   37   36 1
    35   38   36 1
    36   11   15 1
    37   16   19 1
    38   33   36 1
@<TRIPOS>SUBSTRUCTURE
     1 RES1 1

@<TRIPOS>CRYSIN
   9.4670    9.5880   14.3700  90.0000  98.4630  90.0000  14 1

