# MOL2 file generated by ConQuest
# Please check atom types

@<TRIPOS>MOLECULE
KANDOS
    53    55     1
SMALL
NO_CHARGES
****
Generated from CSD

@<TRIPOS>ATOM
      1 O1        -2.4869    8.5195    7.2210 O.3       1 RES1    0.0000
      2 O2        -3.5712    8.7089    9.1138 O.2       1 RES1    0.0000
      3 O3        -0.7151    1.1926    0.6517 O.2       1 RES1    0.0000
      4 O4        -1.6883    2.4699    2.0813 O.2       1 RES1    0.0000
      5 O5         3.8247   -1.4732    3.7018 O.2       1 RES1    0.0000
      6 O6         2.9063   -1.5919    1.7644 O.2       1 RES1    0.0000
      7 N1        -0.4626    3.4950    5.6414 N.2       1 RES1    0.0000
      8 N2        -0.6148    2.8677    4.4160 N.3       1 RES1    0.0000
      9 N3        -0.7873    1.6848    1.7633 N.pl3     1 RES1    0.0000
     10 N4         2.9868   -1.1091    2.8798 N.pl3     1 RES1    0.0000
     11 C1        -1.4368    4.2496    6.0013 C.2       1 RES1    0.0000
     12 C2        -1.2414    4.9595    7.3126 C.3       1 RES1    0.0000
     13 C3        -1.2188    6.4901    7.2233 C.3       1 RES1    0.0000
     14 C4        -2.6268    7.0692    7.1870 C.3       1 RES1    0.0000
     15 C5        -3.4859    6.7376    5.9957 C.3       1 RES1    0.0000
     16 C6        -3.7946    5.2508    5.8434 C.3       1 RES1    0.0000
     17 C7        -2.6975    4.4230    5.2011 C.3       1 RES1    0.0000
     18 C8        -0.3341    6.9844    6.0972 C.3       1 RES1    0.0000
     19 C9        -3.0090    9.2096    8.1931 C.2       1 RES1    0.0000
     20 C10       -2.8052   10.6652    8.0374 C.ar      1 RES1    0.0000
     21 C11       -3.4609   11.5296    8.8923 C.ar      1 RES1    0.0000
     22 C12       -3.3122   12.8870    8.7840 C.ar      1 RES1    0.0000
     23 C13       -2.4756   13.4003    7.8175 C.ar      1 RES1    0.0000
     24 C14       -1.7994   12.5641    6.9739 C.ar      1 RES1    0.0000
     25 C15       -1.9716   11.1956    7.0598 C.ar      1 RES1    0.0000
     26 C16        0.2555    1.9261    4.0276 C.ar      1 RES1    0.0000
     27 C17        0.2227    1.3268    2.7459 C.ar      1 RES1    0.0000
     28 C18        1.1222    0.3486    2.3603 C.ar      1 RES1    0.0000
     29 C19        2.0678   -0.0545    3.2648 C.ar      1 RES1    0.0000
     30 C20        2.1477    0.5149    4.5343 C.ar      1 RES1    0.0000
     31 C21        1.2729    1.4803    4.8970 C.ar      1 RES1    0.0000
     32 H1        -0.4176    4.6360    7.6948 H         1 RES1    0.0000
     33 H2        -1.9927    4.6880    7.9682 H         1 RES1    0.0000
     34 H3        -0.8548    6.8578    8.1300 H         1 RES1    0.0000
     35 H4        -3.0875    6.8265    8.0631 H         1 RES1    0.0000
     36 H5        -4.3107    7.2636    6.1324 H         1 RES1    0.0000
     37 H6        -3.0887    7.0289    5.1503 H         1 RES1    0.0000
     38 H7        -3.9810    4.9028    6.8132 H         1 RES1    0.0000
     39 H8        -4.5754    5.2038    5.2396 H         1 RES1    0.0000
     40 H9        -2.4821    4.8553    4.3189 H         1 RES1    0.0000
     41 H10       -3.0419    3.4928    5.0220 H         1 RES1    0.0000
     42 H11        0.5402    6.6192    6.2384 H         1 RES1    0.0000
     43 H12       -0.6037    6.6872    5.1001 H         1 RES1    0.0000
     44 H13       -0.2377    8.0066    6.1659 H         1 RES1    0.0000
     45 H14       -4.0713   11.1686    9.5529 H         1 RES1    0.0000
     46 H15       -3.7748   13.4775    9.3186 H         1 RES1    0.0000
     47 H16       -2.3506   14.3202    7.7952 H         1 RES1    0.0000
     48 H17       -1.2597   12.8912    6.2552 H         1 RES1    0.0000
     49 H18       -1.5227   10.5494    6.4449 H         1 RES1    0.0000
     50 H19        1.1216   -0.0570    1.4731 H         1 RES1    0.0000
     51 H20        2.8162    0.2105    5.1447 H         1 RES1    0.0000
     52 H21        1.3523    1.8584    5.7139 H         1 RES1    0.0000
     53 H22       -1.2471    3.0872    3.8948 H         1 RES1    0.0000
@<TRIPOS>BOND
     1    1   14 1
     2    2   19 2
     3    3    9 2
     4    4    9 2
     5    5   10 2
     6    6   10 2
     7    7    8 1
     8    8   26 1
     9    9   27 1
    10   10   29 1
    11   11    7 2
    12   12   11 1
    13   13   12 1
    14   14   13 1
    15   15   14 1
    16   16   15 1
    17   17   11 1
    18   18   13 1
    19   19    1 1
    20   20   19 1
    21   21   20 ar
    22   22   21 ar
    23   23   22 ar
    24   24   23 ar
    25   25   20 ar
    26   26   27 ar
    27   27   28 ar
    28   28   29 ar
    29   29   30 ar
    30   30   31 ar
    31   31   26 ar
    32   32   12 1
    33   33   12 1
    34   34   13 1
    35   35   14 1
    36   36   15 1
    37   37   15 1
    38   38   16 1
    39   39   16 1
    40   40   17 1
    41   41   17 1
    42   42   18 1
    43   43   18 1
    44   44   18 1
    45   45   21 1
    46   46   22 1
    47   47   23 1
    48   48   24 1
    49   49   25 1
    50   50   28 1
    51   51   30 1
    52   52   31 1
    53   53    8 1
    54   16   17 1
    55   24   25 ar
@<TRIPOS>SUBSTRUCTURE
     1 RES1 1

@<TRIPOS>CRYSIN
  10.0960   18.5660    5.7540  96.8300 103.4600  78.3500   2 1

