# MOL2 file generated by ConQuest
# Please check atom types

@<TRIPOS>MOLECULE
KAPCAF
    24    25     1
SMALL
NO_CHARGES
****
Generated from CSD

@<TRIPOS>ATOM
      1 O1         2.8956    1.6550    3.7997 O.2       1 RES1    0.0000
      2 O2         1.7952    3.4847    3.9731 O.2       1 RES1    0.0000
      3 N1        -2.2592   -0.2172    1.0168 N.3       1 RES1    0.0000
      4 N2         1.8861    2.3024    3.6069 N.pl3     1 RES1    0.0000
      5 C1        -1.7082   -1.4821    0.8272 C.2       1 RES1    0.0000
      6 C2        -0.4521   -1.5077    1.3344 C.2       1 RES1    0.0000
      7 C3        -0.1976   -0.2019    1.8763 C.ar      1 RES1    0.0000
      8 C4         0.8859    0.3663    2.5300 C.ar      1 RES1    0.0000
      9 C5         0.7632    1.6857    2.9301 C.ar      1 RES1    0.0000
     10 C6        -0.3813    2.4540    2.7235 C.ar      1 RES1    0.0000
     11 C7        -1.4680    1.9055    2.0737 C.ar      1 RES1    0.0000
     12 C8        -1.3655    0.5801    1.6597 C.ar      1 RES1    0.0000
     13 C9        -2.5168   -2.5426    0.1480 C.3       1 RES1    0.0000
     14 C10        0.5183   -2.6508    1.3429 C.3       1 RES1    0.0000
     15 H1        -3.1110   -0.0681    0.7632 H         1 RES1    0.0000
     16 H2         1.7068   -0.1107    2.6672 H         1 RES1    0.0000
     17 H3        -0.3763    3.3476    3.0141 H         1 RES1    0.0000
     18 H4        -2.1847    2.4021    1.9272 H         1 RES1    0.0000
     19 H5        -1.9697   -3.4328   -0.1079 H         1 RES1    0.0000
     20 H6        -3.2107   -2.8109    0.7555 H         1 RES1    0.0000
     21 H7        -2.9045   -2.3084   -0.7092 H         1 RES1    0.0000
     22 H8         1.4251   -2.2828    0.8865 H         1 RES1    0.0000
     23 H9         0.1550   -3.4839    0.9713 H         1 RES1    0.0000
     24 H10        0.9251   -2.7939    2.2741 H         1 RES1    0.0000
@<TRIPOS>BOND
     1    1    4 2
     2    2    4 2
     3    3    5 1
     4    4    9 1
     5    5    6 2
     6    6    7 1
     7    7    8 ar
     8    8    9 ar
     9    9   10 ar
    10   10   11 ar
    11   11   12 ar
    12   12    3 1
    13   13    5 1
    14   14    6 1
    15   15    3 1
    16   16    8 1
    17   17   10 1
    18   18   11 1
    19   19   13 1
    20   20   13 1
    21   21   13 1
    22   22   14 1
    23   23   14 1
    24   24   14 1
    25    7   12 ar
@<TRIPOS>SUBSTRUCTURE
     1 RES1 1

@<TRIPOS>CRYSIN
  14.3450    8.5180    7.7410  90.0000  95.2300  90.0000 231 1

