# MOL2 file generated by ConQuest
# Please check atom types

@<TRIPOS>MOLECULE
KAQNIZ
    62    64     1
SMALL
NO_CHARGES
****
Generated from CSD

@<TRIPOS>ATOM
      1 O1         0.4775    0.6868    1.3739 O.3       1 RES1    0.0000
      2 C1         1.4131   -0.1800    1.7949 C.2       1 RES1    0.0000
      3 N1         0.7857   -1.1685    2.5439 N.am      1 RES1    0.0000
      4 C2        -0.6204   -0.8106    2.7747 C.3       1 RES1    0.0000
      5 H1        -1.1788   -1.6130    2.6967 H         1 RES1    0.0000
      6 C3        -0.8534    0.0975    1.5513 C.3       1 RES1    0.0000
      7 C4         1.2993   -2.4341    2.8762 C.2       1 RES1    0.0000
      8 O2         0.5341   -3.2962    3.2459 O.2       1 RES1    0.0000
      9 C5         2.7840   -2.6257    2.7629 C.3       1 RES1    0.0000
     10 H2         3.2313   -1.9103    3.2427 H         1 RES1    0.0000
     11 H3         3.0400   -2.5607    1.8291 H         1 RES1    0.0000
     12 C6         3.2648   -3.9775    3.3185 C.3       1 RES1    0.0000
     13 H4         2.6637   -4.6673    2.9670 H         1 RES1    0.0000
     14 C7         4.6730   -4.3386    2.8751 C.3       1 RES1    0.0000
     15 H5         4.9049   -5.1771    3.3260 H         1 RES1    0.0000
     16 C8         5.7317   -3.3132    3.2843 C.3       1 RES1    0.0000
     17 H6         5.5853   -2.4933    2.8067 H         1 RES1    0.0000
     18 H7         6.6050   -3.6534    3.0749 H         1 RES1    0.0000
     19 H8         5.6701   -3.1494    4.2277 H         1 RES1    0.0000
     20 C9         4.7395   -4.6162    1.3751 C.3       1 RES1    0.0000
     21 H9         4.0614   -5.2526    1.1368 H         1 RES1    0.0000
     22 H10        5.6042   -4.9715    1.1539 H         1 RES1    0.0000
     23 H11        4.5960   -3.7998    0.8921 H         1 RES1    0.0000
     24 C10        3.0973   -3.9589    4.8335 C.3       1 RES1    0.0000
     25 H12        3.6965   -3.3016    5.2192 H         1 RES1    0.0000
     26 H13        2.1878   -3.7057    5.0568 H         1 RES1    0.0000
     27 N2         3.3968   -5.3083    5.4051 N.pl3     1 RES1    0.0000
     28 O3         4.3975   -5.4395    6.0494 O.2       1 RES1    0.0000
     29 O4         2.5856   -6.1955    5.2053 O.2       1 RES1    0.0000
     30 C11       -0.8343   -0.1672    4.1636 C.3       1 RES1    0.0000
     31 H14       -1.7769    0.0941    4.2171 H         1 RES1    0.0000
     32 C12       -0.0092    1.0870    4.4126 C.3       1 RES1    0.0000
     33 H15       -0.1532    1.3901    5.3122 H         1 RES1    0.0000
     34 H16       -0.2772    1.7733    3.7972 H         1 RES1    0.0000
     35 H17        0.9206    0.8884    4.2865 H         1 RES1    0.0000
     36 C13       -0.5904   -1.1834    5.2716 C.3       1 RES1    0.0000
     37 H18       -1.1435   -1.9545    5.1274 H         1 RES1    0.0000
     38 H19       -0.8068   -0.7885    6.1199 H         1 RES1    0.0000
     39 H20        0.3333   -1.4458    5.2673 H         1 RES1    0.0000
     40 C14       -1.8703    1.2078    1.6956 C.ar      1 RES1    0.0000
     41 C15       -3.1750    0.8826    2.0471 C.ar      1 RES1    0.0000
     42 H21       -3.4009   -0.0058    2.2074 H         1 RES1    0.0000
     43 C16       -4.1411    1.8685    2.1593 C.ar      1 RES1    0.0000
     44 H22       -5.0100    1.6409    2.3997 H         1 RES1    0.0000
     45 C17       -3.8150    3.1878    1.9146 C.ar      1 RES1    0.0000
     46 H23       -4.4581    3.8532    2.0065 H         1 RES1    0.0000
     47 C18       -2.5336    3.5118    1.5353 C.ar      1 RES1    0.0000
     48 H24       -2.3176    4.3978    1.3537 H         1 RES1    0.0000
     49 C19       -1.5533    2.5247    1.4189 C.ar      1 RES1    0.0000
     50 H25       -0.6902    2.7511    1.1560 H         1 RES1    0.0000
     51 C20       -1.1560   -0.6840    0.2650 C.ar      1 RES1    0.0000
     52 C21       -1.9331   -1.8232    0.2532 C.ar      1 RES1    0.0000
     53 H26       -2.2443   -2.1740    1.0567 H         1 RES1    0.0000
     54 C22       -2.2586   -2.4573   -0.9434 C.ar      1 RES1    0.0000
     55 H27       -2.7693   -3.2342   -0.9263 H         1 RES1    0.0000
     56 C23       -1.8442   -1.9580   -2.1240 C.ar      1 RES1    0.0000
     57 H28       -2.0827   -2.3760   -2.9200 H         1 RES1    0.0000
     58 C24       -1.0562   -0.8106   -2.1422 C.ar      1 RES1    0.0000
     59 H29       -0.7602   -0.4657   -2.9531 H         1 RES1    0.0000
     60 C25       -0.7086   -0.1788   -0.9509 C.ar      1 RES1    0.0000
     61 H30       -0.1755    0.5841   -0.9691 H         1 RES1    0.0000
     62 O5         2.5735   -0.0649    1.5321 O.2       1 RES1    0.0000
@<TRIPOS>BOND
     1    1    2 1
     2    2    3 1
     3    3    4 1
     4    4    5 1
     5    6    1 1
     6    7    3 1
     7    8    7 2
     8    9    7 1
     9   10    9 1
    10   11    9 1
    11   12    9 1
    12   13   12 1
    13   14   12 1
    14   15   14 1
    15   16   14 1
    16   17   16 1
    17   18   16 1
    18   19   16 1
    19   20   14 1
    20   21   20 1
    21   22   20 1
    22   23   20 1
    23   24   12 1
    24   25   24 1
    25   26   24 1
    26   27   24 1
    27   28   27 2
    28   29   27 2
    29   30    4 1
    30   31   30 1
    31   32   30 1
    32   33   32 1
    33   34   32 1
    34   35   32 1
    35   36   30 1
    36   37   36 1
    37   38   36 1
    38   39   36 1
    39   40    6 1
    40   41   40 ar
    41   42   41 1
    42   43   41 ar
    43   44   43 1
    44   45   43 ar
    45   46   45 1
    46   47   45 ar
    47   48   47 1
    48   49   40 ar
    49   50   49 1
    50   51    6 1
    51   52   51 ar
    52   53   52 1
    53   54   52 ar
    54   55   54 1
    55   56   54 ar
    56   57   56 1
    57   58   56 ar
    58   59   58 1
    59   60   51 ar
    60   61   60 1
    61   62    2 2
    62    4    6 1
    63   47   49 ar
    64   58   60 ar
@<TRIPOS>SUBSTRUCTURE
     1 RES1 1

@<TRIPOS>CRYSIN
   9.6550   11.6130   10.8350  90.0000  99.5700  90.0000   4 1

