# MOL2 file generated by ConQuest
# Please check atom types

@<TRIPOS>MOLECULE
KAQPIE
    66    69     1
SMALL
NO_CHARGES
****
Generated from CSD

@<TRIPOS>ATOM
      1 C1         5.3134    3.8529    7.9512 C.2       1 RES1    0.0000
      2 C2         6.0700    5.1316    7.8577 C.ar      1 RES1    0.0000
      3 C3         7.3603    5.1616    8.3426 C.ar      1 RES1    0.0000
      4 H1         7.7562    4.3917    8.6799 H         1 RES1    0.0000
      5 C4         8.0559    6.3557    8.3187 C.ar      1 RES1    0.0000
      6 C5         7.4978    7.5328    7.8868 C.ar      1 RES1    0.0000
      7 H2         7.9649    8.3379    7.9200 H         1 RES1    0.0000
      8 C6         6.2095    7.4624    7.4010 C.ar      1 RES1    0.0000
      9 C7         5.4950    6.2927    7.3698 C.ar      1 RES1    0.0000
     10 H3         4.6317    6.2783    7.0241 H         1 RES1    0.0000
     11 C8         3.4371    2.6174    6.9244 C.3       1 RES1    0.0000
     12 C9         2.5290    2.5936    8.1235 C.3       1 RES1    0.0000
     13 H4         3.0383    2.3746    8.9063 H         1 RES1    0.0000
     14 H5         1.8445    1.9348    7.9927 H         1 RES1    0.0000
     15 H6         2.1237    3.4555    8.2346 H         1 RES1    0.0000
     16 C10        4.2524    1.3354    6.8040 C.3       1 RES1    0.0000
     17 H7         4.9749    1.4724    6.1874 H         1 RES1    0.0000
     18 H8         3.6894    0.6270    6.4853 H         1 RES1    0.0000
     19 H9         4.6073    1.1008    7.6646 H         1 RES1    0.0000
     20 C11        2.6441    2.8685    5.6070 C.3       1 RES1    0.0000
     21 H10        2.0158    2.1192    5.5541 H         1 RES1    0.0000
     22 C12        3.4610    2.7666    4.3353 C.ar      1 RES1    0.0000
     23 C13        4.5630    3.5604    4.0664 C.ar      1 RES1    0.0000
     24 H11        4.8418    4.1874    4.6955 H         1 RES1    0.0000
     25 C14        5.2559    3.4348    2.8757 C.ar      1 RES1    0.0000
     26 H12        5.9993    3.9690    2.7137 H         1 RES1    0.0000
     27 C15        4.8489    2.5249    1.9351 C.ar      1 RES1    0.0000
     28 H13        5.3215    2.4398    1.1388 H         1 RES1    0.0000
     29 C16        3.7490    1.7391    2.1625 C.ar      1 RES1    0.0000
     30 H14        3.4661    1.1320    1.5167 H         1 RES1    0.0000
     31 C17        3.0650    1.8528    3.3522 C.ar      1 RES1    0.0000
     32 H15        2.3251    1.3107    3.5058 H         1 RES1    0.0000
     33 C18        1.7672    4.0969    5.5790 C.2       1 RES1    0.0000
     34 C19        2.1773    5.4876    6.0057 C.3       1 RES1    0.0000
     35 H16        2.3572    5.5208    6.9587 H         1 RES1    0.0000
     36 H17        2.9659    5.7818    5.5240 H         1 RES1    0.0000
     37 C20        0.9859    6.3271    5.6537 C.ar      1 RES1    0.0000
     38 C21        0.7691    7.6681    5.7897 C.ar      1 RES1    0.0000
     39 H18        1.4177    8.2103    6.1749 H         1 RES1    0.0000
     40 C22       -0.4235    8.2108    5.3475 C.ar      1 RES1    0.0000
     41 H19       -0.5782    9.1238    5.4305 H         1 RES1    0.0000
     42 C23       -1.3900    7.3910    4.7796 C.ar      1 RES1    0.0000
     43 H20       -2.1887    7.7649    4.4848 H         1 RES1    0.0000
     44 C24       -1.1910    6.0354    4.6436 C.ar      1 RES1    0.0000
     45 H21       -1.8479    5.4953    4.2657 H         1 RES1    0.0000
     46 C25        0.0116    5.4873    5.0828 C.ar      1 RES1    0.0000
     47 C26        0.5165    4.1321    5.0547 C.2       1 RES1    0.0000
     48 C27       -0.2281    2.9990    4.4630 C.2       1 RES1    0.0000
     49 H22       -0.0998    2.8427    3.5546 H         1 RES1    0.0000
     50 C28       -1.0520    2.1904    5.0890 C.2       1 RES1    0.0000
     51 C29       -1.7964    1.1078    4.3779 C.3       1 RES1    0.0000
     52 H23       -2.7410    1.2540    4.4734 H         1 RES1    0.0000
     53 H24       -1.5639    0.2582    4.7568 H         1 RES1    0.0000
     54 H25       -1.5640    1.1178    3.4466 H         1 RES1    0.0000
     55 C30       -1.2718    2.2668    6.5580 C.3       1 RES1    0.0000
     56 H26       -0.6518    2.8909    6.9421 H         1 RES1    0.0000
     57 H27       -1.1368    1.4015    6.9473 H         1 RES1    0.0000
     58 H28       -2.1690    2.5618    6.7313 H         1 RES1    0.0000
     59 N1         5.5701    8.6829    6.9141 N.pl3     1 RES1    0.0000
     60 N2         9.4374    6.3577    8.7993 N.pl3     1 RES1    0.0000
     61 O1         4.3394    3.7990    7.0466 O.3       1 RES1    0.0000
     62 O2         5.5789    3.0047    8.7620 O.2       1 RES1    0.0000
     63 O3         4.4030    8.6233    6.5715 O.2       1 RES1    0.0000
     64 O4         6.2422    9.6954    6.8871 O.2       1 RES1    0.0000
     65 O5         9.9181    7.4318    9.1388 O.2       1 RES1    0.0000
     66 O6        10.0281    5.2995    8.8398 O.2       1 RES1    0.0000
@<TRIPOS>BOND
     1    1    2 1
     2    2    3 ar
     3    3    4 1
     4    5    3 ar
     5    6    5 ar
     6    7    6 1
     7    8    6 ar
     8    9    2 ar
     9   10    9 1
    10   11   12 1
    11   12   13 1
    12   14   12 1
    13   15   12 1
    14   16   11 1
    15   17   16 1
    16   18   16 1
    17   19   16 1
    18   20   11 1
    19   21   20 1
    20   22   20 1
    21   23   22 ar
    22   24   23 1
    23   25   23 ar
    24   26   25 1
    25   27   25 ar
    26   28   27 1
    27   29   27 ar
    28   30   29 1
    29   31   22 ar
    30   32   31 1
    31   33   20 1
    32   34   33 1
    33   35   34 1
    34   36   34 1
    35   37   34 1
    36   38   37 ar
    37   39   38 1
    38   40   38 ar
    39   41   40 1
    40   42   40 ar
    41   43   42 1
    42   44   42 ar
    43   45   44 1
    44   46   37 ar
    45   47   33 2
    46   48   47 1
    47   49   48 1
    48   50   48 2
    49   51   50 1
    50   52   51 1
    51   53   51 1
    52   54   51 1
    53   55   50 1
    54   56   55 1
    55   57   55 1
    56   58   55 1
    57   59    8 1
    58   60    5 1
    59   61    1 1
    60   62    1 2
    61   63   59 2
    62   64   59 2
    63   65   60 2
    64   66   60 2
    65    8    9 ar
    66   11   61 1
    67   29   31 ar
    68   44   46 ar
    69   46   47 1
@<TRIPOS>SUBSTRUCTURE
     1 RES1 1

@<TRIPOS>CRYSIN
   9.8911   28.3700   10.3955  90.0000  92.9770  90.0000 231 1

