# MOL2 file generated by ConQuest
# Please check atom types

@<TRIPOS>MOLECULE
KAQROJ
    42    44     1
SMALL
NO_CHARGES
****
Generated from CSD

@<TRIPOS>ATOM
      1 C1         1.6665   15.4961   -0.0284 C.3       1 RES1    0.0000
      2 C2         0.5473   15.5287    1.0430 C.3       1 RES1    0.0000
      3 C3         0.1802   17.0313    1.1171 C.3       1 RES1    0.0000
      4 H1        -0.4444   17.2721    0.4012 H         1 RES1    0.0000
      5 C4        -0.3229   17.5265    2.4587 C.3       1 RES1    0.0000
      6 H2        -0.6953   16.7806    2.9746 H         1 RES1    0.0000
      7 C5         1.7440   18.5503    2.1784 C.3       1 RES1    0.0000
      8 H3         2.6554   18.4169    2.5146 H         1 RES1    0.0000
      9 C6         1.5411   17.7304    0.9140 C.3       1 RES1    0.0000
     10 H4         1.5272   18.3051    0.1209 H         1 RES1    0.0000
     11 C7         2.5203   16.5491    0.7261 C.3       1 RES1    0.0000
     12 C8         3.9033   16.8791    0.2448 C.3       1 RES1    0.0000
     13 H5         4.4163   16.0725    0.1676 H         1 RES1    0.0000
     14 H6         4.3282   17.4688    0.8724 H         1 RES1    0.0000
     15 H7         3.8497   17.3090   -0.6124 H         1 RES1    0.0000
     16 C9         1.2128   15.9510   -1.4177 C.3       1 RES1    0.0000
     17 H8         0.7795   16.8051   -1.3497 H         1 RES1    0.0000
     18 H9         0.5972   15.3086   -1.7803 H         1 RES1    0.0000
     19 H10        1.9754   16.0242   -1.9966 H         1 RES1    0.0000
     20 C10        2.3550   14.1350   -0.1574 C.3       1 RES1    0.0000
     21 H11        2.6441   13.8389    0.7089 H         1 RES1    0.0000
     22 H12        3.1155   14.2149   -0.7383 H         1 RES1    0.0000
     23 H13        1.7375   13.4978   -0.5240 H         1 RES1    0.0000
     24 C11       -0.5857   14.5418    0.9800 C.3       1 RES1    0.0000
     25 H14       -0.2320   13.6505    0.9374 H         1 RES1    0.0000
     26 H15       -1.1173   14.7135    0.1991 H         1 RES1    0.0000
     27 H16       -1.1321   14.6314    1.7651 H         1 RES1    0.0000
     28 C12        1.7939   20.7769    2.9574 C.3       1 RES1    0.0000
     29 H17        1.6477   21.6843    2.6811 H         1 RES1    0.0000
     30 H18        2.7007   20.6742    3.2549 H         1 RES1    0.0000
     31 H19        1.1949   20.5582    3.6744 H         1 RES1    0.0000
     32 C13       -1.9483   18.9241    3.4296 C.3       1 RES1    0.0000
     33 H20       -2.6129   19.5842    3.2204 H         1 RES1    0.0000
     34 H21       -1.2959   19.3045    4.0227 H         1 RES1    0.0000
     35 H22       -2.3675   18.1727    3.8551 H         1 RES1    0.0000
     36 N1         1.4104   15.2846    2.2586 N.pl3     1 RES1    0.0000
     37 N2         2.5568   15.8774    2.0738 N.pl3     1 RES1    0.0000
     38 O1         1.0890   14.6696    3.3037 O.2       1 RES1    0.0000
     39 O2         3.4806   15.9183    2.9279 O.2       1 RES1    0.0000
     40 O3        -1.3109   18.4974    2.2353 O.3       1 RES1    0.0000
     41 O4         1.5543   19.9011    1.8565 O.3       1 RES1    0.0000
     42 O5         0.8130   18.0631    3.1270 O.3       1 RES1    0.0000
@<TRIPOS>BOND
     1    1    2 1
     2    2    3 1
     3    3    4 1
     4    5    3 1
     5    6    5 1
     6    7    8 1
     7    9    3 1
     8   10    9 1
     9   11    1 1
    10   12   11 1
    11   13   12 1
    12   14   12 1
    13   15   12 1
    14   16    1 1
    15   17   16 1
    16   18   16 1
    17   19   16 1
    18   20    1 1
    19   21   20 1
    20   22   20 1
    21   23   20 1
    22   24    2 1
    23   25   24 1
    24   26   24 1
    25   27   24 1
    26   28   29 1
    27   30   28 1
    28   31   28 1
    29   32   33 1
    30   34   32 1
    31   35   32 1
    32   36    2 1
    33   37   11 1
    34   38   36 1
    35   39   37 1
    36   40    5 1
    37   41    7 1
    38   42    5 1
    39    7   42 1
    40    7    9 1
    41    9   11 1
    42   28   41 1
    43   32   40 1
    44   36   37 2
@<TRIPOS>SUBSTRUCTURE
     1 RES1 1

@<TRIPOS>CRYSIN
   7.7476   19.0230   10.1900  90.0000  94.6970  90.0000 231 1

