# MOL2 file generated by ConQuest
# Please check atom types

@<TRIPOS>MOLECULE
KAQXIL
    51    54     1
SMALL
NO_CHARGES
****
Generated from CSD

@<TRIPOS>ATOM
      1 O1         4.2654    4.4085    0.6868 O.2       1 RES1    0.0000
      2 O2         6.1271    4.3480   -0.4458 O.2       1 RES1    0.0000
      3 O3        11.0228    7.0505   -0.2166 O.2       1 RES1    0.0000
      4 N1         7.9665    5.8493    1.3156 N.pl3     1 RES1    0.0000
      5 N2         5.3284    4.9102    0.3203 N.pl3     1 RES1    0.0000
      6 N3         9.2880    5.8454   -1.0727 N.am      1 RES1    0.0000
      7 C1         9.3693    6.2776    1.3096 C.3       1 RES1    0.0000
      8 H1         9.4409    7.1498    1.7938 H         1 RES1    0.0000
      9 C2        10.1244    5.1996    2.1112 C.3       1 RES1    0.0000
     10 H2        10.8456    4.7957    1.5495 H         1 RES1    0.0000
     11 C3         9.1011    4.1152    2.5239 C.3       1 RES1    0.0000
     12 H3         9.4012    3.2289    2.1693 H         1 RES1    0.0000
     13 C4         7.7758    4.4985    1.8654 C.3       1 RES1    0.0000
     14 H4         7.5502    3.8592    1.1428 H         1 RES1    0.0000
     15 H5         7.0439    4.4947    2.5313 H         1 RES1    0.0000
     16 C5        10.7052    5.6589    3.4715 C.3       1 RES1    0.0000
     17 H6        11.5775    6.1451    3.4312 H         1 RES1    0.0000
     18 C6         9.5939    6.3574    4.2224 C.2       1 RES1    0.0000
     19 H7         9.5397    7.2875    4.4056 H         1 RES1    0.0000
     20 C7         8.7100    5.4389    4.5800 C.2       1 RES1    0.0000
     21 H8         7.9103    5.5907    5.0686 H         1 RES1    0.0000
     22 C8         9.2037    4.1075    4.0674 C.3       1 RES1    0.0000
     23 H9         8.8271    3.3009    4.5233 H         1 RES1    0.0000
     24 C9        10.7217    4.3133    4.2224 C.3       1 RES1    0.0000
     25 H10       11.0073    4.3995    5.1655 H         1 RES1    0.0000
     26 H11       11.2561    3.6186    3.7620 H         1 RES1    0.0000
     27 C10        6.9481    6.7034    0.9655 C.ar      1 RES1    0.0000
     28 C11        5.6256    6.2905    0.6943 C.ar      1 RES1    0.0000
     29 C12        4.5675    7.1794    0.5766 C.ar      1 RES1    0.0000
     30 H12        3.6807    6.8552    0.4723 H         1 RES1    0.0000
     31 C13        4.8095    8.5366    0.6094 C.ar      1 RES1    0.0000
     32 H13        4.0912    9.1566    0.5617 H         1 RES1    0.0000
     33 C14        6.1136    8.9804    0.7137 C.ar      1 RES1    0.0000
     34 H14        6.2946    9.9117    0.6570 H         1 RES1    0.0000
     35 C15        7.1572    8.1030    0.8969 C.ar      1 RES1    0.0000
     36 H15        8.0401    8.4439    0.9789 H         1 RES1    0.0000
     37 C16        9.9579    6.4384   -0.0745 C.2       1 RES1    0.0000
     38 C17        9.7381    5.6897   -2.4613 C.3       1 RES1    0.0000
     39 C18        8.6858    4.8536   -3.1720 C.3       1 RES1    0.0000
     40 H16        8.6161    3.9775   -2.7355 H         1 RES1    0.0000
     41 H17        8.9433    4.7314   -4.1091 H         1 RES1    0.0000
     42 H18        7.8203    5.3103   -3.1273 H         1 RES1    0.0000
     43 C19       11.0760    4.9591   -2.4822 C.3       1 RES1    0.0000
     44 H19       11.7576    5.5135   -2.0486 H         1 RES1    0.0000
     45 H20       11.3384    4.7828   -3.4089 H         1 RES1    0.0000
     46 H21       10.9908    4.1100   -1.9994 H         1 RES1    0.0000
     47 C20        9.8620    7.0752   -3.1109 C.3       1 RES1    0.0000
     48 H22        9.0082    7.5499   -3.0319 H         1 RES1    0.0000
     49 H23       10.0924    6.9736   -4.0570 H         1 RES1    0.0000
     50 H24       10.5629    7.5872   -2.6565 H         1 RES1    0.0000
     51 H25        8.5870    5.4672   -0.8790 H         1 RES1    0.0000
@<TRIPOS>BOND
     1    1    5 2
     2    2    5 2
     3    3   37 2
     4    4    7 1
     5    5   28 1
     6    6   37 1
     7    7    8 1
     8    9    7 1
     9   10    9 1
    10   11    9 1
    11   12   11 1
    12   13    4 1
    13   14   13 1
    14   15   13 1
    15   16    9 1
    16   17   16 1
    17   18   16 1
    18   19   18 1
    19   20   18 2
    20   21   20 1
    21   22   11 1
    22   23   22 1
    23   24   16 1
    24   25   24 1
    25   26   24 1
    26   27    4 1
    27   28   27 ar
    28   29   28 ar
    29   30   29 1
    30   31   29 ar
    31   32   31 1
    32   33   31 ar
    33   34   33 1
    34   35   27 ar
    35   36   35 1
    36   37    7 1
    37   38    6 1
    38   39   38 1
    39   40   39 1
    40   41   39 1
    41   42   39 1
    42   43   38 1
    43   44   43 1
    44   45   43 1
    45   46   43 1
    46   47   38 1
    47   48   47 1
    48   49   47 1
    49   50   47 1
    50   51    6 1
    51   11   13 1
    52   20   22 1
    53   22   24 1
    54   33   35 ar
@<TRIPOS>SUBSTRUCTURE
     1 RES1 1

@<TRIPOS>CRYSIN
   9.6810   12.8640   14.8990  90.0000  90.0000  90.0000  19 1

