# MOL2 file generated by ConQuest
# Please check atom types

@<TRIPOS>MOLECULE
KARKEV
    69    72     1
SMALL
NO_CHARGES
****
Generated from CSD

@<TRIPOS>ATOM
      1 O1        12.1241   -2.8603    9.4643 O.3       1 RES1    0.0000
      2 N1        11.7759    1.2704    8.6503 N.pl3     1 RES1    0.0000
      3 C1        13.6490   -0.3250    8.9236 C.ar      1 RES1    0.0000
      4 O2        10.3690   -3.1390    8.0781 O.2       1 RES1    0.0000
      5 C2        12.1631   -0.0417    9.1839 C.3       1 RES1    0.0000
      6 O3         8.1056   -2.5531    5.5355 O.3       1 RES1    0.0000
      7 N2         9.3849   -0.8523    6.9329 N.3       1 RES1    0.0000
      8 C3        10.3567   -0.2740    7.6819 C.2       1 RES1    0.0000
      9 C4        14.1541   -0.1975    7.6443 C.ar      1 RES1    0.0000
     10 C5        10.5801    1.1905    7.7975 C.3       1 RES1    0.0000
     11 C6         8.4769   -0.3051    6.0082 C.ar      1 RES1    0.0000
     12 C7         7.7848   -1.2541    5.2451 C.ar      1 RES1    0.0000
     13 O4        10.9401    3.8026    7.8022 O.3       1 RES1    0.0000
     14 C8        11.2353   -0.9710    8.4461 C.2       1 RES1    0.0000
     15 C9         8.2055    1.0388    5.8185 C.ar      1 RES1    0.0000
     16 C10       15.5018   -0.4382    7.4161 C.ar      1 RES1    0.0000
     17 C11        7.4275   -3.6045    4.8436 C.3       1 RES1    0.0000
     18 C12       11.1787   -2.4006    8.6156 C.2       1 RES1    0.0000
     19 C13        7.9019   -4.8943    5.4389 C.3       1 RES1    0.0000
     20 C14        6.8615   -0.8622    4.2926 C.ar      1 RES1    0.0000
     21 C15       12.9184    2.3618   10.4954 C.ar      1 RES1    0.0000
     22 C16       13.3399   -4.5846   10.5055 C.3       1 RES1    0.0000
     23 C17       12.1147    2.4344    9.3564 C.ar      1 RES1    0.0000
     24 C18       12.1283   -4.2919    9.6956 C.3       1 RES1    0.0000
     25 C19       14.5025   -0.7137    9.9486 C.ar      1 RES1    0.0000
     26 C20       11.7324    3.7261    8.9223 C.ar      1 RES1    0.0000
     27 C21        6.6129    0.4866    4.0990 C.ar      1 RES1    0.0000
     28 N3        16.0182   -0.2828    6.0599 N.pl3     1 RES1    0.0000
     29 C22        7.2720    1.4329    4.8589 C.ar      1 RES1    0.0000
     30 C23       13.3471    3.5047   11.1684 C.ar      1 RES1    0.0000
     31 C24       12.1624    4.8469    9.6150 C.ar      1 RES1    0.0000
     32 C25       15.8605   -0.9459    9.6898 C.ar      1 RES1    0.0000
     33 C26       16.3654   -0.8099    8.4300 C.ar      1 RES1    0.0000
     34 C27       10.4746    5.0765    7.3646 C.3       1 RES1    0.0000
     35 O5        15.2289   -0.0364    5.1587 O.2       1 RES1    0.0000
     36 C28       12.9671    4.7457   10.7269 C.ar      1 RES1    0.0000
     37 O6        17.2245   -0.3653    5.8820 O.2       1 RES1    0.0000
     38 C29        9.5581    4.8469    6.2211 C.3       1 RES1    0.0000
     39 H1         5.8700    0.7167    3.4008 H         1 RES1    0.0000
     40 H2         6.3390   -1.4184    3.7158 H         1 RES1    0.0000
     41 H3        13.1740    5.5888   11.2974 H         1 RES1    0.0000
     42 H4        12.0254   -0.0581   10.1960 H         1 RES1    0.0000
     43 H5        13.5571    0.0373    6.8249 H         1 RES1    0.0000
     44 H6         9.7910    1.6326    8.2330 H         1 RES1    0.0000
     45 H7         7.0249    2.4081    4.5962 H         1 RES1    0.0000
     46 H8        10.7287    1.5168    6.8252 H         1 RES1    0.0000
     47 H9        16.3934   -1.3269   10.4790 H         1 RES1    0.0000
     48 H10        9.2703   -1.8324    7.0891 H         1 RES1    0.0000
     49 H11        8.7367    1.8410    6.2488 H         1 RES1    0.0000
     50 H12        6.4388   -3.5294    4.9471 H         1 RES1    0.0000
     51 H13        7.5583   -3.6481    3.8079 H         1 RES1    0.0000
     52 H14       14.1651   -0.7739   10.9050 H         1 RES1    0.0000
     53 H15       11.8974    5.7194    9.3145 H         1 RES1    0.0000
     54 H16       13.9092    3.4189   11.9418 H         1 RES1    0.0000
     55 H17       13.1851    1.5012   10.8269 H         1 RES1    0.0000
     56 H18       17.2907   -0.9736    8.2326 H         1 RES1    0.0000
     57 H19       11.3322   -4.5296   10.1763 H         1 RES1    0.0000
     58 H20       12.1424   -4.7510    8.8526 H         1 RES1    0.0000
     59 H21       13.3856   -5.5255   10.6909 H         1 RES1    0.0000
     60 H22       13.3063   -4.0970   11.3318 H         1 RES1    0.0000
     61 H23       14.1165   -4.3184   10.0081 H         1 RES1    0.0000
     62 H24       10.0184    5.5186    8.0839 H         1 RES1    0.0000
     63 H25       11.2262    5.6061    7.0884 H         1 RES1    0.0000
     64 H26        9.2231    5.6834    5.8893 H         1 RES1    0.0000
     65 H27        8.8239    4.3039    6.5180 H         1 RES1    0.0000
     66 H28       10.0317    4.3914    5.5224 H         1 RES1    0.0000
     67 H29        7.4703   -5.6281    4.9952 H         1 RES1    0.0000
     68 H30        7.6828   -4.9119    6.3734 H         1 RES1    0.0000
     69 H31        8.8529   -4.9702    5.3317 H         1 RES1    0.0000
@<TRIPOS>BOND
     1    1   18 1
     2    2    5 1
     3    3    5 1
     4    4   18 2
     5    5   14 1
     6    6   12 1
     7    7    8 1
     8    8   10 1
     9    9    3 ar
    10   10    2 1
    11   11    7 1
    12   12   11 ar
    13   13   26 1
    14   14    8 2
    15   15   11 ar
    16   16    9 ar
    17   17    6 1
    18   18   14 1
    19   19   17 1
    20   20   12 ar
    21   21   23 ar
    22   22   24 1
    23   23    2 1
    24   24    1 1
    25   25    3 ar
    26   26   23 ar
    27   27   20 ar
    28   28   16 1
    29   29   15 ar
    30   30   21 ar
    31   31   26 ar
    32   32   25 ar
    33   33   16 ar
    34   34   13 1
    35   35   28 2
    36   36   30 ar
    37   37   28 2
    38   38   34 1
    39   39   27 1
    40   40   20 1
    41   41   36 1
    42   42    5 1
    43   43    9 1
    44   44   10 1
    45   45   29 1
    46   46   10 1
    47   47   32 1
    48   48    7 1
    49   49   15 1
    50   50   17 1
    51   51   17 1
    52   52   25 1
    53   53   31 1
    54   54   30 1
    55   55   21 1
    56   56   33 1
    57   57   24 1
    58   58   24 1
    59   59   22 1
    60   60   22 1
    61   61   22 1
    62   62   34 1
    63   63   34 1
    64   64   38 1
    65   65   38 1
    66   66   38 1
    67   67   19 1
    68   68   19 1
    69   69   19 1
    70   27   29 ar
    71   31   36 ar
    72   32   33 ar
@<TRIPOS>SUBSTRUCTURE
     1 RES1 1

@<TRIPOS>CRYSIN
  19.7995   16.3084   16.8738  90.0000  99.9385  90.0000  15 1

