# MOL2 file generated by ConQuest
# Please check atom types

@<TRIPOS>MOLECULE
KASBAH
    20    20     1
SMALL
NO_CHARGES
****
Generated from CSD

@<TRIPOS>ATOM
      1 C1        -5.5601    2.0822    3.9585 C.ar      1 RES1    0.0000
      2 C2        -5.8601    0.9362    3.2373 C.ar      1 RES1    0.0000
      3 C3        -7.1721    0.5070    3.1317 C.ar      1 RES1    0.0000
      4 C4        -8.1927    1.2098    3.7319 C.ar      1 RES1    0.0000
      5 C5        -7.9043    2.3536    4.4445 C.ar      1 RES1    0.0000
      6 C6        -6.5843    2.7957    4.5672 C.ar      1 RES1    0.0000
      7 C7        -4.1368    2.5882    4.0416 C.3       1 RES1    0.0000
      8 N1        -3.3233    1.7146    4.9173 N.pl3     1 RES1    0.0000
      9 N2        -1.9222    1.8033    4.8242 N.pl3     1 RES1    0.0000
     10 C8        -3.7809    0.6854    5.6284 C.1       1 RES1    0.0000
     11 N3        -4.1657   -0.1859    6.2619 N.1       1 RES1    0.0000
     12 O1        -1.2847    0.9676    5.4476 O.2       1 RES1    0.0000
     13 O2        -1.4901    2.7190    4.1596 O.2       1 RES1    0.0000
     14 H1        -5.1341    0.4324    2.8065 H         1 RES1    0.0000
     15 H2        -7.3967   -0.2789    2.6527 H         1 RES1    0.0000
     16 H3        -9.1262    0.8854    3.6356 H         1 RES1    0.0000
     17 H4        -8.5681    2.8714    4.8451 H         1 RES1    0.0000
     18 H5        -6.3881    3.6184    5.1021 H         1 RES1    0.0000
     19 H6        -4.1122    3.4217    4.3979 H         1 RES1    0.0000
     20 H7        -3.6736    2.5330    3.1721 H         1 RES1    0.0000
@<TRIPOS>BOND
     1    1    2 ar
     2    2    3 ar
     3    3    4 ar
     4    4    5 ar
     5    5    6 ar
     6    6    1 ar
     7    7    1 1
     8    8    7 1
     9    9    8 1
    10   10    8 1
    11   11   10 3
    12   12    9 2
    13   13    9 2
    14   14    2 1
    15   15    3 1
    16   16    4 1
    17   17    5 1
    18   18    6 1
    19   19    7 1
    20   20    7 1
@<TRIPOS>SUBSTRUCTURE
     1 RES1 1

@<TRIPOS>CRYSIN
  10.0900   10.8110    8.4140  90.0000 112.6800  90.0000   9 1

