# MOL2 file generated by ConQuest
# Please check atom types

@<TRIPOS>MOLECULE
KASBEL
    24    23     1
SMALL
NO_CHARGES
****
Generated from CSD

@<TRIPOS>ATOM
      1 N1         1.7791    1.6493    0.3262 N.pl3     1 RES1    0.0000
      2 C1         2.7636    2.5053   -0.3629 C.3       1 RES1    0.0000
      3 C2         4.0861    2.5799    0.3593 C.3       1 RES1    0.0000
      4 C3         0.8503    2.1110    1.1878 C.1       1 RES1    0.0000
      5 N2         0.0696    2.5665    1.8885 N.1       1 RES1    0.0000
      6 N3         1.8163    0.2633    0.1707 N.pl3     1 RES1    0.0000
      7 O1         1.0515   -0.3870    0.8598 O.2       1 RES1    0.0000
      8 O2         2.6001   -0.1535   -0.6542 O.2       1 RES1    0.0000
      9 H1         2.9132    2.1540   -1.2432 H         1 RES1    0.0000
     10 H2         2.4033    3.3927   -0.4290 H         1 RES1    0.0000
     11 H3         4.4508    1.7021    0.4067 H         1 RES1    0.0000
     12 H4         3.9808    2.7940    1.3013 H         1 RES1    0.0000
     13 C2B        5.0679    3.4861   -0.3593 C.3       1 RES1    0.0000
     14 C1B        6.3904    3.5607    0.3629 C.3       1 RES1    0.0000
     15 H3B        4.7032    4.3639   -0.4067 H         1 RES1    0.0000
     16 H4B        5.1732    3.2720   -1.3013 H         1 RES1    0.0000
     17 N1B        7.3749    4.4167   -0.3262 N.pl3     1 RES1    0.0000
     18 H1B        6.2408    3.9120    1.2432 H         1 RES1    0.0000
     19 H2B        6.7507    2.6733    0.4290 H         1 RES1    0.0000
     20 C3B        8.3037    3.9550   -1.1878 C.1       1 RES1    0.0000
     21 N3B        7.3377    5.8027   -0.1707 N.pl3     1 RES1    0.0000
     22 N2B        9.0844    3.4995   -1.8885 N.1       1 RES1    0.0000
     23 O1B        8.1025    6.4530   -0.8598 O.2       1 RES1    0.0000
     24 O2B        6.5539    6.2195    0.6542 O.2       1 RES1    0.0000
@<TRIPOS>BOND
     1    1    2 1
     2    2    3 1
     3    3   11 1
     4    4    1 1
     5    5    4 3
     6    6    1 1
     7    7    6 2
     8    8    6 2
     9    9    2 1
    10   10    2 1
    11   12    3 1
    12   13    3 1
    13   14   13 1
    14   15   13 1
    15   16   13 1
    16   17   14 1
    17   18   14 1
    18   19   14 1
    19   20   17 1
    20   21   17 1
    21   22   20 3
    22   23   21 2
    23   24   21 2
@<TRIPOS>SUBSTRUCTURE
     1 RES1 1

@<TRIPOS>CRYSIN
   9.1540    6.0660    9.0920  90.0000 100.5700  90.0000 231 1

