# MOL2 file generated by ConQuest
# Please check atom types

@<TRIPOS>MOLECULE
KASNAT
    73    79     1
SMALL
NO_CHARGES
****
Generated from CSD

@<TRIPOS>ATOM
      1 N1        10.0169    0.9485    1.7912 N.am      1 RES1    0.0000
      2 C1        10.6375    1.9550    1.1032 C.2       1 RES1    0.0000
      3 C2        11.0100    1.7208   -1.4104 C.3       1 RES1    0.0000
      4 N2        13.3844    4.0481    0.1583 N.2       1 RES1    0.0000
      5 C3        13.7116    2.7207   -0.4263 C.3       1 RES1    0.0000
      6 C4        13.0196    1.5537    0.2601 C.3       1 RES1    0.0000
      7 C5        11.5072    1.3130    0.0125 C.3       1 RES1    0.0000
      8 C6        11.1931   -0.1829    0.2445 C.ar      1 RES1    0.0000
      9 C7        11.6773   -1.3117   -0.3855 C.ar      1 RES1    0.0000
     10 C8        11.3021   -2.5417    0.0172 C.ar      1 RES1    0.0000
     11 C9        10.4077   -2.6430    1.0813 C.ar      1 RES1    0.0000
     12 C10        9.9040   -1.5669    1.7943 C.ar      1 RES1    0.0000
     13 C11       10.3168   -0.3131    1.3383 C.ar      1 RES1    0.0000
     14 C12       10.8932    3.1995   -1.7363 C.3       1 RES1    0.0000
     15 C13       12.2602    3.8955   -1.8915 C.3       1 RES1    0.0000
     16 C14       13.3896    2.8575   -1.9213 C.3       1 RES1    0.0000
     17 C15       13.0417    1.6037   -2.6907 C.3       1 RES1    0.0000
     18 C16       12.7730    6.9937   -1.4966 C.3       1 RES1    0.0000
     19 C17       12.1641    6.0925   -0.4451 C.3       1 RES1    0.0000
     20 C18       12.6250    4.6822   -0.6535 C.2       1 RES1    0.0000
     21 C19        9.8871    1.0959    4.0807 C.3       1 RES1    0.0000
     22 C20       12.4212    6.6543    0.9434 C.3       1 RES1    0.0000
     23 C21       11.5683    6.0899    2.0654 C.3       1 RES1    0.0000
     24 C22       12.0733    6.4149    3.4790 C.3       1 RES1    0.0000
     25 C23       10.8607    7.0029    4.1951 C.3       1 RES1    0.0000
     26 C24       10.1545    6.6359    2.0122 C.2       1 RES1    0.0000
     27 C25       10.4895    6.0478    5.2874 C.3       1 RES1    0.0000
     28 C26       11.1853    4.7388    4.9489 C.3       1 RES1    0.0000
     29 C27       12.4978    5.2071    4.3330 C.3       1 RES1    0.0000
     30 C28       13.2339    4.0810    3.6075 C.3       1 RES1    0.0000
     31 C29       11.3515    3.7771    6.1415 C.3       1 RES1    0.0000
     32 O1         9.1523    1.1590    2.8474 O.3       1 RES1    0.0000
     33 O2        10.4946    3.1232    1.3602 O.2       1 RES1    0.0000
     34 O3        11.7708    1.0380   -2.3804 O.3       1 RES1    0.0000
     35 O4         9.7780    7.0950    3.2188 O.3       1 RES1    0.0000
     36 O5         9.4120    6.6898    1.0876 O.2       1 RES1    0.0000
     37 O6        14.3010    4.5586    2.8349 O.3       1 RES1    0.0000
     38 H1        10.1208    1.3669   -1.4840 H         1 RES1    0.0000
     39 H2        14.6580    2.5865   -0.3416 H         1 RES1    0.0000
     40 H3        13.1313    1.6800    1.2051 H         1 RES1    0.0000
     41 H4        13.4792    0.7565   -0.0141 H         1 RES1    0.0000
     42 H5        12.2862   -1.2104   -1.1205 H         1 RES1    0.0000
     43 H6        11.6708   -3.3193   -0.4074 H         1 RES1    0.0000
     44 H7        10.0987   -3.5245    1.2991 H         1 RES1    0.0000
     45 H8         9.3289   -1.6945    2.5512 H         1 RES1    0.0000
     46 H9        10.4038    3.2969   -2.5575 H         1 RES1    0.0000
     47 H10       10.3921    3.6363   -1.0437 H         1 RES1    0.0000
     48 H11       12.2797    4.4520   -2.6750 H         1 RES1    0.0000
     49 H12       14.1504    3.2640   -2.3444 H         1 RES1    0.0000
     50 H13       13.0625    1.8063   -3.6278 H         1 RES1    0.0000
     51 H14       13.7207    0.9459   -2.5215 H         1 RES1    0.0000
     52 H15       12.6042    6.6240   -2.3679 H         1 RES1    0.0000
     53 H16       13.7207    7.0608   -1.3555 H         1 RES1    0.0000
     54 H17       12.3783    7.8660   -1.4370 H         1 RES1    0.0000
     55 H18       11.2139    6.1004   -0.5814 H         1 RES1    0.0000
     56 H19        9.2912    1.2419    4.8204 H         1 RES1    0.0000
     57 H20       10.5699    1.7695    4.0823 H         1 RES1    0.0000
     58 H21       10.2908    0.2289    4.1622 H         1 RES1    0.0000
     59 H22       12.2654    7.6015    0.9074 H         1 RES1    0.0000
     60 H23       13.3416    6.4899    1.1628 H         1 RES1    0.0000
     61 H24       11.5293    5.1361    1.9651 H         1 RES1    0.0000
     62 H25       12.7834    7.0595    3.4414 H         1 RES1    0.0000
     63 H26       11.0672    7.8686    4.5540 H         1 RES1    0.0000
     64 H27       10.7958    6.3767    6.1352 H         1 RES1    0.0000
     65 H28        9.5379    5.9294    5.3281 H         1 RES1    0.0000
     66 H29       10.6725    4.2889    4.2735 H         1 RES1    0.0000
     67 H30       13.0612    5.5229    5.0429 H         1 RES1    0.0000
     68 H31       13.5662    3.4574    4.2562 H         1 RES1    0.0000
     69 H32       12.6146    3.6166    3.0402 H         1 RES1    0.0000
     70 H33       11.7890    2.9733    5.8516 H         1 RES1    0.0000
     71 H34       10.4908    3.5587    6.5082 H         1 RES1    0.0000
     72 H35       11.8850    4.2060    6.8153 H         1 RES1    0.0000
     73 H36       14.6826    3.9034    2.4494 H         1 RES1    0.0000
@<TRIPOS>BOND
     1    1    2 1
     2    2    7 1
     3    3    7 1
     4    4    5 1
     5    5    6 1
     6    6    7 1
     7    7    8 1
     8    8    9 ar
     9    9   10 ar
    10   10   11 ar
    11   11   12 ar
    12   12   13 ar
    13   13    1 1
    14   14    3 1
    15   15   14 1
    16   16    5 1
    17   17   16 1
    18   18   19 1
    19   19   20 1
    20   20    4 2
    21   21   32 1
    22   22   19 1
    23   23   22 1
    24   24   23 1
    25   25   24 1
    26   26   23 1
    27   27   25 1
    28   28   27 1
    29   29   24 1
    30   30   29 1
    31   31   28 1
    32   32    1 1
    33   33    2 2
    34   34    3 1
    35   35   25 1
    36   36   26 2
    37   37   30 1
    38   38    3 1
    39   39    5 1
    40   40    6 1
    41   41    6 1
    42   42    9 1
    43   43   10 1
    44   44   11 1
    45   45   12 1
    46   46   14 1
    47   47   14 1
    48   48   15 1
    49   49   16 1
    50   50   17 1
    51   51   17 1
    52   52   18 1
    53   53   18 1
    54   54   18 1
    55   55   19 1
    56   56   21 1
    57   57   21 1
    58   58   21 1
    59   59   22 1
    60   60   22 1
    61   61   23 1
    62   62   24 1
    63   63   25 1
    64   64   27 1
    65   65   27 1
    66   66   28 1
    67   67   29 1
    68   68   30 1
    69   69   30 1
    70   70   31 1
    71   71   31 1
    72   72   31 1
    73   73   37 1
    74    8   13 ar
    75   15   16 1
    76   15   20 1
    77   17   34 1
    78   26   35 1
    79   28   29 1
@<TRIPOS>SUBSTRUCTURE
     1 RES1 1

@<TRIPOS>CRYSIN
  12.9820   13.1560   15.6710  90.0000  90.0000  90.0000  19 1

