# MOL2 file generated by ConQuest
# Please check atom types

@<TRIPOS>MOLECULE
KASVOR
    26    25     1
SMALL
NO_CHARGES
****
Generated from CSD

@<TRIPOS>ATOM
      1 O1        11.9536    6.1945   10.3126 O.2       1 RES1    0.0000
      2 O2        10.6323    3.9869    7.2933 O.2       1 RES1    0.0000
      3 O3        10.7489    1.9679    8.0108 O.2       1 RES1    0.0000
      4 O4         8.6134    2.5590    9.8263 O.2       1 RES1    0.0000
      5 O5         9.9896    2.4938   11.4987 O.2       1 RES1    0.0000
      6 N1        12.3016    5.6374   11.3518 N.pl3     1 RES1    0.0000
      7 N2        12.3016    4.2742   11.3518 N.3       1 RES1    0.0000
      8 N3        10.6474    3.1589    8.1720 N.pl3     1 RES1    0.0000
      9 N4         9.6735    2.8152   10.3644 N.pl3     1 RES1    0.0000
     10 C1        12.0751    3.6043   10.0863 C.3       1 RES1    0.0000
     11 H1        12.3289    2.6518   10.1818 H         1 RES1    0.0000
     12 H2        12.6694    4.0051    9.4039 H         1 RES1    0.0000
     13 C2        10.6372    3.6784    9.5852 C.3       1 RES1    0.0000
     14 H3        10.3244    4.6279    9.5946 H         1 RES1    0.0000
     15 O1A       12.6495    6.1945   12.3911 O.2       1 RES1    0.0000
     16 O2A       13.9709    3.9869   15.4103 O.2       1 RES1    0.0000
     17 O3A       13.8542    1.9679   14.6929 O.2       1 RES1    0.0000
     18 O4A       15.9897    2.5590   12.8774 O.2       1 RES1    0.0000
     19 O5A       14.6135    2.4938   11.2050 O.2       1 RES1    0.0000
     20 N3A       13.9557    3.1589   14.5317 N.pl3     1 RES1    0.0000
     21 N4A       14.9297    2.8152   12.3393 N.pl3     1 RES1    0.0000
     22 C1A       12.5280    3.6043   12.6173 C.3       1 RES1    0.0000
     23 H1A       12.2742    2.6518   12.5218 H         1 RES1    0.0000
     24 H2A       11.9337    4.0051   13.2998 H         1 RES1    0.0000
     25 C2A       13.9660    3.6784   13.1185 C.3       1 RES1    0.0000
     26 H3A       14.2788    4.6279   13.1091 H         1 RES1    0.0000
@<TRIPOS>BOND
     1    1    6 2
     2    2    8 2
     3    3    8 2
     4    4    9 2
     5    5    9 2
     6    6    7 1
     7    7   10 1
     8    8   13 1
     9    9   13 1
    10   10   11 1
    11   12   10 1
    12   13   10 1
    13   14   13 1
    14   15    6 2
    15   16   20 2
    16   17   20 2
    17   18   21 2
    18   19   21 2
    19   20   25 1
    20   21   25 1
    21   22    7 1
    22   23   22 1
    23   24   22 1
    24   25   22 1
    25   26   25 1
@<TRIPOS>SUBSTRUCTURE
     1 RES1 1

@<TRIPOS>CRYSIN
  12.3630    5.8760   15.1360  90.0000  90.3100  90.0000  15 1

