# MOL2 file generated by ConQuest
# Please check atom types

@<TRIPOS>MOLECULE
KATCIS
    28    29     1
SMALL
NO_CHARGES
****
Generated from CSD

@<TRIPOS>ATOM
      1 O1         8.6976   -1.2698    0.4932 O.2       1 RES1    0.0000
      2 O2         6.7335   -0.4802    0.8483 O.2       1 RES1    0.0000
      3 O3         6.1668   -5.6220   -4.1684 O.2       1 RES1    0.0000
      4 N1         7.4979   -1.2385    0.2741 N.pl3     1 RES1    0.0000
      5 N2         2.7713   -4.9199   -6.4216 N.pl3     1 RES1    0.0000
      6 N3         2.6498   -3.7467   -7.0788 N.2       1 RES1    0.0000
      7 N4         0.8212   -5.0036   -7.3862 N.2       1 RES1    0.0000
      8 C1         7.2226   -4.0443   -2.1438 C.ar      1 RES1    0.0000
      9 H1         7.7251   -4.7681   -2.4403 H         1 RES1    0.0000
     10 C2         7.7339   -3.2088   -1.1741 C.ar      1 RES1    0.0000
     11 H2         8.5819   -3.3525   -0.8213 H         1 RES1    0.0000
     12 C3         6.9592   -2.1567   -0.7408 C.ar      1 RES1    0.0000
     13 C4         5.6906   -1.9158   -1.2283 C.ar      1 RES1    0.0000
     14 H3         5.1810   -1.2093   -0.9023 H         1 RES1    0.0000
     15 C5         5.1970   -2.7481   -2.2123 C.ar      1 RES1    0.0000
     16 H4         4.3500   -2.5947   -2.5640 H         1 RES1    0.0000
     17 C6         5.9547   -3.8121   -2.6831 C.ar      1 RES1    0.0000
     18 C7         5.4883   -4.6952   -3.7946 C.2       1 RES1    0.0000
     19 C8         4.1676   -4.4019   -4.4565 C.3       1 RES1    0.0000
     20 H5         3.4469   -4.5774   -3.8311 H         1 RES1    0.0000
     21 H6         4.1309   -3.4643   -4.7036 H         1 RES1    0.0000
     22 C9         3.9842   -5.2509   -5.6857 C.3       1 RES1    0.0000
     23 H7         4.7503   -5.1337   -6.2693 H         1 RES1    0.0000
     24 H8         3.9507   -6.1843   -5.4246 H         1 RES1    0.0000
     25 C10        1.6871   -5.6366   -6.6236 C.2       1 RES1    0.0000
     26 H9         1.5496   -6.4862   -6.2714 H         1 RES1    0.0000
     27 C11        1.4710   -3.8666   -7.6385 C.2       1 RES1    0.0000
     28 H10        1.1103   -3.2007   -8.1784 H         1 RES1    0.0000
@<TRIPOS>BOND
     1    1    4 2
     2    2    4 2
     3    3   18 2
     4    4   12 1
     5    5    6 1
     6    6   27 2
     7    7   25 2
     8    8    9 1
     9   10    8 ar
    10   11   10 1
    11   12   10 ar
    12   13   12 ar
    13   14   13 1
    14   15   13 ar
    15   16   15 1
    16   17    8 ar
    17   18   17 1
    18   19   18 1
    19   20   19 1
    20   21   19 1
    21   22    5 1
    22   23   22 1
    23   24   22 1
    24   25    5 1
    25   26   25 1
    26   27    7 1
    27   28   27 1
    28   15   17 ar
    29   19   22 1
@<TRIPOS>SUBSTRUCTURE
     1 RES1 1

@<TRIPOS>CRYSIN
   9.8529    5.4011   21.9132  90.0000 103.2330  90.0000  14 1

