# MOL2 file generated by ConQuest
# Please check atom types

@<TRIPOS>MOLECULE
KATHOE
    55    59     1
SMALL
NO_CHARGES
****
Generated from CSD

@<TRIPOS>ATOM
      1 C1         5.5520   10.5883    3.5423 C.2       1 RES1    0.0000
      2 C2         4.8001   11.6740    3.6486 C.2       1 RES1    0.0000
      3 H1         5.0330   12.4558    3.2005 H         1 RES1    0.0000
      4 C3         3.5597   11.6210    4.5093 C.3       1 RES1    0.0000
      5 H2         3.1892   12.5063    4.7082 H         1 RES1    0.0000
      6 C4         2.5435   10.6726    3.9058 C.2       1 RES1    0.0000
      7 H3         1.8529   10.9229    3.3365 H         1 RES1    0.0000
      8 C5         2.7826    9.4472    4.3058 C.2       1 RES1    0.0000
      9 H4         2.2770    8.7009    4.0772 H         1 RES1    0.0000
     10 C6         4.0152    9.4296    5.2031 C.3       1 RES1    0.0000
     11 H5         3.9800    8.7380    5.8970 H         1 RES1    0.0000
     12 C7         5.2370    9.2910    4.2624 C.3       1 RES1    0.0000
     13 H6         5.0304    8.6094    3.5892 H         1 RES1    0.0000
     14 C8         3.9605   10.8426    5.7609 C.3       1 RES1    0.0000
     15 H7         4.8241   11.1269    6.0981 H         1 RES1    0.0000
     16 H8         3.2960   10.9254    6.4628 H         1 RES1    0.0000
     17 C9         6.6047    8.9788    4.8499 C.2       1 RES1    0.0000
     18 C10        7.5576    9.6160    4.1813 C.2       1 RES1    0.0000
     19 H9         8.4654    9.5105    4.3516 H         1 RES1    0.0000
     20 C11        7.0076   10.5302    3.1125 C.3       1 RES1    0.0000
     21 H10        7.4157   11.4189    3.1902 H         1 RES1    0.0000
     22 C12        7.1957    9.9931    1.7043 C.3       1 RES1    0.0000
     23 H11        6.8063    9.1084    1.6220 H         1 RES1    0.0000
     24 H12        6.7763   10.5798    1.0562 H         1 RES1    0.0000
     25 C13        9.0673    9.4697    0.2995 C.ar      1 RES1    0.0000
     26 C14        8.2571    9.0852   -0.7453 C.ar      1 RES1    0.0000
     27 H13        7.3329    9.1505   -0.6721 H         1 RES1    0.0000
     28 C15        8.8311    8.5993   -1.9055 C.ar      1 RES1    0.0000
     29 H14        8.2834    8.3477   -2.6130 H         1 RES1    0.0000
     30 C16       10.1932    8.4805   -2.0358 C.ar      1 RES1    0.0000
     31 H15       10.5748    8.1490   -2.8165 H         1 RES1    0.0000
     32 C17       10.9684    8.8678   -0.9762 C.ar      1 RES1    0.0000
     33 C18       10.4507    9.3673    0.1955 C.ar      1 RES1    0.0000
     34 H16       11.0061    9.6268    0.8939 H         1 RES1    0.0000
     35 C19        6.7568    8.0591    6.0010 C.3       1 RES1    0.0000
     36 H17        6.4111    8.4763    6.8057 H         1 RES1    0.0000
     37 H18        6.2583    7.2433    5.8421 H         1 RES1    0.0000
     38 C20        8.5570    7.1945    7.3338 C.ar      1 RES1    0.0000
     39 C21        7.7335    6.8365    8.3842 C.ar      1 RES1    0.0000
     40 H19        6.8117    6.9267    8.3088 H         1 RES1    0.0000
     41 C22        8.2879    6.3438    9.5444 C.ar      1 RES1    0.0000
     42 H20        7.7294    6.1156   10.2520 H         1 RES1    0.0000
     43 C23        9.6528    6.1786    9.6816 C.ar      1 RES1    0.0000
     44 H21       10.0251    5.8576   10.4714 H         1 RES1    0.0000
     45 C24       10.4399    6.5100    8.6025 C.ar      1 RES1    0.0000
     46 C25        9.9313    7.0054    7.4366 C.ar      1 RES1    0.0000
     47 H22       10.4925    7.2105    6.7234 H         1 RES1    0.0000
     48 N1        12.4359    8.7163   -1.0676 N.pl3     1 RES1    0.0000
     49 N2        11.9037    6.3850    8.7283 N.pl3     1 RES1    0.0000
     50 O1         8.6179    9.9404    1.4941 O.3       1 RES1    0.0000
     51 O2        13.1201    9.1102   -0.1600 O.2       1 RES1    0.0000
     52 O3        12.8937    8.2282   -2.0861 O.2       1 RES1    0.0000
     53 O4         8.1454    7.7591    6.1652 O.3       1 RES1    0.0000
     54 O5        12.6045    6.6970    7.7773 O.2       1 RES1    0.0000
     55 O6        12.3626    5.9946    9.7902 O.2       1 RES1    0.0000
@<TRIPOS>BOND
     1    1    2 2
     2    2    3 1
     3    4    2 1
     4    5    4 1
     5    6    4 1
     6    7    6 1
     7    8    6 2
     8    9    8 1
     9   10    8 1
    10   11   10 1
    11   12    1 1
    12   13   12 1
    13   14    4 1
    14   15   14 1
    15   16   14 1
    16   17   12 1
    17   18   17 2
    18   19   18 1
    19   20    1 1
    20   21   20 1
    21   22   20 1
    22   23   22 1
    23   24   22 1
    24   25   26 ar
    25   26   27 1
    26   28   26 ar
    27   29   28 1
    28   30   28 ar
    29   31   30 1
    30   32   30 ar
    31   33   25 ar
    32   34   33 1
    33   35   17 1
    34   36   35 1
    35   37   35 1
    36   38   39 ar
    37   39   40 1
    38   41   39 ar
    39   42   41 1
    40   43   41 ar
    41   44   43 1
    42   45   43 ar
    43   46   38 ar
    44   47   46 1
    45   48   32 1
    46   49   45 1
    47   50   22 1
    48   51   48 2
    49   52   48 2
    50   53   35 1
    51   54   49 2
    52   55   49 2
    53   10   12 1
    54   10   14 1
    55   18   20 1
    56   25   50 1
    57   32   33 ar
    58   38   53 1
    59   45   46 ar
@<TRIPOS>SUBSTRUCTURE
     1 RES1 1

@<TRIPOS>CRYSIN
   8.5101   11.2834   11.5667  83.0110  83.9090  83.4460   2 1

