# MOL2 file generated by ConQuest
# Please check atom types

@<TRIPOS>MOLECULE
KATNID
    30    31     1
SMALL
NO_CHARGES
****
Generated from CSD

@<TRIPOS>ATOM
      1 O1        10.3450   -3.6229    1.9053 O.2       1 RES1    0.0000
      2 O2        11.8819   -2.3387    2.6335 O.2       1 RES1    0.0000
      3 N1        10.9242    2.4593    3.3659 N.2       1 RES1    0.0000
      4 N2        10.7202   -2.5679    2.3706 N.pl3     1 RES1    0.0000
      5 C1        12.7531    7.7495    4.5799 C.3       1 RES1    0.0000
      6 H1        13.6813    7.8165    4.3413 H         1 RES1    0.0000
      7 H2        12.6538    7.9070    5.5219 H         1 RES1    0.0000
      8 H3        12.2488    8.4028    4.0905 H         1 RES1    0.0000
      9 C2        12.2462    6.3667    4.2446 C.ar      1 RES1    0.0000
     10 C3        11.0581    6.1736    3.5619 C.ar      1 RES1    0.0000
     11 H4        10.5587    6.9142    3.3026 H         1 RES1    0.0000
     12 C4        10.5980    4.9145    3.2572 C.ar      1 RES1    0.0000
     13 H5         9.7982    4.8132    2.7926 H         1 RES1    0.0000
     14 C5        11.3218    3.7946    3.6394 C.ar      1 RES1    0.0000
     15 C6        12.5135    3.9716    4.2965 C.ar      1 RES1    0.0000
     16 H6        13.0213    3.2315    4.5387 H         1 RES1    0.0000
     17 C7        12.9649    5.2439    4.6027 C.ar      1 RES1    0.0000
     18 H7        13.7698    5.3444    5.0580 H         1 RES1    0.0000
     19 C8         9.7023    2.1401    3.3801 C.2       1 RES1    0.0000
     20 H8         9.0658    2.7909    3.5733 H         1 RES1    0.0000
     21 C9         9.2611    0.7704    3.0995 C.ar      1 RES1    0.0000
     22 C10        7.9082    0.4487    3.0711 C.ar      1 RES1    0.0000
     23 H9         7.2752    1.1108    3.2288 H         1 RES1    0.0000
     24 C11        7.4953   -0.8426    2.8118 C.ar      1 RES1    0.0000
     25 H10        6.5871   -1.0413    2.7947 H         1 RES1    0.0000
     26 C12        8.4022   -1.8267    2.5802 C.ar      1 RES1    0.0000
     27 H11        8.1243   -2.6964    2.4033 H         1 RES1    0.0000
     28 C13        9.7352   -1.5106    2.6143 C.ar      1 RES1    0.0000
     29 C14       10.1868   -0.2417    2.8743 C.ar      1 RES1    0.0000
     30 H12       11.0993   -0.0616    2.8999 H         1 RES1    0.0000
@<TRIPOS>BOND
     1    1    4 2
     2    2    4 2
     3    3   14 1
     4    4   28 1
     5    5    6 1
     6    7    5 1
     7    8    5 1
     8    9    5 1
     9   10    9 ar
    10   11   10 1
    11   12   10 ar
    12   13   12 1
    13   14   12 ar
    14   15   14 ar
    15   16   15 1
    16   17    9 ar
    17   18   17 1
    18   19    3 2
    19   20   19 1
    20   21   19 1
    21   22   21 ar
    22   23   22 1
    23   24   22 ar
    24   25   24 1
    25   26   24 ar
    26   27   26 1
    27   28   26 ar
    28   29   21 ar
    29   30   29 1
    30   15   17 ar
    31   28   29 ar
@<TRIPOS>SUBSTRUCTURE
     1 RES1 1

@<TRIPOS>CRYSIN
  13.4130   13.1150    7.1040  90.0000  90.0000  90.0000  29 1

