# MOL2 file generated by ConQuest
# Please check atom types

@<TRIPOS>MOLECULE
KAVFUI01
    13    13     1
SMALL
NO_CHARGES
****
Generated from CSD

@<TRIPOS>ATOM
      1 N1         1.7678    4.0646    4.8205 N.pl3     1 RES1    0.0000
      2 N2         1.4634    6.2507    5.8674 N.2       1 RES1    0.0000
      3 O1         1.2887    2.9595    4.6295 O.2       1 RES1    0.0000
      4 N3        -1.6516    6.1286    7.5906 N.pl3     1 RES1    0.0000
      5 N4        -0.4874    5.8997    6.8044 N.pl3     1 RES1    0.0000
      6 C1         0.9990    4.9860    5.6141 C.2       1 RES1    0.0000
      7 O2         2.8530    4.4397    4.3847 O.2       1 RES1    0.0000
      8 O3        -2.3337    5.1601    7.8049 O.2       1 RES1    0.0000
      9 C2        -0.1871    4.7253    6.1692 C.2       1 RES1    0.0000
     10 H1        -0.6851    3.9405    6.1322 H         1 RES1    0.0000
     11 O4        -1.7903    7.2674    7.9558 O.2       1 RES1    0.0000
     12 C3         0.5334    6.7826    6.5892 C.2       1 RES1    0.0000
     13 H2         0.5558    7.6521    6.9195 H         1 RES1    0.0000
@<TRIPOS>BOND
     1    1    3 2
     2    2    6 1
     3    4    5 1
     4    5    9 1
     5    6    1 1
     6    7    1 2
     7    8    4 2
     8    9    6 2
     9   10    9 1
    10   11    4 2
    11   12    2 2
    12   13   12 1
    13    5   12 1
@<TRIPOS>SUBSTRUCTURE
     1 RES1 1

@<TRIPOS>CRYSIN
   5.9007    9.6180   10.5528  90.0000  90.0000  90.0000  19 1

