# MOL2 file generated by ConQuest
# Please check atom types

@<TRIPOS>MOLECULE
KAVFUI
    13    13     1
SMALL
NO_CHARGES
****
Generated from CSD

@<TRIPOS>ATOM
      1 N1        -3.4193   10.6949    3.6808 N.pl3     1 RES1    0.0000
      2 N2        -4.5829   10.9395    2.9046 N.pl3     1 RES1    0.0000
      3 O1        -4.7409   12.0914    2.5533 O.2       1 RES1    0.0000
      4 O2        -5.2648    9.9708    2.6749 O.2       1 RES1    0.0000
      5 C1        -2.3997   11.5917    3.8876 C.2       1 RES1    0.0000
      6 H1        -2.3845   12.5115    3.5489 H         1 RES1    0.0000
      7 N3        -1.4574   11.0460    4.5985 N.2       1 RES1    0.0000
      8 C2        -1.9174    9.7704    4.8437 C.2       1 RES1    0.0000
      9 N4        -1.1513    8.8400    5.6314 N.pl3     1 RES1    0.0000
     10 O3        -1.6429    7.7361    5.8206 O.2       1 RES1    0.0000
     11 O4        -0.0439    9.2035    6.0378 O.2       1 RES1    0.0000
     12 C3        -3.1255    9.5037    4.2929 C.2       1 RES1    0.0000
     13 H2        -3.6511    8.6770    4.3241 H         1 RES1    0.0000
@<TRIPOS>BOND
     1    1    2 1
     2    2    3 2
     3    4    2 2
     4    5    1 1
     5    6    5 1
     6    7    5 2
     7    8    7 1
     8    9    8 1
     9   10    9 2
    10   11    9 2
    11   12    1 1
    12   13   12 1
    13    8   12 2
@<TRIPOS>SUBSTRUCTURE
     1 RES1 1

@<TRIPOS>CRYSIN
   5.8530    9.5910   10.3920  90.0000  90.0000  90.0000  19 1

