# MOL2 file generated by ConQuest
# Please check atom types

@<TRIPOS>MOLECULE
KAVRUU
    36    38     1
SMALL
NO_CHARGES
****
Generated from CSD

@<TRIPOS>ATOM
      1 O1        13.2882    2.1426    7.3865 O.2       1 RES1    0.0000
      2 N1        14.5470    2.3788    7.5410 N.pl3     1 RES1    0.0000
      3 C1        15.1801    2.7184    8.6223 C.2       1 RES1    0.0000
      4 C2        16.6371    2.9173    8.3949 C.3       1 RES1    0.0000
      5 C3        16.8231    2.2514    7.0209 C.3       1 RES1    0.0000
      6 C4        15.4582    2.3862    6.3371 C.3       1 RES1    0.0000
      7 C5        15.0993    1.2160    5.4358 C.3       1 RES1    0.0000
      8 C6        15.3076    3.7304    5.6329 C.ar      1 RES1    0.0000
      9 C7        16.0698    3.9653    4.4968 C.ar      1 RES1    0.0000
     10 C8        16.0152    5.1695    3.8360 C.ar      1 RES1    0.0000
     11 C9        15.1873    6.1812    4.2907 C.ar      1 RES1    0.0000
     12 C10       14.4157    5.9652    5.4112 C.ar      1 RES1    0.0000
     13 C11       14.4757    4.7500    6.0795 C.ar      1 RES1    0.0000
     14 C12       17.4971    2.3689    9.5065 C.ar      1 RES1    0.0000
     15 C13       18.4084    3.1770   10.1673 C.ar      1 RES1    0.0000
     16 C14       19.1620    2.6909   11.2200 C.ar      1 RES1    0.0000
     17 C15       19.0169    1.3860   11.6289 C.ar      1 RES1    0.0000
     18 C16       18.1305    0.5625   10.9713 C.ar      1 RES1    0.0000
     19 C17       17.3743    1.0418    9.9146 C.ar      1 RES1    0.0000
     20 H1        14.6880    2.8420    9.4876 H         1 RES1    0.0000
     21 H2        16.7961    3.8889    8.3475 H         1 RES1    0.0000
     22 H3        17.0069    1.2716    7.1673 H         1 RES1    0.0000
     23 H4        17.5436    2.6454    6.5015 H         1 RES1    0.0000
     24 H5        15.1833    0.3703    5.9429 H         1 RES1    0.0000
     25 H6        15.6978    1.2052    4.6661 H         1 RES1    0.0000
     26 H7        14.1690    1.3099    5.0988 H         1 RES1    0.0000
     27 H8        16.6929    3.2659    4.2253 H         1 RES1    0.0000
     28 H9        16.5661    5.3138    3.0483 H         1 RES1    0.0000
     29 H10       15.1214    7.0348    3.7861 H         1 RES1    0.0000
     30 H11       13.8167    6.7054    5.7597 H         1 RES1    0.0000
     31 H12       13.9302    4.5988    6.8655 H         1 RES1    0.0000
     32 H13       18.5018    4.0907    9.8876 H         1 RES1    0.0000
     33 H14       19.8124    3.2965   11.7279 H         1 RES1    0.0000
     34 H15       19.5721    1.0265   12.4206 H         1 RES1    0.0000
     35 H16       18.0419   -0.3830   11.1864 H         1 RES1    0.0000
     36 H17       16.7475    0.4341    9.4198 H         1 RES1    0.0000
@<TRIPOS>BOND
     1    1    2 1
     2    2    3 2
     3    3    4 1
     4    4    5 1
     5    5    6 1
     6    6    2 1
     7    7    6 1
     8    8    6 1
     9    9    8 ar
    10   10    9 ar
    11   11   10 ar
    12   12   11 ar
    13   13    8 ar
    14   14    4 1
    15   15   14 ar
    16   16   15 ar
    17   17   16 ar
    18   18   17 ar
    19   19   14 ar
    20   20    3 1
    21   21    4 1
    22   22    5 1
    23   23    5 1
    24   24    7 1
    25   25    7 1
    26   26    7 1
    27   27    9 1
    28   28   10 1
    29   29   11 1
    30   30   12 1
    31   31   13 1
    32   32   15 1
    33   33   16 1
    34   34   17 1
    35   35   18 1
    36   36   19 1
    37   12   13 ar
    38   18   19 ar
@<TRIPOS>SUBSTRUCTURE
     1 RES1 1

@<TRIPOS>CRYSIN
  29.4850   29.4850    8.1790  90.0000  90.0000 120.0000 233 1

