# MOL2 file generated by ConQuest
# Please check atom types

@<TRIPOS>MOLECULE
KAVYEO
   116   124     1
SMALL
NO_CHARGES
****
Generated from CSD

@<TRIPOS>ATOM
      1 C1         9.9955    2.9978   10.6208 C.3       1 RES1    0.0000
      2 H1        10.4876    3.5090    9.9572 H         1 RES1    0.0000
      3 H2        10.1568    2.0607   10.4429 H         1 RES1    0.0000
      4 C2        12.8588   11.1749    2.6328 C.3       1 RES1    0.0000
      5 H3        12.8816   10.7286    3.4943 H         1 RES1    0.0000
      6 H4        13.5235   11.8824    2.6494 H         1 RES1    0.0000
      7 C3         8.5405    3.2696   10.4279 C.2       1 RES1    0.0000
      8 H5         8.0055    2.8807    9.7743 H         1 RES1    0.0000
      9 C4        11.4942   11.7918    2.4415 C.2       1 RES1    0.0000
     10 H6        11.2901   12.5915    2.8706 H         1 RES1    0.0000
     11 C5         8.1030    4.2135   11.3925 C.2       1 RES1    0.0000
     12 H7         7.2025    4.4249   11.3027 H         1 RES1    0.0000
     13 C6        10.5738   11.2134    1.6715 C.2       1 RES1    0.0000
     14 H8         9.7417   11.6204    1.6099 H         1 RES1    0.0000
     15 C7         8.7160    4.9007   12.4752 C.3       1 RES1    0.0000
     16 H9         8.4776    4.4831   13.3184 H         1 RES1    0.0000
     17 H10        8.4164    5.8234   12.4952 H         1 RES1    0.0000
     18 C8        10.7858   10.0052    0.9280 C.3       1 RES1    0.0000
     19 H11       10.8626   10.2295   -0.0116 H         1 RES1    0.0000
     20 H12       10.0067    9.4389    1.0295 H         1 RES1    0.0000
     21 C9        10.2201    4.8327   12.2623 C.3       1 RES1    0.0000
     22 H13       10.4906    5.3817   11.4956 H         1 RES1    0.0000
     23 C10       12.0303    9.2048    1.3471 C.3       1 RES1    0.0000
     24 H14       11.8356    8.8099    2.2220 H         1 RES1    0.0000
     25 C11       10.8788    5.3235   13.5296 C.3       1 RES1    0.0000
     26 H15       10.6104    4.7557   14.2731 H         1 RES1    0.0000
     27 H16       10.5830    6.2266   13.7209 H         1 RES1    0.0000
     28 C12       12.3364    8.0865    0.4274 C.3       1 RES1    0.0000
     29 H17       12.4481    8.4406   -0.4690 H         1 RES1    0.0000
     30 H18       11.5796    7.4801    0.4108 H         1 RES1    0.0000
     31 C13       12.4676    5.2941   13.3750 C.3       1 RES1    0.0000
     32 H19       12.7363    5.9042   12.6698 H         1 RES1    0.0000
     33 H20       12.8810    5.5840   14.2016 H         1 RES1    0.0000
     34 C14       13.5870    7.3004    0.8066 C.3       1 RES1    0.0000
     35 H21       13.4145    6.8058    1.6232 H         1 RES1    0.0000
     36 H22       13.7777    6.6570    0.1064 H         1 RES1    0.0000
     37 C15       12.9157    3.9198   13.0440 C.3       1 RES1    0.0000
     38 H23       12.7213    3.3383   13.8091 H         1 RES1    0.0000
     39 C16       14.7994    8.1748    1.0129 C.3       1 RES1    0.0000
     40 H24       15.0464    8.5750    0.1530 H         1 RES1    0.0000
     41 C17       12.1866    3.3542   11.8016 C.3       1 RES1    0.0000
     42 H25       12.3684    3.9598   11.0532 H         1 RES1    0.0000
     43 C18       14.4514    9.3120    2.0041 C.3       1 RES1    0.0000
     44 H26       14.1686    8.8710    2.8323 H         1 RES1    0.0000
     45 C19       10.5784    3.3376   12.0295 C.3       1 RES1    0.0000
     46 C20       13.2412   10.1630    1.5401 C.3       1 RES1    0.0000
     47 C21       12.7005    1.9640   11.4025 C.3       1 RES1    0.0000
     48 H27       12.4566    1.3267   12.0927 H         1 RES1    0.0000
     49 H28       12.2672    1.6899   10.5792 H         1 RES1    0.0000
     50 C22       15.6827   10.1502    2.3716 C.3       1 RES1    0.0000
     51 H29       15.4433   10.7807    3.0685 H         1 RES1    0.0000
     52 H30       15.9670   10.6576    1.5950 H         1 RES1    0.0000
     53 C23       14.2109    1.9353   11.2062 C.3       1 RES1    0.0000
     54 H31       14.4967    1.0232   11.0383 H         1 RES1    0.0000
     55 H32       14.4432    2.4692   10.4296 H         1 RES1    0.0000
     56 C24       16.8585    9.2720    2.8606 C.3       1 RES1    0.0000
     57 H33       17.6281    9.8346    3.0352 H         1 RES1    0.0000
     58 H34       16.6118    8.8371    3.6922 H         1 RES1    0.0000
     59 C25       14.9409    2.4722   12.4220 C.3       1 RES1    0.0000
     60 C26       17.2221    8.2247    1.8361 C.3       1 RES1    0.0000
     61 C27       14.3871    3.8579   12.7613 C.3       1 RES1    0.0000
     62 H35       14.5400    4.4151   11.9696 H         1 RES1    0.0000
     63 C28       15.9804    7.3857    1.5301 C.3       1 RES1    0.0000
     64 H36       15.6944    6.9999    2.3849 H         1 RES1    0.0000
     65 C29       15.3567    4.3645   13.8340 C.3       1 RES1    0.0000
     66 H37       15.0899    4.0572   14.7138 H         1 RES1    0.0000
     67 H38       15.3941    5.3333   13.8357 H         1 RES1    0.0000
     68 C30       16.5265    6.2334    0.7102 C.3       1 RES1    0.0000
     69 H39       16.5895    6.4773   -0.2279 H         1 RES1    0.0000
     70 H40       15.9589    5.4519    0.7917 H         1 RES1    0.0000
     71 C31       16.7322    3.7597   13.4315 C.3       1 RES1    0.0000
     72 H41       17.3514    4.4597   13.1687 H         1 RES1    0.0000
     73 H42       17.1179    3.2643   14.1716 H         1 RES1    0.0000
     74 C32       17.9268    5.9578    1.3006 C.3       1 RES1    0.0000
     75 H43       17.9421    5.1008    1.7546 H         1 RES1    0.0000
     76 H44       18.5933    5.9472    0.5971 H         1 RES1    0.0000
     77 C33       16.4395    2.8203   12.2440 C.3       1 RES1    0.0000
     78 C34       18.2090    7.0943    2.2918 C.3       1 RES1    0.0000
     79 C35       14.8125    1.4853   13.5762 C.3       1 RES1    0.0000
     80 H45       15.4118    1.7390   14.2814 H         1 RES1    0.0000
     81 H46       15.0350    0.6033   13.2702 H         1 RES1    0.0000
     82 H47       13.9110    1.4936   13.9055 H         1 RES1    0.0000
     83 C36       17.8156    8.8960    0.5904 C.3       1 RES1    0.0000
     84 H48       18.5786    9.4208    0.8415 H         1 RES1    0.0000
     85 H49       17.1544    9.4653    0.1879 H         1 RES1    0.0000
     86 H50       18.0839    8.2224   -0.0383 H         1 RES1    0.0000
     87 C37       10.1669    2.3559   13.0939 C.3       1 RES1    0.0000
     88 H51       10.6933    2.5002   13.8839 H         1 RES1    0.0000
     89 H52       10.3060    1.4611   12.7746 H         1 RES1    0.0000
     90 H53        9.2351    2.4798   13.3018 H         1 RES1    0.0000
     91 C38       13.5182   10.8993    0.2611 C.3       1 RES1    0.0000
     92 H54       12.7244   11.3561   -0.0249 H         1 RES1    0.0000
     93 H55       13.7867   10.2748   -0.4158 H         1 RES1    0.0000
     94 H56       14.2202   11.5381    0.4041 H         1 RES1    0.0000
     95 C39       16.6743    3.5150   10.9717 C.1       1 RES1    0.0000
     96 C40       17.9257    6.6789    3.6938 C.1       1 RES1    0.0000
     97 C41       16.8366    4.1055    9.9605 C.1       1 RES1    0.0000
     98 C42       17.7115    6.3316    4.7982 C.1       1 RES1    0.0000
     99 C43       17.0125    4.7308    8.6816 C.ar      1 RES1    0.0000
    100 C44       17.0582    6.0605    8.4920 C.ar      1 RES1    0.0000
    101 C45       17.2872    6.6004    7.2496 C.ar      1 RES1    0.0000
    102 H57       17.3251    7.5262    7.1698 H         1 RES1    0.0000
    103 C46       17.4632    5.8415    6.1220 C.ar      1 RES1    0.0000
    104 C47       17.3950    4.4725    6.3050 C.ar      1 RES1    0.0000
    105 C48       17.1989    3.9424    7.5606 C.ar      1 RES1    0.0000
    106 H58       17.1938    3.0182    7.6588 H         1 RES1    0.0000
    107 N1        17.4342    3.6200    5.3071 N.3       1 RES1    0.0000
    108 H59       17.3421    2.7788    5.4568 H         1 RES1    0.0000
    109 H60       17.5553    3.9039    4.5038 H         1 RES1    0.0000
    110 N2        17.0172    7.0829    9.6163 N.pl3     1 RES1    0.0000
    111 O1        19.5847    7.4401    2.1980 O.3       1 RES1    0.0000
    112 H61       19.7459    8.0600    2.7093 H         1 RES1    0.0000
    113 O2        17.3292    1.7020   12.3315 O.3       1 RES1    0.0000
    114 O3        16.5741    6.6971   10.6823 O.2       1 RES1    0.0000
    115 O4        17.3777    8.2073    9.4866 O.2       1 RES1    0.0000
    116 H62       17.2329    1.2157   11.6087 H         1 RES1    0.0000
@<TRIPOS>BOND
     1    1    2 1
     2    3    1 1
     3    4    5 1
     4    6    4 1
     5    7    1 1
     6    8    7 1
     7    9    4 1
     8   10    9 1
     9   11    7 2
    10   12   11 1
    11   13    9 2
    12   14   13 1
    13   15   11 1
    14   16   15 1
    15   17   15 1
    16   18   13 1
    17   19   18 1
    18   20   18 1
    19   21   15 1
    20   22   21 1
    21   23   18 1
    22   24   23 1
    23   25   21 1
    24   26   25 1
    25   27   25 1
    26   28   23 1
    27   29   28 1
    28   30   28 1
    29   31   25 1
    30   32   31 1
    31   33   31 1
    32   34   28 1
    33   35   34 1
    34   36   34 1
    35   37   31 1
    36   38   37 1
    37   39   34 1
    38   40   39 1
    39   41   37 1
    40   42   41 1
    41   43   39 1
    42   44   43 1
    43   45    1 1
    44   46    4 1
    45   47   41 1
    46   48   47 1
    47   49   47 1
    48   50   43 1
    49   51   50 1
    50   52   50 1
    51   53   47 1
    52   54   53 1
    53   55   53 1
    54   56   50 1
    55   57   56 1
    56   58   56 1
    57   59   53 1
    58   60   56 1
    59   61   37 1
    60   62   61 1
    61   63   39 1
    62   64   63 1
    63   65   61 1
    64   66   65 1
    65   67   65 1
    66   68   63 1
    67   69   68 1
    68   70   68 1
    69   71   65 1
    70   72   71 1
    71   73   71 1
    72   74   68 1
    73   75   74 1
    74   76   74 1
    75   77   59 1
    76   78   60 1
    77   79   59 1
    78   80   79 1
    79   81   79 1
    80   82   79 1
    81   83   60 1
    82   84   83 1
    83   85   83 1
    84   86   83 1
    85   87   45 1
    86   88   87 1
    87   89   87 1
    88   90   87 1
    89   91   46 1
    90   92   91 1
    91   93   91 1
    92   94   91 1
    93   95   77 1
    94   96   78 1
    95   97   95 3
    96   98   96 3
    97   99   97 1
    98  100   99 ar
    99  101  100 ar
   100  102  101 1
   101  103   98 1
   102  104  103 ar
   103  105   99 ar
   104  106  105 1
   105  107  104 1
   106  108  107 1
   107  109  107 1
   108  110  100 1
   109  111   78 1
   110  112  111 1
   111  113   77 1
   112  114  110 2
   113  115  110 2
   114  116  113 1
   115   21   45 1
   116   23   46 1
   117   41   45 1
   118   43   46 1
   119   59   61 1
   120   60   63 1
   121   71   77 1
   122   74   78 1
   123  101  103 ar
   124  104  105 ar
@<TRIPOS>SUBSTRUCTURE
     1 RES1 1

@<TRIPOS>CRYSIN
  39.1690    7.5511   16.7020  90.0000  95.2700  90.0000   5 1

