# MOL2 file generated by ConQuest
# Please check atom types

@<TRIPOS>MOLECULE
KAVYIS
   110   118     1
SMALL
NO_CHARGES
****
Generated from CSD

@<TRIPOS>ATOM
      1 C1         1.0690   -5.4418    7.2651 C.ar      1 RES1    0.0000
      2 H1         0.6385   -4.7264    6.8104 H         1 RES1    0.0000
      3 C2        10.2640    7.7652   13.4929 C.ar      1 RES1    0.0000
      4 H2         9.5179    8.2994   13.2462 H         1 RES1    0.0000
      5 C3         1.3185   -6.6091    6.5893 C.ar      1 RES1    0.0000
      6 H3         1.0583   -6.6956    5.6788 H         1 RES1    0.0000
      7 C4        10.9617    8.0930   14.6119 C.ar      1 RES1    0.0000
      8 H4        10.6956    8.8433   15.1321 H         1 RES1    0.0000
      9 C5         1.9393   -7.6439    7.2195 C.ar      1 RES1    0.0000
     10 C6        12.0425    7.3510   14.9948 C.ar      1 RES1    0.0000
     11 C7         2.3153   -7.5240    8.5433 C.ar      1 RES1    0.0000
     12 H5         2.7398   -8.2506    8.9871 H         1 RES1    0.0000
     13 C8        12.4351    6.2604   14.2266 C.ar      1 RES1    0.0000
     14 H6        13.1954    5.7514   14.4825 H         1 RES1    0.0000
     15 C9         2.0694   -6.3260    9.2314 C.ar      1 RES1    0.0000
     16 C10       11.7078    5.9034   13.0675 C.ar      1 RES1    0.0000
     17 C11        2.4608   -6.2618   10.7012 C.3       1 RES1    0.0000
     18 H7         1.8861   -6.8894   11.2083 H         1 RES1    0.0000
     19 H8         3.3961   -6.5742   10.7918 H         1 RES1    0.0000
     20 C12       12.1643    4.7068   12.2945 C.3       1 RES1    0.0000
     21 H9        12.3641    3.9747   12.9318 H         1 RES1    0.0000
     22 H10       13.0050    4.9342   11.8238 H         1 RES1    0.0000
     23 C13        2.3461   -4.8909   11.3262 C.3       1 RES1    0.0000
     24 H11        3.1383   -4.3498   11.0826 H         1 RES1    0.0000
     25 H12        2.3260   -4.9788   12.3110 H         1 RES1    0.0000
     26 C14       11.1485    4.1964   11.2651 C.3       1 RES1    0.0000
     27 H13       11.6050    3.5981   10.6215 H         1 RES1    0.0000
     28 H14       10.4485    3.6720   11.7269 H         1 RES1    0.0000
     29 C15        1.0761   -4.1825   10.8497 C.3       1 RES1    0.0000
     30 C16       10.4993    5.3512   10.5087 C.3       1 RES1    0.0000
     31 C17        1.1577   -3.9613    9.3268 C.3       1 RES1    0.0000
     32 C18        9.7402    6.2493   11.5095 C.3       1 RES1    0.0000
     33 C19        1.4308   -5.2786    8.5986 C.ar      1 RES1    0.0000
     34 C20       10.6046    6.6663   12.6880 C.ar      1 RES1    0.0000
     35 C21       -0.0591   -3.2090    8.7869 C.3       1 RES1    0.0000
     36 C22        9.0531    7.4068   10.7824 C.3       1 RES1    0.0000
     37 H15        9.7402    7.9772   10.3570 H         1 RES1    0.0000
     38 H16        8.5660    7.9605   11.4414 H         1 RES1    0.0000
     39 C23       -0.3063   -1.8855    9.5285 C.3       1 RES1    0.0000
     40 C24        8.0693    6.9187    9.7116 C.3       1 RES1    0.0000
     41 H17        7.3279    6.4236   10.1422 H         1 RES1    0.0000
     42 H18        7.6850    7.6969    9.2333 H         1 RES1    0.0000
     43 C25       -0.3879   -2.1011   11.0281 C.3       1 RES1    0.0000
     44 C26        8.7764    6.0192    8.7272 C.3       1 RES1    0.0000
     45 C27        0.8668   -2.8321   11.5260 C.3       1 RES1    0.0000
     46 C28        9.5013    4.8909    9.4536 C.3       1 RES1    0.0000
     47 C29        0.7769   -2.7502   13.0552 C.3       1 RES1    0.0000
     48 H19        1.6791   -2.7432   13.4636 H         1 RES1    0.0000
     49 H20        0.2649   -3.5144   13.4217 H         1 RES1    0.0000
     50 C30        9.9566    3.9468    8.3238 C.3       1 RES1    0.0000
     51 H21        9.9944    3.0082    8.6361 H         1 RES1    0.0000
     52 H22       10.8482    4.2076    7.9786 H         1 RES1    0.0000
     53 C31        0.0461   -1.4239   13.3124 C.3       1 RES1    0.0000
     54 C32        8.8569    4.1309    7.2326 C.3       1 RES1    0.0000
     55 H23        9.2624    4.4279    6.3808 H         1 RES1    0.0000
     56 H24        8.3803    3.2788    7.0749 H         1 RES1    0.0000
     57 C33       -0.3074   -0.8228   11.9263 C.3       1 RES1    0.0000
     58 C34        7.8931    5.1894    7.7594 C.3       1 RES1    0.0000
     59 C35       -1.6803   -2.8534   11.3840 C.3       1 RES1    0.0000
     60 H25       -1.7241   -3.6888   10.8704 H         1 RES1    0.0000
     61 H26       -2.4548   -2.2955   11.1664 H         1 RES1    0.0000
     62 H27       -1.6862   -3.0584   12.3425 H         1 RES1    0.0000
     63 C36        9.7366    6.8769    7.8513 C.3       1 RES1    0.0000
     64 H28       10.4059    7.3064    8.4239 H         1 RES1    0.0000
     65 H29        9.2222    7.5630    7.3788 H         1 RES1    0.0000
     66 H30       10.1883    6.2995    7.2006 H         1 RES1    0.0000
     67 C37        2.7398   -9.8879    7.0592 C.3       1 RES1    0.0000
     68 H31        2.2042  -10.1751    7.8267 H         1 RES1    0.0000
     69 H32        3.6397   -9.6438    7.3604 H         1 RES1    0.0000
     70 H33        2.7990  -10.6200    6.4096 H         1 RES1    0.0000
     71 C38       13.6779    6.8894   16.6906 C.3       1 RES1    0.0000
     72 H34       13.9782    7.2590   17.5472 H         1 RES1    0.0000
     73 H35       14.4347    6.8518   16.0698 H         1 RES1    0.0000
     74 H36       13.3243    5.9871   16.8295 H         1 RES1    0.0000
     75 C39        0.7663    0.0697   11.4668 C.1       1 RES1    0.0000
     76 C40        6.7922    4.5046    8.4909 C.1       1 RES1    0.0000
     77 C41        1.6661    0.7709   11.1294 C.1       1 RES1    0.0000
     78 C42        5.9432    3.9133    9.0800 C.1       1 RES1    0.0000
     79 C43        2.7682    1.5681   10.6490 C.ar      1 RES1    0.0000
     80 C44        3.4529    1.1743    9.4853 C.ar      1 RES1    0.0000
     81 C45        4.5100    1.9636    9.0159 C.ar      1 RES1    0.0000
     82 H37        4.9724    1.7000    8.2301 H         1 RES1    0.0000
     83 C46        4.8991    3.1337    9.6794 C.ar      1 RES1    0.0000
     84 C47        4.2274    3.4743   10.8541 C.ar      1 RES1    0.0000
     85 C48        3.1726    2.7031   11.3327 C.ar      1 RES1    0.0000
     86 H38        2.7268    2.9566   12.1329 H         1 RES1    0.0000
     87 N1         4.5715    4.6113   11.6523 N.pl3     1 RES1    0.0000
     88 N2         3.1029    0.0418    8.8158 N.3       1 RES1    0.0000
     89 O1        -1.5579   -0.1460   11.9006 O.3       1 RES1    0.0000
     90 O2         7.3149    5.9313    6.6710 O.3       1 RES1    0.0000
     91 O3         3.8407    4.9457   12.5688 O.2       1 RES1    0.0000
     92 O4         5.5979    5.1936   11.4370 O.2       1 RES1    0.0000
     93 O5         2.1332   -8.7782    6.4552 O.3       1 RES1    0.0000
     94 O6        12.6704    7.7109   16.1531 O.3       1 RES1    0.0000
     95 H39       -1.6437    0.3905   12.5573 H         1 RES1    0.0000
     96 H40        6.7165    6.5408    6.8889 H         1 RES1    0.0000
     97 H41        2.4005   -0.5300    9.1940 H         1 RES1    0.0000
     98 H42        3.6184   -0.3347    8.1096 H         1 RES1    0.0000
     99 H43        0.2838   -4.7947   11.0668 H         1 RES1    0.0000
    100 H44       11.1745    5.8574   10.1160 H         1 RES1    0.0000
    101 H45        1.9511   -3.4266    9.1809 H         1 RES1    0.0000
    102 H46        8.9160    5.7319   11.8422 H         1 RES1    0.0000
    103 H47       -0.9105   -3.7794    8.8823 H         1 RES1    0.0000
    104 H48        0.1182   -3.0542    7.8843 H         1 RES1    0.0000
    105 H49       -1.1115   -1.4225    9.1940 H         1 RES1    0.0000
    106 H50        0.4257   -1.2412    9.3381 H         1 RES1    0.0000
    107 H51        1.6318   -2.2732   11.2921 H         1 RES1    0.0000
    108 H52        8.7859    4.4070    9.9457 H         1 RES1    0.0000
    109 H53       -0.7331   -1.5341   13.8827 H         1 RES1    0.0000
    110 H54        0.6267   -0.8647   13.7438 H         1 RES1    0.0000
@<TRIPOS>BOND
     1    1    2 1
     2    3    4 1
     3    5    1 ar
     4    6    5 1
     5    7    3 ar
     6    8    7 1
     7    9    5 ar
     8   10    7 ar
     9   11    9 ar
    10   12   11 1
    11   13   10 ar
    12   14   13 1
    13   15   11 ar
    14   16   13 ar
    15   17   15 1
    16   18   17 1
    17   19   17 1
    18   20   16 1
    19   21   20 1
    20   22   20 1
    21   23   17 1
    22   24   23 1
    23   25   23 1
    24   26   20 1
    25   27   26 1
    26   28   26 1
    27   29   23 1
    28   30   26 1
    29   31   29 1
    30   32   30 1
    31   33    1 ar
    32   34    3 ar
    33   35   31 1
    34   36   32 1
    35   37   36 1
    36   38   36 1
    37   39   35 1
    38   40   36 1
    39   41   40 1
    40   42   40 1
    41   43   39 1
    42   44   40 1
    43   45   29 1
    44   46   30 1
    45   47   45 1
    46   48   47 1
    47   49   47 1
    48   50   46 1
    49   51   50 1
    50   52   50 1
    51   53   47 1
    52   54   50 1
    53   55   54 1
    54   56   54 1
    55   57   43 1
    56   58   44 1
    57   59   43 1
    58   60   59 1
    59   61   59 1
    60   62   59 1
    61   63   44 1
    62   64   63 1
    63   65   63 1
    64   66   63 1
    65   67   68 1
    66   69   67 1
    67   70   67 1
    68   71   72 1
    69   73   71 1
    70   74   71 1
    71   75   57 1
    72   76   58 1
    73   77   75 3
    74   78   76 3
    75   79   77 1
    76   80   79 ar
    77   81   80 ar
    78   82   81 1
    79   83   78 1
    80   84   83 ar
    81   85   79 ar
    82   86   85 1
    83   87   84 1
    84   88   80 1
    85   89   57 1
    86   90   58 1
    87   91   87 2
    88   92   87 2
    89   93    9 1
    90   94   10 1
    91   95   89 1
    92   96   90 1
    93   97   88 1
    94   98   88 1
    95   99   29 1
    96  100   30 1
    97  101   31 1
    98  102   32 1
    99  103   35 1
   100  104   35 1
   101  105   39 1
   102  106   39 1
   103  107   45 1
   104  108   46 1
   105  109   53 1
   106  110   53 1
   107   15   33 ar
   108   16   34 ar
   109   31   33 1
   110   32   34 1
   111   43   45 1
   112   44   46 1
   113   53   57 1
   114   54   58 1
   115   67   93 1
   116   71   94 1
   117   81   83 ar
   118   84   85 ar
@<TRIPOS>SUBSTRUCTURE
     1 RES1 1

@<TRIPOS>CRYSIN
  11.8249   13.9462   26.1937  90.0000  90.0000  90.0000  19 1

