# MOL2 file generated by ConQuest
# Please check atom types

@<TRIPOS>MOLECULE
KAWPUT
    58    61     1
SMALL
NO_CHARGES
****
Generated from CSD

@<TRIPOS>ATOM
      1 O1        13.5073   -3.4274   18.0053 O.2       1 RES1    0.0000
      2 O2        11.5331   -2.6416   17.7428 O.2       1 RES1    0.0000
      3 O3         7.7042    0.2500   12.8926 O.2       1 RES1    0.0000
      4 O4         6.4217    0.3989   11.1801 O.2       1 RES1    0.0000
      5 N1        12.4919   -3.2968   17.3413 N.pl3     1 RES1    0.0000
      6 N2        11.2091   -5.4381   11.4414 N.2       1 RES1    0.0000
      7 N3        11.8608   -3.8141    9.1201 N.3       1 RES1    0.0000
      8 N4        12.6679   -1.8095    8.4413 N.3       1 RES1    0.0000
      9 N5         7.4522    0.0747   11.7193 N.pl3     1 RES1    0.0000
     10 N6        14.0363    0.8901    6.4477 N.ar      1 RES1    0.0000
     11 C1        12.4139   -3.8739   16.0152 C.ar      1 RES1    0.0000
     12 C2        11.3812   -3.5438   15.1931 C.ar      1 RES1    0.0000
     13 C3        11.3378   -4.0774   13.9469 C.ar      1 RES1    0.0000
     14 C4        12.3038   -5.0079   13.5138 C.ar      1 RES1    0.0000
     15 C5        13.3289   -5.3119   14.3790 C.ar      1 RES1    0.0000
     16 C6        13.4127   -4.7724   15.6224 C.ar      1 RES1    0.0000
     17 C7        12.2160   -5.5665   12.1664 C.2       1 RES1    0.0000
     18 C8        11.2269   -5.9602   10.1030 C.3       1 RES1    0.0000
     19 C9        10.8666   -4.8875    9.1177 C.3       1 RES1    0.0000
     20 C10       11.4061   -2.5656    8.5194 C.3       1 RES1    0.0000
     21 C11       13.6700   -2.8038    7.9968 C.3       1 RES1    0.0000
     22 C12       13.0838   -4.1578    8.3747 C.3       1 RES1    0.0000
     23 C13       12.5812   -0.6631    7.5418 C.3       1 RES1    0.0000
     24 C14       13.8221    0.2026    7.5724 C.ar      1 RES1    0.0000
     25 C15       14.6392    0.2893    8.6665 C.ar      1 RES1    0.0000
     26 C16       15.7502    1.1271    8.6160 C.ar      1 RES1    0.0000
     27 C17       15.9725    1.8411    7.4688 C.ar      1 RES1    0.0000
     28 C18       15.1147    1.7059    6.4325 C.ar      1 RES1    0.0000
     29 C19        8.4729   -0.6355   10.8935 C.ar      1 RES1    0.0000
     30 C20        9.6271   -1.0364   11.4989 C.ar      1 RES1    0.0000
     31 C21       10.5874   -1.6804   10.7099 C.ar      1 RES1    0.0000
     32 C22       10.3692   -1.8624    9.3779 C.ar      1 RES1    0.0000
     33 C23        9.1840   -1.4518    8.8081 C.ar      1 RES1    0.0000
     34 C24        8.2093   -0.8081    9.5791 C.ar      1 RES1    0.0000
     35 H1        10.7163   -2.8883   15.5877 H         1 RES1    0.0000
     36 H2        10.6329   -3.9024   13.2948 H         1 RES1    0.0000
     37 H3        10.9468   -2.7574    7.4659 H         1 RES1    0.0000
     38 H4        11.4031   -1.9171   11.1651 H         1 RES1    0.0000
     39 H5         8.9578   -1.5902    7.8222 H         1 RES1    0.0000
     40 H6         7.2863   -0.6165    9.0854 H         1 RES1    0.0000
     41 H7        13.9472   -5.9338   14.0910 H         1 RES1    0.0000
     42 H8        14.1238   -4.9070   16.2855 H         1 RES1    0.0000
     43 H9        13.0054   -6.0322   11.9101 H         1 RES1    0.0000
     44 H10       10.5163   -6.6035    9.9438 H         1 RES1    0.0000
     45 H11       12.0687   -6.3655    9.8385 H         1 RES1    0.0000
     46 H12       10.6859   -5.2776    8.0948 H         1 RES1    0.0000
     47 H13       10.0068   -4.5333    9.4039 H         1 RES1    0.0000
     48 H14       13.7927   -2.7439    6.9261 H         1 RES1    0.0000
     49 H15       14.5552   -2.6320    8.5699 H         1 RES1    0.0000
     50 H16       13.7015   -4.5483    9.0976 H         1 RES1    0.0000
     51 H17       12.7979   -4.6459    7.4835 H         1 RES1    0.0000
     52 H18       11.7610   -0.0183    7.8317 H         1 RES1    0.0000
     53 H19       12.3331   -0.9220    6.5469 H         1 RES1    0.0000
     54 H20       14.4843   -0.1865    9.4917 H         1 RES1    0.0000
     55 H21       16.3906    1.1910    9.4741 H         1 RES1    0.0000
     56 H22       16.7300    2.4281    7.4241 H         1 RES1    0.0000
     57 H23       15.1708    2.1504    5.6143 H         1 RES1    0.0000
     58 H24        9.8497   -0.8268   12.4553 H         1 RES1    0.0000
@<TRIPOS>BOND
     1    1    5 2
     2    2    5 2
     3    3    9 2
     4    4    9 2
     5    5   11 1
     6    6   17 2
     7    7   19 1
     8    8   20 1
     9    9   29 1
    10   10   24 ar
    11   11   12 ar
    12   12   13 ar
    13   13   14 ar
    14   14   15 ar
    15   15   16 ar
    16   16   11 ar
    17   17   14 1
    18   18    6 1
    19   19   18 1
    20   20    7 1
    21   21    8 1
    22   22    7 1
    23   23    8 1
    24   24   23 1
    25   25   24 ar
    26   26   25 ar
    27   27   26 ar
    28   28   10 ar
    29   29   30 ar
    30   30   31 ar
    31   31   32 ar
    32   32   20 1
    33   33   32 ar
    34   34   29 ar
    35   35   12 1
    36   36   13 1
    37   37   20 1
    38   38   31 1
    39   39   33 1
    40   40   34 1
    41   41   15 1
    42   42   16 1
    43   43   17 1
    44   44   18 1
    45   45   18 1
    46   46   19 1
    47   47   19 1
    48   48   21 1
    49   49   21 1
    50   50   22 1
    51   51   22 1
    52   52   23 1
    53   53   23 1
    54   54   25 1
    55   55   26 1
    56   56   27 1
    57   57   28 1
    58   58   30 1
    59   21   22 1
    60   27   28 ar
    61   33   34 ar
@<TRIPOS>SUBSTRUCTURE
     1 RES1 1

@<TRIPOS>CRYSIN
  21.0500    7.9350   13.5290  90.0000  94.0100  90.0000 231 1

