# MOL2 file generated by ConQuest
# Please check atom types

@<TRIPOS>MOLECULE
KAWQAD
    40    42     1
SMALL
NO_CHARGES
****
Generated from CSD

@<TRIPOS>ATOM
      1 O1        -1.1863    3.1173    4.3033 O.3       1 RES1    0.0000
      2 O2         1.2816   -1.7264   -0.6718 O.2       1 RES1    0.0000
      3 O3         1.5783   -3.4853    0.4965 O.2       1 RES1    0.0000
      4 O4         5.5353    3.4547    7.6838 O.2       1 RES1    0.0000
      5 O5         8.0637   -0.6061    4.4868 O.2       1 RES1    0.0000
      6 N1         1.7629   -2.3073    0.2772 N.pl3     1 RES1    0.0000
      7 N2         4.1277    1.6606    4.8938 N.pl3     1 RES1    0.0000
      8 C1         5.0782    2.1206    5.8106 C.2       1 RES1    0.0000
      9 C2         6.2295    1.4116    5.6082 C.2       1 RES1    0.0000
     10 H1         7.0242    1.5118    6.0801 H         1 RES1    0.0000
     11 C3         6.0019    0.5069    4.5598 C.2       1 RES1    0.0000
     12 C4         4.6954    0.6828    4.1407 C.2       1 RES1    0.0000
     13 C5         3.9457   -0.0812    3.1181 C.ar      1 RES1    0.0000
     14 C6         3.8433   -1.4531    3.2187 C.ar      1 RES1    0.0000
     15 H2         4.2466   -1.8897    3.9344 H         1 RES1    0.0000
     16 C7         3.1533   -2.1883    2.2851 C.ar      1 RES1    0.0000
     17 H3         3.0936   -3.1137    2.3586 H         1 RES1    0.0000
     18 C8         2.5578   -1.5307    1.2418 C.ar      1 RES1    0.0000
     19 C9         2.6580   -0.1813    1.0897 C.ar      1 RES1    0.0000
     20 H4         2.2553    0.2426    0.3662 H         1 RES1    0.0000
     21 C10        3.3667    0.5466    2.0246 C.ar      1 RES1    0.0000
     22 H5         3.4554    1.4667    1.9201 H         1 RES1    0.0000
     23 C11        2.7642    2.1098    4.7932 C.ar      1 RES1    0.0000
     24 C12        1.7798    1.4594    5.4921 C.ar      1 RES1    0.0000
     25 H6         1.9987    0.7640    6.0685 H         1 RES1    0.0000
     26 C13        0.4663    1.8428    5.3322 C.ar      1 RES1    0.0000
     27 H7        -0.2042    1.4179    5.8184 H         1 RES1    0.0000
     28 C14        0.1428    2.8575    4.4528 C.ar      1 RES1    0.0000
     29 C15        1.1317    3.5268    3.7912 C.ar      1 RES1    0.0000
     30 H8         0.9233    4.2349    3.2251 H         1 RES1    0.0000
     31 C16        2.4355    3.1435    3.9705 C.ar      1 RES1    0.0000
     32 H9         3.1095    3.5981    3.5204 H         1 RES1    0.0000
     33 C17       -1.5513    4.1023    3.3309 C.3       1 RES1    0.0000
     34 H10       -1.3136    4.9745    3.6532 H         1 RES1    0.0000
     35 H11       -2.4986    4.0653    3.1774 H         1 RES1    0.0000
     36 H12       -1.0867    3.9273    2.5081 H         1 RES1    0.0000
     37 C18        4.7792    3.1345    6.7933 C.2       1 RES1    0.0000
     38 H13        3.9580    3.5674    6.7391 H         1 RES1    0.0000
     39 C19        6.9539   -0.4257    4.0233 C.2       1 RES1    0.0000
     40 H14        6.7065   -0.9209    3.2754 H         1 RES1    0.0000
@<TRIPOS>BOND
     1    1   28 1
     2    2    6 2
     3    3    6 2
     4    4   37 2
     5    5   39 2
     6    6   18 1
     7    7    8 1
     8    8    9 2
     9    9   10 1
    10   11    9 1
    11   12    7 1
    12   13   12 1
    13   14   13 ar
    14   15   14 1
    15   16   14 ar
    16   17   16 1
    17   18   16 ar
    18   19   18 ar
    19   20   19 1
    20   21   13 ar
    21   22   21 1
    22   23    7 1
    23   24   23 ar
    24   25   24 1
    25   26   24 ar
    26   27   26 1
    27   28   26 ar
    28   29   28 ar
    29   30   29 1
    30   31   23 ar
    31   32   31 1
    32   33    1 1
    33   34   33 1
    34   35   33 1
    35   36   33 1
    36   37    8 1
    37   38   37 1
    38   39   11 1
    39   40   39 1
    40   11   12 2
    41   19   21 ar
    42   29   31 ar
@<TRIPOS>SUBSTRUCTURE
     1 RES1 1

@<TRIPOS>CRYSIN
  14.7166    9.0200   13.3616  90.0000 105.1810  90.0000  14 1

