# MOL2 file generated by ConQuest
# Please check atom types

@<TRIPOS>MOLECULE
KAWTOR
    34    35     1
SMALL
NO_CHARGES
****
Generated from CSD

@<TRIPOS>ATOM
      1 O1         8.0859    3.7269    6.7121 O.3       1 RES1    0.0000
      2 O2         1.1028    3.9085    5.1852 O.3       1 RES1    0.0000
      3 O3        -1.2589    0.6719    1.3284 O.2       1 RES1    0.0000
      4 O4        -2.8504   -0.3392    2.3109 O.2       1 RES1    0.0000
      5 N1         2.0744    3.0163    5.7585 N.3       1 RES1    0.0000
      6 N2        -1.7673    0.2116    2.3208 N.pl3     1 RES1    0.0000
      7 C1         7.0296    3.2268    5.8891 C.3       1 RES1    0.0000
      8 C2         5.6993    3.8809    6.1502 C.ar      1 RES1    0.0000
      9 C3         5.5889    5.1246    6.7388 C.ar      1 RES1    0.0000
     10 C4         4.3405    5.6836    6.9319 C.ar      1 RES1    0.0000
     11 C5         3.1963    5.0144    6.5563 C.ar      1 RES1    0.0000
     12 C6         3.2920    3.7442    5.9754 C.ar      1 RES1    0.0000
     13 C7         4.5458    3.1958    5.7753 C.ar      1 RES1    0.0000
     14 C8         2.1709    1.8515    4.8646 C.3       1 RES1    0.0000
     15 C9         0.8544    1.1072    4.8073 C.ar      1 RES1    0.0000
     16 C10        0.3798    0.4310    5.9181 C.ar      1 RES1    0.0000
     17 C11       -0.8074   -0.2851    5.8677 C.ar      1 RES1    0.0000
     18 C12       -1.5331   -0.3541    4.6989 C.ar      1 RES1    0.0000
     19 C13       -1.0465    0.3177    3.6003 C.ar      1 RES1    0.0000
     20 C14        0.1351    1.0491    3.6263 C.ar      1 RES1    0.0000
     21 H1         7.9488    3.5080    7.6274 H         1 RES1    0.0000
     22 H2         0.3785    3.9011    5.8158 H         1 RES1    0.0000
     23 H3         7.2583    3.3649    5.0249 H         1 RES1    0.0000
     24 H4         6.9970    2.2638    6.0311 H         1 RES1    0.0000
     25 H5         6.3570    5.6017    7.0197 H         1 RES1    0.0000
     26 H6         4.2377    6.5204    7.4007 H         1 RES1    0.0000
     27 H7         2.2984    5.3651    6.7021 H         1 RES1    0.0000
     28 H8         4.6661    2.3684    5.3333 H         1 RES1    0.0000
     29 H9         2.4724    2.1105    3.9965 H         1 RES1    0.0000
     30 H10        2.8988    1.2203    5.3020 H         1 RES1    0.0000
     31 H11        0.8470    0.4480    6.7525 H         1 RES1    0.0000
     32 H12       -1.0578   -0.7275    6.6121 H         1 RES1    0.0000
     33 H13       -2.3315   -0.8663    4.6813 H         1 RES1    0.0000
     34 H14        0.4315    1.5191    2.7926 H         1 RES1    0.0000
@<TRIPOS>BOND
     1    1    7 1
     2    2    5 1
     3    3    6 2
     4    4    6 2
     5    5   12 1
     6    6   19 1
     7    7    8 1
     8    8    9 ar
     9    9   10 ar
    10   10   11 ar
    11   11   12 ar
    12   12   13 ar
    13   13    8 ar
    14   14    5 1
    15   15   14 1
    16   16   15 ar
    17   17   16 ar
    18   18   17 ar
    19   19   18 ar
    20   20   15 ar
    21   21    1 1
    22   22    2 1
    23   23    7 1
    24   24    7 1
    25   25    9 1
    26   26   10 1
    27   27   11 1
    28   28   13 1
    29   29   14 1
    30   30   14 1
    31   31   16 1
    32   32   17 1
    33   33   18 1
    34   34   20 1
    35   19   20 ar
@<TRIPOS>SUBSTRUCTURE
     1 RES1 1

@<TRIPOS>CRYSIN
   9.2030    9.5910    7.9270 103.9000  79.5600 105.4600   2 1

