# MOL2 file generated by ConQuest
# Please check atom types

@<TRIPOS>MOLECULE
KAXFIZ
    44    45     1
SMALL
NO_CHARGES
****
Generated from CSD

@<TRIPOS>ATOM
      1 O1         6.5635    5.8949   11.3133 O.3       1 RES1    0.0000
      2 O2         6.4056    0.7081    4.8173 O.2       1 RES1    0.0000
      3 O3         5.2112   -0.6432    6.0175 O.2       1 RES1    0.0000
      4 O4         6.3255    3.9411   14.3977 O.3       1 RES1    0.0000
      5 N1         6.6739    5.1715   10.1077 N.2       1 RES1    0.0000
      6 N2         5.8466    0.4060    5.8751 N.pl3     1 RES1    0.0000
      7 C1         5.9531    5.0473   12.3534 C.3       1 RES1    0.0000
      8 H1         5.0546    5.4192   12.5868 H         1 RES1    0.0000
      9 C2         5.7649    3.6930   11.6722 C.3       1 RES1    0.0000
     10 H2         6.3267    2.9955   12.0926 H         1 RES1    0.0000
     11 H3         4.8172    3.4062   11.6933 H         1 RES1    0.0000
     12 C3         6.2114    3.9866   10.2869 C.2       1 RES1    0.0000
     13 C4         6.8411    5.0484   13.6204 C.3       1 RES1    0.0000
     14 C5         6.1485    3.0537    9.1407 C.ar      1 RES1    0.0000
     15 C6         6.7114    3.3932    7.9040 C.ar      1 RES1    0.0000
     16 H4         7.1600    4.2245    7.8016 H         1 RES1    0.0000
     17 C7         6.6197    2.5275    6.8313 C.ar      1 RES1    0.0000
     18 H5         7.0059    2.7474    5.9914 H         1 RES1    0.0000
     19 C8         5.9468    1.3254    7.0140 C.ar      1 RES1    0.0000
     20 C9         5.3976    0.9550    8.2126 C.ar      1 RES1    0.0000
     21 H6         4.9558    0.1188    8.3058 H         1 RES1    0.0000
     22 C10        5.5011    1.8271    9.2889 C.ar      1 RES1    0.0000
     23 H7         5.1291    1.5870   10.1293 H         1 RES1    0.0000
     24 C11        7.2096    2.9074   14.8351 C.3       1 RES1    0.0000
     25 H8         7.6269    2.4829   14.0559 H         1 RES1    0.0000
     26 H9         6.7038    2.2371   15.3404 H         1 RES1    0.0000
     27 H10        7.9052    3.2929   15.4086 H         1 RES1    0.0000
     28 C12        6.6180    6.3344   14.4869 C.3       1 RES1    0.0000
     29 C13        5.1748    6.3770   15.0186 C.3       1 RES1    0.0000
     30 H11        4.9835    5.5517   15.5101 H         1 RES1    0.0000
     31 H12        4.5518    6.4607   14.2672 H         1 RES1    0.0000
     32 H13        5.0698    7.1462   15.6166 H         1 RES1    0.0000
     33 C14        6.8597    7.6173   13.6766 C.3       1 RES1    0.0000
     34 H14        6.7545    8.3973   14.2606 H         1 RES1    0.0000
     35 H15        6.2109    7.6685   12.9445 H         1 RES1    0.0000
     36 H16        7.7675    7.6051   13.3089 H         1 RES1    0.0000
     37 C15        7.5527    6.3232   15.7003 C.3       1 RES1    0.0000
     38 H17        8.4832    6.3705   15.3953 H         1 RES1    0.0000
     39 H18        7.4170    5.4968   16.2089 H         1 RES1    0.0000
     40 H19        7.3562    7.0954   16.2721 H         1 RES1    0.0000
     41 C16        8.3036    4.8706   13.2114 C.3       1 RES1    0.0000
     42 H20        8.8477    4.7046   14.0094 H         1 RES1    0.0000
     43 H21        8.6191    5.6839   12.7648 H         1 RES1    0.0000
     44 H22        8.3812    4.1101   12.5984 H         1 RES1    0.0000
@<TRIPOS>BOND
     1    1    5 1
     2    2    6 2
     3    3    6 2
     4    4   13 1
     5    5   12 2
     6    6   19 1
     7    7    1 1
     8    8    7 1
     9    9    7 1
    10   10    9 1
    11   11    9 1
    12   12    9 1
    13   13    7 1
    14   14   12 1
    15   15   14 ar
    16   16   15 1
    17   17   15 ar
    18   18   17 1
    19   19   17 ar
    20   20   19 ar
    21   21   20 1
    22   22   14 ar
    23   23   22 1
    24   24    4 1
    25   25   24 1
    26   26   24 1
    27   27   24 1
    28   28   13 1
    29   29   28 1
    30   30   29 1
    31   31   29 1
    32   32   29 1
    33   33   28 1
    34   34   33 1
    35   35   33 1
    36   36   33 1
    37   37   28 1
    38   38   37 1
    39   39   37 1
    40   40   37 1
    41   41   13 1
    42   42   41 1
    43   43   41 1
    44   44   41 1
    45   20   22 ar
@<TRIPOS>SUBSTRUCTURE
     1 RES1 1

@<TRIPOS>CRYSIN
   6.7340    7.1550   16.7260  84.1700  87.3200  69.8000   2 1

