# MOL2 file generated by ConQuest
# Please check atom types

@<TRIPOS>MOLECULE
KAXHAS
    36    37     1
SMALL
NO_CHARGES
****
Generated from CSD

@<TRIPOS>ATOM
      1 N1         1.7054    4.4621    2.1965 N.3       1 RES1    0.0000
      2 O1         0.5491    4.1235    2.6052 O.2       1 RES1    0.0000
      3 C1         2.7400    4.8375    2.9793 C.2       1 RES1    0.0000
      4 C2         2.1087    4.3712    0.7581 C.3       1 RES1    0.0000
      5 C3         2.4265    2.9102    0.4877 C.3       1 RES1    0.0000
      6 C4         0.9656    4.8588   -0.1161 C.3       1 RES1    0.0000
      7 C5         2.7400    4.8375    4.4622 C.ar      1 RES1    0.0000
      8 C6         2.2797    3.7191    5.1326 C.ar      1 RES1    0.0000
      9 C7         2.3082    3.6939    6.5279 C.ar      1 RES1    0.0000
     10 C8         2.7400    4.8375    7.1835 C.ar      1 RES1    0.0000
     11 N2         2.7400    4.8375    8.6491 N.pl3     1 RES1    0.0000
     12 O2         2.8386    5.8998    9.2306 O.2       1 RES1    0.0000
     13 H1         1.8413    2.8445    4.5931 H         1 RES1    0.0000
     14 H2         1.9838    2.9412    7.0625 H         1 RES1    0.0000
     15 H3         3.1784    2.6123    1.0125 H         1 RES1    0.0000
     16 H4         2.7400    2.8058   -0.5062 H         1 RES1    0.0000
     17 H5         1.5673    2.3607    0.8026 H         1 RES1    0.0000
     18 H6         0.6247    5.8050    0.1235 H         1 RES1    0.0000
     19 H7         0.2521    4.3151   -0.1235 H         1 RES1    0.0000
     20 H8         1.0960    4.9149   -0.9507 H         1 RES1    0.0000
     21 N1M        3.7746    5.2129    2.1965 N.pl3     1 RES1    0.0000
     22 C2M        3.3713    5.3038    0.7581 C.3       1 RES1    0.0000
     23 C6M        3.2003    5.9559    5.1326 C.ar      1 RES1    0.0000
     24 C7M        3.1718    5.9811    6.5279 C.ar      1 RES1    0.0000
     25 O2M        2.6414    3.7752    9.2306 O.2       1 RES1    0.0000
     26 O1M        4.9309    5.5515    2.6052 O.2       1 RES1    0.0000
     27 C3M        3.0535    6.7648    0.4877 C.3       1 RES1    0.0000
     28 C4M        4.5144    4.8162   -0.1161 C.3       1 RES1    0.0000
     29 H1M        3.6387    6.8306    4.5931 H         1 RES1    0.0000
     30 H2M        3.4962    6.7338    7.0625 H         1 RES1    0.0000
     31 H3M        2.3016    7.0628    1.0125 H         1 RES1    0.0000
     32 H4M        2.7400    6.8693   -0.5062 H         1 RES1    0.0000
     33 H5M        3.9127    7.3143    0.8026 H         1 RES1    0.0000
     34 H6M        4.8553    3.8700    0.1235 H         1 RES1    0.0000
     35 H7M        5.2279    5.3600   -0.1235 H         1 RES1    0.0000
     36 H8M        4.3840    4.7601   -0.9507 H         1 RES1    0.0000
@<TRIPOS>BOND
     1    1    2 1
     2    3    1 1
     3    4    1 1
     4    5    4 1
     5    6    4 1
     6    7    3 1
     7    8    7 ar
     8    9    8 ar
     9   10    9 ar
    10   11   10 1
    11   12   11 2
    12   13    8 1
    13   14    9 1
    14   15    5 1
    15   16    5 1
    16   17    5 1
    17   18    6 1
    18   19    6 1
    19   20    6 1
    20   21    3 2
    21   22    4 1
    22   23    7 ar
    23   24   10 ar
    24   25   11 2
    25   26   21 1
    26   27   22 1
    27   28   22 1
    28   29   23 1
    29   30   24 1
    30   31   27 1
    31   32   27 1
    32   33   27 1
    33   34   28 1
    34   35   28 1
    35   36   28 1
    36   21   22 1
    37   23   24 ar
@<TRIPOS>SUBSTRUCTURE
     1 RES1 1

@<TRIPOS>CRYSIN
  10.9600   19.3500   12.3470  90.0000  90.0000  90.0000  43 1

