# MOL2 file generated by ConQuest
# Please check atom types

@<TRIPOS>MOLECULE
KAXJID
    44    47     1
SMALL
NO_CHARGES
****
Generated from CSD

@<TRIPOS>ATOM
      1 O1         2.6594    2.8983    4.3138 O.3       1 RES1    0.0000
      2 O2         4.3686    1.3816    6.0437 O.2       1 RES1    0.0000
      3 N1         4.6346    1.6367    4.8463 N.pl3     1 RES1    0.0000
      4 C1         8.5311    1.6225    6.8210 C.ar      1 RES1    0.0000
      5 H1         8.7672    2.0981    7.8134 H         1 RES1    0.0000
      6 N2         4.2218    2.2946    2.6347 N.2       1 RES1    0.0000
      7 C2         7.0721    2.3231   -0.5136 C.ar      1 RES1    0.0000
      8 H2         6.8816    2.1159   -1.3437 H         1 RES1    0.0000
      9 C3         5.7869    1.6838    4.2441 C.2       1 RES1    0.0000
     10 C4         2.5377   -1.5914    2.6914 C.ar      1 RES1    0.0000
     11 H3         2.9202   -2.3471    2.0404 H         1 RES1    0.0000
     12 C5         7.7051    2.9845    2.0982 C.ar      1 RES1    0.0000
     13 H4         7.9207    3.1765    2.9761 H         1 RES1    0.0000
     14 C6         5.4763    2.1159    2.8586 C.2       1 RES1    0.0000
     15 C7         6.1742    2.0279    0.4917 C.ar      1 RES1    0.0000
     16 H5         5.3416    1.5825    0.2877 H         1 RES1    0.0000
     17 C8         8.2662    2.9454   -0.2249 C.ar      1 RES1    0.0000
     18 H6         8.8965    3.1445   -0.9456 H         1 RES1    0.0000
     19 C9         8.5848    3.2966    1.0879 C.ar      1 RES1    0.0000
     20 H7         9.3860    3.7340    1.2780 H         1 RES1    0.0000
     21 C10        1.4091   -1.8270    3.4269 C.ar      1 RES1    0.0000
     22 H8         0.9991   -2.6138    3.3662 H         1 RES1    0.0000
     23 C11        7.0767    1.3753    4.9100 C.ar      1 RES1    0.0000
     24 C12        7.3428    1.9381    6.1601 C.ar      1 RES1    0.0000
     25 H9         6.6719    2.5693    6.5792 H         1 RES1    0.0000
     26 C13        3.4965    1.9230    3.8300 C.3       1 RES1    0.0000
     27 C14        7.9838    0.4863    4.3506 C.ar      1 RES1    0.0000
     28 H10        7.7965    0.0800    3.4439 H         1 RES1    0.0000
     29 C15        1.5597    0.3858    4.3805 C.ar      1 RES1    0.0000
     30 H11        1.1808    1.1202    5.0165 H         1 RES1    0.0000
     31 C16        9.1504    0.1547    5.0284 C.ar      1 RES1    0.0000
     32 H12        9.7658   -0.4712    4.6383 H         1 RES1    0.0000
     33 C17        3.3325    4.1358    4.6343 C.3       1 RES1    0.0000
     34 C18        6.4878    2.3800    1.8016 C.ar      1 RES1    0.0000
     35 C19        3.1971   -0.3485    2.7949 C.ar      1 RES1    0.0000
     36 H13        3.9591   -0.1858    2.2893 H         1 RES1    0.0000
     37 C20        2.7133    0.6214    3.6379 C.ar      1 RES1    0.0000
     38 C21        9.4260    0.7192    6.2557 C.ar      1 RES1    0.0000
     39 H14       10.2602    0.4801    6.7384 H         1 RES1    0.0000
     40 C22        0.9180   -0.8357    4.2680 C.ar      1 RES1    0.0000
     41 H15        0.1055   -1.0055    4.7975 H         1 RES1    0.0000
     42 H16        3.8751    4.0807    5.4843 H         1 RES1    0.0000
     43 H17        2.6535    4.7030    5.0862 H         1 RES1    0.0000
     44 H18        3.8869    4.5430    3.7723 H         1 RES1    0.0000
@<TRIPOS>BOND
     1    1   26 1
     2    2    3 1
     3    3    9 2
     4    4    5 1
     5    6   14 2
     6    7    8 1
     7    9   14 1
     8   10   11 1
     9   12   13 1
    10   14   34 1
    11   15    7 ar
    12   16   15 1
    13   17    7 ar
    14   18   17 1
    15   19   12 ar
    16   20   19 1
    17   21   10 ar
    18   22   21 1
    19   23    9 1
    20   24    4 ar
    21   25   24 1
    22   26    3 1
    23   27   23 ar
    24   28   27 1
    25   29   30 1
    26   31   27 ar
    27   32   31 1
    28   33    1 1
    29   34   12 ar
    30   35   10 ar
    31   36   35 1
    32   37   26 1
    33   38    4 ar
    34   39   38 1
    35   40   21 ar
    36   41   40 1
    37   42   33 1
    38   43   33 1
    39   44   33 1
    40    6   26 1
    41   15   34 ar
    42   17   19 ar
    43   23   24 ar
    44   29   37 ar
    45   29   40 ar
    46   31   38 ar
    47   35   37 ar
@<TRIPOS>SUBSTRUCTURE
     1 RES1 1

@<TRIPOS>CRYSIN
  19.3978    8.8904   10.2474  90.0000 103.7590  90.0000   9 1

