# MOL2 file generated by ConQuest
# Please check atom types

@<TRIPOS>MOLECULE
KAYSUY
    17    16     2
SMALL
NO_CHARGES
****
Generated from CSD

@<TRIPOS>ATOM
      1 O1         4.6655    5.0968    5.6190 O.2       1 RES1    0.0000
      2 O2         6.3682    4.9097    6.8954 O.2       1 RES1    0.0000
      3 O3         3.1748   -0.1284   10.4027 O.2       1 RES1    0.0000
      4 O4         1.4836    0.0917    9.0338 Du        2 SUP2    0.0000
      5 N1         5.2419    4.5683    6.5458 N.pl3     1 RES1    0.0000
      6 C1         4.5778    3.5020    7.2908 C.ar      1 RES1    0.0000
      7 C2         3.3246    3.0938    6.8753 C.ar      1 RES1    0.0000
      8 C3         2.7061    2.0800    7.5916 C.ar      1 RES1    0.0000
      9 C4         3.3326    1.5158    8.7033 C.ar      1 RES1    0.0000
     10 C5         4.5975    1.9521    9.0795 C.ar      1 RES1    0.0000
     11 C6         5.2326    2.9454    8.3727 C.ar      1 RES1    0.0000
     12 C7         2.6532    0.4220    9.4674 C.2       1 RES1    0.0000
     13 H1         2.9823    3.4811    6.0155 H         1 RES1    0.0000
     14 H2         1.8219    1.8043    7.3014 H         1 RES1    0.0000
     15 H3         5.1248    1.4985    9.8096 H         1 RES1    0.0000
     16 H4         6.0553    3.3333    8.6618 H         1 RES1    0.0000
     17 H5         1.7687    0.1585    9.1943 H         1 RES1    0.0000
@<TRIPOS>BOND
     1    1    5 2
     2    2    5 2
     3    3   12 2
     4    5    6 1
     5    6    7 ar
     6    7    8 ar
     7    8    9 ar
     8    9   10 ar
     9   10   11 ar
    10   11    6 ar
    11   12    9 1
    12   13    7 1
    13   14    8 1
    14   15   10 1
    15   16   11 1
    16   17   12 1
@<TRIPOS>SUBSTRUCTURE
     1 RES1 1
     2 SUP2 4

@<TRIPOS>CRYSIN
   6.2076    5.0968   10.6723  90.0000  95.2220  90.0000   4 1

