# MOL2 file generated by ConQuest
# Please check atom types

@<TRIPOS>MOLECULE
KAYTUZ
    24    24     1
SMALL
NO_CHARGES
****
Generated from CSD

@<TRIPOS>ATOM
      1 C1        -0.4185    1.3141    8.1619 C.ar      1 RES1    0.0000
      2 C2         0.2297    2.3085    8.9214 C.ar      1 RES1    0.0000
      3 C3         1.5939    2.3918    8.9594 C.ar      1 RES1    0.0000
      4 C4         2.3644    1.5014    8.2334 C.ar      1 RES1    0.0000
      5 C5         1.7585    0.5133    7.4637 C.ar      1 RES1    0.0000
      6 C6         0.3959    0.4327    7.4266 C.ar      1 RES1    0.0000
      7 C7        -2.6982    1.9304    8.9269 C.3       1 RES1    0.0000
      8 C8        -3.0533    3.2813    8.3383 C.3       1 RES1    0.0000
      9 N1        -1.7604    1.1654    8.1285 N.3       1 RES1    0.0000
     10 N2        -3.7097    3.2276    7.0496 N.3       1 RES1    0.0000
     11 N3         3.7970    1.5936    8.2492 N.pl3     1 RES1    0.0000
     12 O1         4.4630    0.7991    7.5872 O.2       1 RES1    0.0000
     13 O2         4.3194    2.4930    8.9288 O.2       1 RES1    0.0000
     14 H1        -0.2917    2.8845    9.4515 H         1 RES1    0.0000
     15 H2         2.0587    3.0726    9.4887 H         1 RES1    0.0000
     16 H3         2.3212   -0.0806    6.9540 H         1 RES1    0.0000
     17 H4        -0.0051   -0.1971    6.8890 H         1 RES1    0.0000
     18 H5        -3.5438    1.3706    9.0059 H         1 RES1    0.0000
     19 H6        -2.3068    2.0872    9.8693 H         1 RES1    0.0000
     20 H7        -2.1924    3.8788    8.2167 H         1 RES1    0.0000
     21 H8        -3.7427    3.8161    8.9316 H         1 RES1    0.0000
     22 H9        -2.0988    0.4927    7.6689 H         1 RES1    0.0000
     23 H10       -2.9854    2.9830    6.4991 H         1 RES1    0.0000
     24 H11       -4.4090    2.5709    7.0840 H         1 RES1    0.0000
@<TRIPOS>BOND
     1    1    2 ar
     2    2    3 ar
     3    3    4 ar
     4    4    5 ar
     5    5    6 ar
     6    6    1 ar
     7    7    8 1
     8    8   10 1
     9    9    1 1
    10   10   23 1
    11   11    4 1
    12   12   11 2
    13   13   11 2
    14   14    2 1
    15   15    3 1
    16   16    5 1
    17   17    6 1
    18   18    7 1
    19   19    7 1
    20   20    8 1
    21   21    8 1
    22   22    9 1
    23   24   10 1
    24    7    9 1
@<TRIPOS>SUBSTRUCTURE
     1 RES1 1

@<TRIPOS>CRYSIN
  10.6680    8.9580   10.3080  90.0000 115.7500  90.0000  14 1

