# MOL2 file generated by ConQuest
# Please check atom types

@<TRIPOS>MOLECULE
KAYWIR01
    14    14     1
SMALL
NO_CHARGES
****
Generated from CSD

@<TRIPOS>ATOM
      1 O1         5.5035    4.3901    0.2281 O.3       1 RES1    0.0000
      2 N1         4.3719    4.1262   -0.5900 N.2       1 RES1    0.0000
      3 C1         3.4629    4.8059    0.0306 C.2       1 RES1    0.0000
      4 N2         3.7939    5.5002    1.1333 N.2       1 RES1    0.0000
      5 C2         5.0783    5.1956    1.2320 C.2       1 RES1    0.0000
      6 N3         2.1018    4.8115   -0.4797 N.pl3     1 RES1    0.0000
      7 O2         1.2977    5.5203    0.1113 O.2       1 RES1    0.0000
      8 O3         1.8581    4.1174   -1.4546 O.2       1 RES1    0.0000
      9 N4         5.9402    5.5897    2.1353 N.3       1 RES1    0.0000
     10 H1         5.6139    6.0930    2.7919 H         1 RES1    0.0000
     11 C3         7.2801    5.0400    2.2500 C.3       1 RES1    0.0000
     12 H2         7.8041    5.2885    1.4606 H         1 RES1    0.0000
     13 H3         7.2280    4.0629    2.3132 H         1 RES1    0.0000
     14 H4         7.7118    5.3964    3.0545 H         1 RES1    0.0000
@<TRIPOS>BOND
     1    1    2 1
     2    2    3 2
     3    3    4 1
     4    4    5 2
     5    5    1 1
     6    6    3 1
     7    7    6 2
     8    8    6 2
     9    9    5 1
    10   10    9 1
    11   11    9 1
    12   12   11 1
    13   13   11 1
    14   14   11 1
@<TRIPOS>SUBSTRUCTURE
     1 RES1 1

@<TRIPOS>CRYSIN
   8.8060   12.9970    5.0370  90.0000  95.6730  90.0000  14 1

