# MOL2 file generated by ConQuest
# Please check atom types

@<TRIPOS>MOLECULE
KAYWIR
    17    14     2
SMALL
NO_CHARGES
****
Generated from CSD

@<TRIPOS>ATOM
      1 O1         4.3869   -0.9935    2.7158 O.3       1 RES1    0.0000
      2 N1         2.9669   -0.9595    2.8519 N.2       1 RES1    0.0000
      3 C1         2.6574   -0.1645    1.8844 C.2       1 RES1    0.0000
      4 N2         3.6230    0.3472    1.1091 N.2       1 RES1    0.0000
      5 C2         4.6913   -0.1953    1.6730 C.2       1 RES1    0.0000
      6 N3         1.2587    0.1807    1.6592 N.pl3     1 RES1    0.0000
      7 O2         1.0217    0.9410    0.7381 O.2       1 RES1    0.0000
      8 O3         0.4376   -0.3062    2.4131 O.2       1 RES1    0.0000
      9 N4         5.9457   -0.0324    1.3325 N.3       1 RES1    0.0000
     10 H1         6.0852    0.4419    0.6500 H         1 RES1    0.0000
     11 C3         7.0755   -0.6400    2.0214 C.3       1 RES1    0.0000
     12 H2         7.8024   -0.7962    1.3820 H         1 RES1    0.0000
     13 H3         6.7976   -1.4930    2.4148 H         1 RES1    0.0000
     14 H4         7.3870   -0.0391    2.7307 H         1 RES1    0.0000
     15 H5         7.2618   -1.5190    1.6311 Du        2 SUP2    0.0000
     16 H6         6.8604   -0.7437    2.9722 Du        2 SUP2    0.0000
     17 H7         7.8647   -0.0659    1.9258 Du        2 SUP2    0.0000
@<TRIPOS>BOND
     1    1    2 1
     2    2    3 2
     3    3    4 1
     4    4    5 2
     5    5    1 1
     6    6    3 1
     7    7    6 2
     8    8    6 2
     9    9    5 1
    10   10    9 1
    11   11    9 1
    12   12   11 1
    13   13   11 1
    14   14   11 1
@<TRIPOS>SUBSTRUCTURE
     1 RES1 1
     2 SUP2 15

@<TRIPOS>CRYSIN
  18.8560    3.9455   15.2690  90.0000  95.9290  90.0000  15 1

