# MOL2 file generated by ConQuest
# Please check atom types

@<TRIPOS>MOLECULE
KAYYIT
    35    33     2
SMALL
NO_CHARGES
****
Generated from CSD

@<TRIPOS>ATOM
      1 N1         5.5814    1.5520    1.3079 N.3       1 RES1    0.0000
      2 N2         6.4355    1.8096    0.3360 N.2       1 RES1    0.0000
      3 N3         4.0503    3.6974    2.0310 N.3       1 RES1    0.0000
      4 O1         5.9836    1.6166   -0.8082 O.2       1 RES1    0.0000
      5 C1         6.0815    1.6523    2.6443 C.ar      1 RES1    0.0000
      6 C2         7.1819    0.8915    2.9621 C.ar      1 RES1    0.0000
      7 H1         7.5830    0.3651    2.3085 H         1 RES1    0.0000
      8 C3         7.7069    0.9030    4.2667 C.ar      1 RES1    0.0000
      9 H2         8.4983    0.4532    4.4568 H         1 RES1    0.0000
     10 C4         7.0488    1.5773    5.2492 C.ar      1 RES1    0.0000
     11 H3         7.3838    1.5608    6.1159 H         1 RES1    0.0000
     12 C5         5.8640    2.3034    4.9776 C.ar      1 RES1    0.0000
     13 C6         5.0807    2.8475    6.0294 C.ar      1 RES1    0.0000
     14 H4         5.3647    2.7597    6.9108 H         1 RES1    0.0000
     15 C7         3.9161    3.4965    5.7569 C.ar      1 RES1    0.0000
     16 H5         3.3558    3.7522    6.4542 H         1 RES1    0.0000
     17 C8         3.5553    3.7825    4.4295 C.ar      1 RES1    0.0000
     18 H6         2.7891    4.2832    4.2640 H         1 RES1    0.0000
     19 C9         4.3123    3.3359    3.3695 C.ar      1 RES1    0.0000
     20 C10        5.4156    2.4463    3.6286 C.ar      1 RES1    0.0000
     21 C11        4.2553    1.0192    0.9983 C.3       1 RES1    0.0000
     22 H7         3.9151    1.5204    0.0982 H         1 RES1    0.0000
     23 H8         3.6336    0.9500    1.7609 H         1 RES1    0.0000
     24 H9         4.4190   -0.0830    0.6949 H         1 RES1    0.0000
     25 H10        4.3835    0.3049    0.4948 Du        2 SUP2    0.0000
     26 H11        3.8877    0.9780    1.9301 Du        2 SUP2    0.0000
     27 H12        3.7240    1.6760    0.5130 Du        2 SUP2    0.0000
     28 C12        5.0653    4.5481    1.4229 C.3       1 RES1    0.0000
     29 H13        5.9370    4.2127    1.6427 H         1 RES1    0.0000
     30 H14        4.9732    5.4437    1.7554 H         1 RES1    0.0000
     31 H15        4.9527    4.5487    0.4693 H         1 RES1    0.0000
     32 C13        2.7041    4.1541    1.7231 C.3       1 RES1    0.0000
     33 H16        2.0651    3.5707    2.1393 H         1 RES1    0.0000
     34 H17        2.5731    4.1463    0.7713 H         1 RES1    0.0000
     35 H18        2.5851    5.0465    2.0556 H         1 RES1    0.0000
@<TRIPOS>BOND
     1    1    2 1
     2    2    4 2
     3    3   19 1
     4    5    1 1
     5    6    5 ar
     6    7    6 1
     7    8    6 ar
     8    9    8 1
     9   10    8 ar
    10   11   10 1
    11   12   10 ar
    12   13   12 ar
    13   14   13 1
    14   15   13 ar
    15   16   15 1
    16   17   15 ar
    17   18   17 1
    18   19   17 ar
    19   20    5 ar
    20   21    1 1
    21   22   21 1
    22   23   21 1
    23   24   21 1
    24   28    3 1
    25   29   28 1
    26   30   28 1
    27   31   28 1
    28   32    3 1
    29   33   32 1
    30   34   32 1
    31   35   32 1
    32   12   20 ar
    33   19   20 ar
@<TRIPOS>SUBSTRUCTURE
     1 RES1 1
     2 SUP2 25

@<TRIPOS>CRYSIN
   6.2620   10.3710   18.3820  90.0000  98.2640  90.0000 231 1

