# MOL2 file generated by ConQuest
# Please check atom types

@<TRIPOS>MOLECULE
KAYYEP
    36    35     2
SMALL
NO_CHARGES
****
Generated from CSD

@<TRIPOS>ATOM
      1 O1         9.1771    2.4335   20.5393 O.2       1 RES1    0.0000
      2 N1         7.7288   -1.4653   13.3035 N.pl3     1 RES1    0.0000
      3 O2         6.8480   -0.8243   12.7716 O.2       1 RES1    0.0000
      4 O3         8.1370   -2.5046   12.8357 O.2       1 RES1    0.0000
      5 O4         6.4398   -1.5737   13.7178 Du        2 SUP2    0.0000
      6 O5         8.2151   -2.0919   12.4321 Du        2 SUP2    0.0000
      7 N2         8.8387    1.1928   18.8249 N.3       1 RES1    0.0000
      8 N3         8.6794    2.3683   19.3913 N.2       1 RES1    0.0000
      9 N4        11.0128    0.9807   17.1425 N.3       1 RES1    0.0000
     10 C1        10.1611    0.2687   16.3366 C.ar      1 RES1    0.0000
     11 C2        10.6327   -0.6218   15.3930 C.ar      1 RES1    0.0000
     12 H1        11.5375   -0.8358   15.3778 H         1 RES1    0.0000
     13 C3         9.7862   -1.2005   14.4735 C.ar      1 RES1    0.0000
     14 H2        10.1236   -1.8204   13.8675 H         1 RES1    0.0000
     15 C4         8.4733   -0.8800   14.4379 C.ar      1 RES1    0.0000
     16 C5         7.8871   -0.0547   15.4224 C.ar      1 RES1    0.0000
     17 C6         6.5106    0.2812   15.4753 C.ar      1 RES1    0.0000
     18 H3         5.9557    0.0336   14.7710 H         1 RES1    0.0000
     19 C7         5.9942    0.9442   16.5138 C.ar      1 RES1    0.0000
     20 H4         5.0998    1.1995   16.4951 H         1 RES1    0.0000
     21 C8         6.7720    1.2590   17.6191 C.ar      1 RES1    0.0000
     22 H5         6.3836    1.6457   18.3715 H         1 RES1    0.0000
     23 C9         8.1193    0.9951   17.5934 C.ar      1 RES1    0.0000
     24 C10        8.7378    0.4232   16.4577 C.ar      1 RES1    0.0000
     25 C11        9.4801    0.0902   19.5337 C.3       1 RES1    0.0000
     26 H6         9.9091    0.4251   20.3255 H         1 RES1    0.0000
     27 H7        10.1350   -0.3186   18.9623 H         1 RES1    0.0000
     28 H8         8.8179   -0.5604   19.7802 H         1 RES1    0.0000
     29 C12       12.3913    0.5086   17.2625 C.3       1 RES1    0.0000
     30 H9        12.3997   -0.4510   17.2863 H         1 RES1    0.0000
     31 H10       12.7776    0.8531   18.0722 H         1 RES1    0.0000
     32 H11       12.9005    0.8147   16.5084 H         1 RES1    0.0000
     33 C13       10.9107    2.4403   17.1064 C.3       1 RES1    0.0000
     34 H12        9.9882    2.6946   17.0350 H         1 RES1    0.0000
     35 H13       11.3959    2.7761   16.3481 H         1 RES1    0.0000
     36 H14       11.2814    2.8068   17.9118 H         1 RES1    0.0000
@<TRIPOS>BOND
     1    1    8 2
     2    2    3 2
     3    4    2 2
     4    7    8 1
     5    9   10 1
     6   10   11 ar
     7   11   12 1
     8   13   11 ar
     9   14   13 1
    10   15    2 1
    11   16   15 ar
    12   17   16 ar
    13   18   17 1
    14   19   17 ar
    15   20   19 1
    16   21   19 ar
    17   22   21 1
    18   23    7 1
    19   24   10 ar
    20   25    7 1
    21   26   25 1
    22   27   25 1
    23   28   25 1
    24   29    9 1
    25   30   29 1
    26   31   29 1
    27   32   29 1
    28   33    9 1
    29   34   33 1
    30   35   33 1
    31   36   33 1
    32   13   15 ar
    33   16   24 ar
    34   21   23 ar
    35   23   24 ar
@<TRIPOS>SUBSTRUCTURE
     1 RES1 1
     2 SUP2 5

@<TRIPOS>CRYSIN
  10.4120    9.5960   26.7300  90.0000  90.0000  90.0000  61 1

