# MOL2 file generated by ConQuest
# Please check atom types

@<TRIPOS>MOLECULE
KAZVOZ
    30    31     1
SMALL
NO_CHARGES
****
Generated from CSD

@<TRIPOS>ATOM
      1 O1         1.0091    7.1381    9.2409 O.2       1 RES1    0.0000
      2 O2         2.8271    8.2895    9.1671 O.2       1 RES1    0.0000
      3 O3         6.5143    2.4437    9.0099 O.3       1 RES1    0.0000
      4 O4         5.0153    0.0236    6.2225 O.3       1 RES1    0.0000
      5 O5         2.9550    0.4154    5.3970 O.2       1 RES1    0.0000
      6 N1         2.2275    7.2309    9.1322 N.pl3     1 RES1    0.0000
      7 N2         4.3357    2.1216    6.0882 N.am      1 RES1    0.0000
      8 H1         3.7985    2.7961    6.0128 H         1 RES1    0.0000
      9 C1         2.9985    5.9897    8.9532 C.ar      1 RES1    0.0000
     10 C2         4.3272    6.0884    8.5526 C.ar      1 RES1    0.0000
     11 H2         4.7310    6.9347    8.3991 H         1 RES1    0.0000
     12 C3         5.0404    4.9194    8.3852 C.ar      1 RES1    0.0000
     13 H3         5.9476    4.9625    8.1073 H         1 RES1    0.0000
     14 C4         4.4546    3.6773    8.6164 C.ar      1 RES1    0.0000
     15 C5         3.1245    3.6167    9.0194 C.ar      1 RES1    0.0000
     16 H4         2.7179    2.7737    9.1779 H         1 RES1    0.0000
     17 C6         2.3892    4.7775    9.1919 C.ar      1 RES1    0.0000
     18 H5         1.4814    4.7376    9.4696 H         1 RES1    0.0000
     19 C7         5.2450    2.4095    8.3723 C.3       1 RES1    0.0000
     20 H6         4.7252    1.6246    8.7108 H         1 RES1    0.0000
     21 C8         5.5502    2.2128    6.8864 C.3       1 RES1    0.0000
     22 H7         6.1440    2.9430    6.5475 H         1 RES1    0.0000
     23 C9         6.1575    0.8446    6.5981 C.3       1 RES1    0.0000
     24 H8         6.8136    0.8969    5.8586 H         1 RES1    0.0000
     25 H9         6.6058    0.4796    7.4017 H         1 RES1    0.0000
     26 C10        3.9919    0.8446    5.8612 C.2       1 RES1    0.0000
     27 C11        6.4423    2.1689   10.3997 C.3       1 RES1    0.0000
     28 H10        5.9058    2.8592   10.8419 H         1 RES1    0.0000
     29 H11        7.3457    2.1647   10.7787 H         1 RES1    0.0000
     30 H12        6.0257    1.2927   10.5380 H         1 RES1    0.0000
@<TRIPOS>BOND
     1    1    6 2
     2    2    6 2
     3    3   19 1
     4    4   23 1
     5    5   26 2
     6    6    9 1
     7    7    8 1
     8    9   10 ar
     9   10   11 1
    10   12   10 ar
    11   13   12 1
    12   14   12 ar
    13   15   14 ar
    14   16   15 1
    15   17    9 ar
    16   18   17 1
    17   19   14 1
    18   20   19 1
    19   21    7 1
    20   22   21 1
    21   23   21 1
    22   24   23 1
    23   25   23 1
    24   26    4 1
    25   27    3 1
    26   28   27 1
    27   29   27 1
    28   30   27 1
    29    7   26 1
    30   15   17 ar
    31   19   21 1
@<TRIPOS>SUBSTRUCTURE
     1 RES1 1

@<TRIPOS>CRYSIN
   6.4316    8.2971   11.1074  90.0000  92.8410  90.0000   4 1

