# MOL2 file generated by ConQuest
# Please check atom types

@<TRIPOS>MOLECULE
KAZZOC
    16    16     1
SMALL
NO_CHARGES
****
Generated from CSD

@<TRIPOS>ATOM
      1 C1         1.2173    5.2819    2.8277 C.2       1 RES1    0.0000
      2 C2         1.4014    6.6373    2.3388 C.1       1 RES1    0.0000
      3 C3         0.6189    4.2675    1.9321 C.ar      1 RES1    0.0000
      4 C4         0.4419    2.9395    2.3297 C.ar      1 RES1    0.0000
      5 H1         0.7042    2.6608    3.1986 H         1 RES1    0.0000
      6 C5        -0.1234    2.0294    1.4398 C.ar      1 RES1    0.0000
      7 H2        -0.2379    1.1290    1.7222 H         1 RES1    0.0000
      8 C6        -0.3403    3.6476   -0.1847 C.ar      1 RES1    0.0000
      9 H3        -0.6037    3.8985   -1.0627 H         1 RES1    0.0000
     10 C7         0.2060    4.6218    0.6441 C.ar      1 RES1    0.0000
     11 H4         0.2973    5.5167    0.3395 H         1 RES1    0.0000
     12 N1         1.6082    4.9445    4.0189 N.2       1 RES1    0.0000
     13 N2         1.5606    7.7035    1.9308 N.1       1 RES1    0.0000
     14 N3        -0.5142    2.3702    0.1952 N.ar      1 RES1    0.0000
     15 O1         2.1354    5.9936    4.7284 O.3       1 RES1    0.0000
     16 H5         2.5620    5.6979    5.3890 H         1 RES1    0.0000
@<TRIPOS>BOND
     1    1    2 1
     2    2   13 3
     3    3    1 1
     4    4    3 ar
     5    5    4 1
     6    6    4 ar
     7    7    6 1
     8    8    9 1
     9   10    3 ar
    10   11   10 1
    11   12    1 2
    12   14    6 ar
    13   15   12 1
    14   16   15 1
    15    8   10 ar
    16    8   14 ar
@<TRIPOS>SUBSTRUCTURE
     1 RES1 1

@<TRIPOS>CRYSIN
   3.7280   13.9380   13.0080  90.0000  90.4740  90.0000  14 1

