# MOL2 file generated by ConQuest
# Please check atom types

@<TRIPOS>MOLECULE
KAZZIW
    16    16     1
SMALL
NO_CHARGES
****
Generated from CSD

@<TRIPOS>ATOM
      1 C1        -0.2664    4.9682    7.8403 C.2       1 RES1    0.0000
      2 C2         0.1320    5.9574    8.7960 C.1       1 RES1    0.0000
      3 C3        -0.0145    3.5601    8.1180 C.ar      1 RES1    0.0000
      4 C4         0.5424    3.2026    9.3079 C.ar      1 RES1    0.0000
      5 C5         0.5310    0.9790    8.7612 C.ar      1 RES1    0.0000
      6 C6        -0.0289    1.2667    7.5355 C.ar      1 RES1    0.0000
      7 C7        -0.3168    2.5607    7.2155 C.ar      1 RES1    0.0000
      8 H1         0.9629    3.8309    9.9902 H         1 RES1    0.0000
      9 H2         0.8618    0.1192    9.1225 H         1 RES1    0.0000
     10 H3        -0.2986    0.5448    7.0832 H         1 RES1    0.0000
     11 H4        -0.7459    2.8433    6.4324 H         1 RES1    0.0000
     12 H5        -1.6340    6.6912    5.5971 H         1 RES1    0.0000
     13 N1        -0.8611    5.3070    6.7328 N.2       1 RES1    0.0000
     14 N2         0.4802    6.7048    9.6019 N.1       1 RES1    0.0000
     15 N3         0.8448    1.9222    9.6475 N.ar      1 RES1    0.0000
     16 O1        -1.0169    6.6725    6.5864 O.3       1 RES1    0.0000
@<TRIPOS>BOND
     1    1    2 1
     2    2   14 3
     3    3    1 1
     4    4    3 ar
     5    5    6 ar
     6    6    7 ar
     7    7    3 ar
     8    8    4 1
     9    9    5 1
    10   10    6 1
    11   11    7 1
    12   12   16 1
    13   13    1 2
    14   15    4 ar
    15   16   13 1
    16    5   15 ar
@<TRIPOS>SUBSTRUCTURE
     1 RES1 1

@<TRIPOS>CRYSIN
   3.7810   17.0260   10.9410  90.0000  97.5100  90.0000  14 1

