# MOL2 file generated by ConQuest
# Please check atom types

@<TRIPOS>MOLECULE
KEBKIM
    60    64     1
SMALL
NO_CHARGES
****
Generated from CSD

@<TRIPOS>ATOM
      1 C1        10.6211    8.9865    2.4506 C.3       1 RES1    0.0000
      2 C2        11.9632    8.6978    3.1083 C.2       1 RES1    0.0000
      3 N1        12.1957    8.6724    4.4721 N.pl3     1 RES1    0.0000
      4 H1        11.6081    8.8681    5.0976 H         1 RES1    0.0000
      5 C3        13.5034    8.2881    4.6880 C.ar      1 RES1    0.0000
      6 C4        14.1862    8.0753    5.8881 C.ar      1 RES1    0.0000
      7 H2        13.7690    8.2321    6.7267 H         1 RES1    0.0000
      8 C5        15.4875    7.6285    5.8079 C.ar      1 RES1    0.0000
      9 H3        15.9729    7.4608    6.6070 H         1 RES1    0.0000
     10 C6        16.1114    7.4151    4.5667 C.ar      1 RES1    0.0000
     11 H4        17.0076    7.1031    4.5458 H         1 RES1    0.0000
     12 C7        15.4513    7.6490    3.3809 C.ar      1 RES1    0.0000
     13 H5        15.8894    7.5193    2.5488 H         1 RES1    0.0000
     14 C8        14.1154    8.0838    3.4285 C.ar      1 RES1    0.0000
     15 C9        13.1120    8.3584    2.4379 C.2       1 RES1    0.0000
     16 C10       13.2066    8.3061    0.9403 C.3       1 RES1    0.0000
     17 H6        13.6728    7.4777    0.6627 H         1 RES1    0.0000
     18 H7        13.7270    9.0801    0.6102 H         1 RES1    0.0000
     19 C11       11.8016    8.3342    0.3422 C.3       1 RES1    0.0000
     20 H8        11.8546    8.5546   -0.6219 H         1 RES1    0.0000
     21 H9        11.3846    7.4412    0.4321 H         1 RES1    0.0000
     22 N2        10.9719    9.3399    1.0348 N.am      1 RES1    0.0000
     23 C12       10.9867   10.5916    0.5162 C.2       1 RES1    0.0000
     24 O1        11.4082   10.8056   -0.6268 O.2       1 RES1    0.0000
     25 C13       10.4818   11.7451    1.3424 C.3       1 RES1    0.0000
     26 H10        9.5424   11.9312    1.0934 H         1 RES1    0.0000
     27 H11       11.0161   12.5504    1.1284 H         1 RES1    0.0000
     28 C14       10.5534   11.4883    2.8396 C.3       1 RES1    0.0000
     29 H12       10.0912   12.2174    3.3254 H         1 RES1    0.0000
     30 H13       11.4998   11.4760    3.1298 H         1 RES1    0.0000
     31 C15        9.8937   10.1475    3.1743 C.3       1 RES1    0.0000
     32 H14        9.9900    9.9997    4.1590 H         1 RES1    0.0000
     33 C16        8.4016   10.2453    2.8644 C.2       1 RES1    0.0000
     34 O2         7.9760   10.1066    1.7358 O.2       1 RES1    0.0000
     35 C17        7.4558   10.5585    3.9944 C.ar      1 RES1    0.0000
     36 C18        7.8953   11.0491    5.2220 C.ar      1 RES1    0.0000
     37 H15        8.8231   11.1976    5.3647 H         1 RES1    0.0000
     38 C19        6.9921   11.3233    6.2367 C.ar      1 RES1    0.0000
     39 H16        7.2861   11.6698    7.0712 H         1 RES1    0.0000
     40 C20        6.1007   10.3487    3.7863 C.ar      1 RES1    0.0000
     41 H17        5.7959   10.0335    2.9429 H         1 RES1    0.0000
     42 C21        5.1869   10.5958    4.8027 C.ar      1 RES1    0.0000
     43 H18        4.2592   10.4354    4.6728 H         1 RES1    0.0000
     44 C22        5.6589   11.0799    6.0047 C.ar      1 RES1    0.0000
     45 N3         4.7022   11.3527    7.0987 N.pl3     1 RES1    0.0000
     46 O3         3.5146   11.1783    6.8641 O.2       1 RES1    0.0000
     47 O4         5.1505   11.7781    8.1673 O.2       1 RES1    0.0000
     48 C23        9.7339    7.7110    2.4561 C.3       1 RES1    0.0000
     49 H19        8.9600    7.8653    1.8583 H         1 RES1    0.0000
     50 H20       10.2584    6.9626    2.0758 H         1 RES1    0.0000
     51 C24        9.2083    7.2852    3.8266 C.3       1 RES1    0.0000
     52 H21        9.9745    7.1083    4.4290 H         1 RES1    0.0000
     53 H22        8.6788    8.0253    4.2173 H         1 RES1    0.0000
     54 C25        8.3388    6.0368    3.7409 C.3       1 RES1    0.0000
     55 H23        7.5163    6.2472    3.2320 H         1 RES1    0.0000
     56 H24        8.8289    5.3315    3.2495 H         1 RES1    0.0000
     57 C26        7.9539    5.5114    5.1177 C.3       1 RES1    0.0000
     58 H25        7.4021    4.7085    5.0188 H         1 RES1    0.0000
     59 H26        7.4480    6.1978    5.5998 H         1 RES1    0.0000
     60 H27        8.7647    5.2899    5.6217 H         1 RES1    0.0000
@<TRIPOS>BOND
     1    1    2 1
     2    2    3 1
     3    3    4 1
     4    5    3 1
     5    6    5 ar
     6    7    6 1
     7    8    6 ar
     8    9    8 1
     9   10    8 ar
    10   11   10 1
    11   12   10 ar
    12   13   12 1
    13   14    5 ar
    14   15    2 2
    15   16   15 1
    16   17   16 1
    17   18   16 1
    18   19   16 1
    19   20   19 1
    20   21   19 1
    21   22    1 1
    22   23   22 1
    23   24   23 2
    24   25   23 1
    25   26   25 1
    26   27   25 1
    27   28   25 1
    28   29   28 1
    29   30   28 1
    30   31    1 1
    31   32   31 1
    32   33   31 1
    33   34   33 2
    34   35   33 1
    35   36   35 ar
    36   37   36 1
    37   38   36 ar
    38   39   38 1
    39   40   35 ar
    40   41   40 1
    41   42   40 ar
    42   43   42 1
    43   44   38 ar
    44   45   44 1
    45   46   45 2
    46   47   45 2
    47   48    1 1
    48   49   48 1
    49   50   48 1
    50   51   48 1
    51   52   51 1
    52   53   51 1
    53   54   51 1
    54   55   54 1
    55   56   54 1
    56   57   54 1
    57   58   57 1
    58   59   57 1
    59   60   57 1
    60   12   14 ar
    61   14   15 1
    62   19   22 1
    63   28   31 1
    64   42   44 ar
@<TRIPOS>SUBSTRUCTURE
     1 RES1 1

@<TRIPOS>CRYSIN
  11.7620   13.0069   14.7316  90.0000  97.7240  90.0000  14 1

