# MOL2 file generated by ConQuest
# Please check atom types

@<TRIPOS>MOLECULE
KECTAN
    38    38     1
SMALL
NO_CHARGES
****
Generated from CSD

@<TRIPOS>ATOM
      1 O1         6.9907    2.6915    6.4805 O.3       1 RES1    0.0000
      2 O2         5.6396    0.9068    6.5766 O.2       1 RES1    0.0000
      3 O3         3.6425    2.3358    5.4220 O.3       1 RES1    0.0000
      4 O4         5.3310    2.1503    3.3272 O.3       1 RES1    0.0000
      5 O5         4.0394    4.4071    2.4987 O.2       1 RES1    0.0000
      6 O6         4.8196    5.5579    4.2610 O.3       1 RES1    0.0000
      7 O7         8.0010    1.1941    4.0182 O.2       1 RES1    0.0000
      8 O8         8.9955    2.9515    3.3519 O.2       1 RES1    0.0000
      9 O9         9.0437    1.5172   -1.6961 O.2       1 RES1    0.0000
     10 O10        7.2500    2.3191   -2.6208 O.2       1 RES1    0.0000
     11 O11        3.2277    2.8223    0.1039 O.2       1 RES1    0.0000
     12 O12        3.2084    1.3796    1.7156 O.2       1 RES1    0.0000
     13 N1         8.1936    2.0363    3.2260 N.pl3     1 RES1    0.0000
     14 N2         7.8970    1.9557   -1.6571 N.pl3     1 RES1    0.0000
     15 N3         3.7780    2.0986    0.9325 N.pl3     1 RES1    0.0000
     16 C1         5.8691    2.0393    6.2519 C.2       1 RES1    0.0000
     17 C2         4.8923    2.9606    5.5311 C.3       1 RES1    0.0000
     18 C3         5.4463    3.3308    4.1415 C.3       1 RES1    0.0000
     19 C4         4.6678    4.4739    3.5143 C.2       1 RES1    0.0000
     20 C5         8.0649    1.9580    7.1597 C.3       1 RES1    0.0000
     21 C6         4.1741    6.7657    3.7636 C.3       1 RES1    0.0000
     22 C7         5.9711    2.1268    2.1299 C.ar      1 RES1    0.0000
     23 C8         7.3609    2.0736    2.0013 C.ar      1 RES1    0.0000
     24 C9         8.0075    2.0097    0.7909 C.ar      1 RES1    0.0000
     25 C10        7.2340    2.0036   -0.3416 C.ar      1 RES1    0.0000
     26 C11        5.8614    2.0637   -0.3065 C.ar      1 RES1    0.0000
     27 C12        5.2557    2.1024    0.9312 C.ar      1 RES1    0.0000
     28 H1         3.0840    2.8124    5.5584 H         1 RES1    0.0000
     29 H2         4.8749    3.8081    6.1558 H         1 RES1    0.0000
     30 H3         6.2722    3.5269    4.3246 H         1 RES1    0.0000
     31 H4         8.4835    1.5658    6.5454 H         1 RES1    0.0000
     32 H5         7.6183    1.7634    7.9610 H         1 RES1    0.0000
     33 H6         8.5116    2.6527    7.6883 H         1 RES1    0.0000
     34 H7         4.2620    7.2894    4.3766 H         1 RES1    0.0000
     35 H8         4.5250    6.9701    2.7273 H         1 RES1    0.0000
     36 H9         2.9935    6.6053    3.8441 H         1 RES1    0.0000
     37 H10        8.9218    1.7330    0.7403 H         1 RES1    0.0000
     38 H11        5.3343    2.1739   -1.0909 H         1 RES1    0.0000
@<TRIPOS>BOND
     1    1   16 1
     2    2   16 2
     3    3   17 1
     4    4   18 1
     5    5   19 2
     6    6   19 1
     7    7   13 2
     8    8   13 2
     9    9   14 2
    10   10   14 2
    11   11   15 2
    12   12   15 2
    13   13   23 1
    14   14   25 1
    15   15   27 1
    16   16   17 1
    17   17   18 1
    18   18   19 1
    19   20    1 1
    20   21    6 1
    21   22    4 1
    22   23   22 ar
    23   24   23 ar
    24   25   24 ar
    25   26   25 ar
    26   27   22 ar
    27   28    3 1
    28   29   17 1
    29   30   18 1
    30   31   20 1
    31   32   20 1
    32   33   20 1
    33   34   21 1
    34   35   21 1
    35   36   21 1
    36   37   24 1
    37   38   26 1
    38   26   27 ar
@<TRIPOS>SUBSTRUCTURE
     1 RES1 1

@<TRIPOS>CRYSIN
   8.0400    7.6010   12.9870  90.0000  90.2000  90.0000   4 1

