# MOL2 file generated by ConQuest
# Please check atom types

@<TRIPOS>MOLECULE
KEDBEB
    80    85     1
SMALL
NO_CHARGES
****
Generated from CSD

@<TRIPOS>ATOM
      1 C1         8.0325    8.6668    4.5459 C.3       1 RES1    0.0000
      2 H1         7.8955    9.2533    3.7854 H         1 RES1    0.0000
      3 H2         8.6190    9.1250    5.1678 H         1 RES1    0.0000
      4 C2         8.7296    7.4051    4.0636 C.3       1 RES1    0.0000
      5 H3         9.5630    7.6393    3.6249 H         1 RES1    0.0000
      6 H4         8.9377    6.8369    4.8213 H         1 RES1    0.0000
      7 C3         7.8377    6.6556    3.0946 C.3       1 RES1    0.0000
      8 H5         8.2793    5.8379    2.7833 H         1 RES1    0.0000
      9 C4         6.5032    6.3257    3.7369 C.3       1 RES1    0.0000
     10 H6         6.6483    5.6882    4.4529 H         1 RES1    0.0000
     11 H7         5.9326    5.9031    3.0773 H         1 RES1    0.0000
     12 C5         5.7830    7.5537    4.3025 C.3       1 RES1    0.0000
     13 H8         5.5472    8.1159    3.5353 H         1 RES1    0.0000
     14 C6         4.4568    7.1525    4.9734 C.3       1 RES1    0.0000
     15 H9         3.8836    7.9326    5.0292 H         1 RES1    0.0000
     16 H10        4.0095    6.4957    4.4174 H         1 RES1    0.0000
     17 C7         4.6374    6.5721    6.3742 C.3       1 RES1    0.0000
     18 H11        3.7649    6.4204    6.7715 H         1 RES1    0.0000
     19 H12        5.0879    5.7157    6.3085 H         1 RES1    0.0000
     20 C8         5.4464    7.4975    7.2761 C.3       1 RES1    0.0000
     21 H13        4.9781    8.3562    7.3326 H         1 RES1    0.0000
     22 C9         6.8371    7.7451    6.6265 C.3       1 RES1    0.0000
     23 H14        7.2180    6.8593    6.4504 H         1 RES1    0.0000
     24 C10        6.6724    8.4308    5.2357 C.3       1 RES1    0.0000
     25 C11        7.8402    8.4692    7.5440 C.3       1 RES1    0.0000
     26 H15        8.7262    8.3969    7.1551 H         1 RES1    0.0000
     27 H16        7.6090    9.4111    7.5759 H         1 RES1    0.0000
     28 C12        7.8845    7.9244    8.9812 C.3       1 RES1    0.0000
     29 H17        8.2748    7.0365    8.9752 H         1 RES1    0.0000
     30 H18        8.4502    8.4967    9.5244 H         1 RES1    0.0000
     31 C13        6.4870    7.8601    9.6004 C.3       1 RES1    0.0000
     32 C14        5.6232    6.9595    8.6875 C.3       1 RES1    0.0000
     33 H19        6.1004    6.1078    8.6034 H         1 RES1    0.0000
     34 C15        4.3781    6.6800    9.5393 C.3       1 RES1    0.0000
     35 H20        3.7756    7.4407    9.5430 H         1 RES1    0.0000
     36 H21        3.9022    5.8980    9.2219 H         1 RES1    0.0000
     37 C16        4.9818    6.4407   10.9284 C.3       1 RES1    0.0000
     38 H22        5.0453    5.4795   11.1112 H         1 RES1    0.0000
     39 C17        6.3915    7.0861   10.9416 C.3       1 RES1    0.0000
     40 H23        7.0679    6.3776   10.9507 H         1 RES1    0.0000
     41 C18        5.9121    9.2798    9.7263 C.3       1 RES1    0.0000
     42 H24        5.7214    9.6260    8.8518 H         1 RES1    0.0000
     43 H25        6.5516    9.8459   10.1632 H         1 RES1    0.0000
     44 H26        5.1035    9.2523   10.2426 H         1 RES1    0.0000
     45 C19        6.0065    9.8134    5.3849 C.3       1 RES1    0.0000
     46 H27        6.0242   10.2696    4.5408 H         1 RES1    0.0000
     47 H28        6.4847   10.3296    6.0381 H         1 RES1    0.0000
     48 H29        5.0970    9.7003    5.6697 H         1 RES1    0.0000
     49 C20        6.4488    7.8562   12.2791 C.3       1 RES1    0.0000
     50 H30        6.3289    8.8083   12.0829 H         1 RES1    0.0000
     51 C21        7.7554    7.7004   13.0507 C.3       1 RES1    0.0000
     52 H31        7.7242    8.2380   13.8455 H         1 RES1    0.0000
     53 H32        8.4881    7.9865   12.5003 H         1 RES1    0.0000
     54 H33        7.8769    6.7788   13.2912 H         1 RES1    0.0000
     55 C22        5.1885    7.3654   13.0098 C.3       1 RES1    0.0000
     56 O1         4.2473    7.1015   11.9739 O.3       1 RES1    0.0000
     57 C23        4.5290    8.3114   13.9868 C.2       1 RES1    0.0000
     58 C24        3.3445    7.7340   14.7185 C.3       1 RES1    0.0000
     59 H34        2.6159    7.5802   14.0973 H         1 RES1    0.0000
     60 H35        3.0402    8.3572   15.3969 H         1 RES1    0.0000
     61 C25        3.7611    6.4082   15.3762 C.3       1 RES1    0.0000
     62 H36        2.9536    5.9632   15.7095 H         1 RES1    0.0000
     63 C26        4.3948    5.5192   14.3292 C.3       1 RES1    0.0000
     64 H37        4.6868    4.6933   14.7462 H         1 RES1    0.0000
     65 H38        3.7327    5.2952   13.6562 H         1 RES1    0.0000
     66 O2         5.5252    6.1543   13.6912 O.3       1 RES1    0.0000
     67 C27        4.6880    6.6566   16.5556 C.3       1 RES1    0.0000
     68 H39        4.8508    5.8298   17.0158 H         1 RES1    0.0000
     69 H40        4.2791    7.2829   17.1578 H         1 RES1    0.0000
     70 H41        5.5208    7.0151   16.2384 H         1 RES1    0.0000
     71 O3         7.5242    7.5329    1.9588 O.3       1 RES1    0.0000
     72 C28        8.4727    7.8022    1.0635 C.2       1 RES1    0.0000
     73 O4         9.5471    7.2656    1.0417 O.2       1 RES1    0.0000
     74 C29        8.0602    8.9111    0.1447 C.3       1 RES1    0.0000
     75 H42        8.5310    8.8287   -0.6878 H         1 RES1    0.0000
     76 H43        8.2695    9.7563    0.5492 H         1 RES1    0.0000
     77 H44        7.1145    8.8582   -0.0152 H         1 RES1    0.0000
     78 N1         5.0986    9.4325   14.1593 N.2       1 RES1    0.0000
     79 O5         4.4329   10.2146   15.1287 O.3       1 RES1    0.0000
     80 H45        4.9500   10.9264   15.2955 H         1 RES1    0.0000
@<TRIPOS>BOND
     1    1    2 1
     2    3    1 1
     3    4    1 1
     4    5    4 1
     5    6    4 1
     6    7    4 1
     7    8    7 1
     8    9    7 1
     9   10    9 1
    10   11    9 1
    11   12    9 1
    12   13   12 1
    13   14   12 1
    14   15   14 1
    15   16   14 1
    16   17   14 1
    17   18   17 1
    18   19   17 1
    19   20   17 1
    20   21   20 1
    21   22   20 1
    22   23   22 1
    23   24    1 1
    24   25   22 1
    25   26   25 1
    26   27   25 1
    27   28   25 1
    28   29   28 1
    29   30   28 1
    30   31   28 1
    31   32   20 1
    32   33   32 1
    33   34   32 1
    34   35   34 1
    35   36   34 1
    36   37   34 1
    37   38   37 1
    38   39   31 1
    39   40   39 1
    40   41   31 1
    41   42   41 1
    42   43   41 1
    43   44   41 1
    44   45   24 1
    45   46   45 1
    46   47   45 1
    47   48   45 1
    48   49   39 1
    49   50   49 1
    50   51   49 1
    51   52   51 1
    52   53   51 1
    53   54   51 1
    54   55   49 1
    55   56   37 1
    56   57   55 1
    57   58   57 1
    58   59   58 1
    59   60   58 1
    60   61   58 1
    61   62   61 1
    62   63   61 1
    63   64   63 1
    64   65   63 1
    65   66   55 1
    66   67   61 1
    67   68   67 1
    68   69   67 1
    69   70   67 1
    70   71    7 1
    71   72   71 1
    72   73   72 2
    73   74   72 1
    74   75   74 1
    75   76   74 1
    76   77   74 1
    77   78   57 2
    78   79   78 1
    79   80   79 1
    80   12   24 1
    81   22   24 1
    82   31   32 1
    83   37   39 1
    84   55   56 1
    85   63   66 1
@<TRIPOS>SUBSTRUCTURE
     1 RES1 1

@<TRIPOS>CRYSIN
   7.9792   10.1830   16.9023  90.0000  91.0980  90.0000   4 1

