# MOL2 file generated by ConQuest
# Please check atom types

@<TRIPOS>MOLECULE
KEDCUT
    46    48     1
SMALL
NO_CHARGES
****
Generated from CSD

@<TRIPOS>ATOM
      1 O1         3.6133    4.6289    3.8697 O.2       1 RES1    0.0000
      2 O2         5.6123    3.8745    4.1516 O.2       1 RES1    0.0000
      3 O3         7.0448   -0.2723    2.3952 O.2       1 RES1    0.0000
      4 O4         5.6850   -1.4948    1.2640 O.2       1 RES1    0.0000
      5 N1         0.5412    2.8413    2.2411 N.2       1 RES1    0.0000
      6 N2         1.7772    3.1313    2.7782 N.pl3     1 RES1    0.0000
      7 H1         1.9022    3.8695    3.2013 H         1 RES1    0.0000
      8 N3        -1.3843    1.5621   -0.1153 N.1       1 RES1    0.0000
      9 N4         4.4691    3.7426    3.7357 N.pl3     1 RES1    0.0000
     10 N5         5.9387   -0.5077    1.9318 N.pl3     1 RES1    0.0000
     11 C1        -0.3241    4.9899    3.1419 C.3       1 RES1    0.0000
     12 H2         0.6045    5.2536    3.2298 H         1 RES1    0.0000
     13 H3        -0.6788    4.8558    4.0349 H         1 RES1    0.0000
     14 C2        -1.0921    6.1194    2.4746 C.3       1 RES1    0.0000
     15 H4        -1.1382    6.8782    3.0776 H         1 RES1    0.0000
     16 H5        -0.6217    6.4010    1.6749 H         1 RES1    0.0000
     17 C3        -2.4909    5.6834    2.1071 C.3       1 RES1    0.0000
     18 H6        -2.9570    6.4229    1.6882 H         1 RES1    0.0000
     19 H7        -2.9741    5.4430    2.9139 H         1 RES1    0.0000
     20 C4        -2.4759    4.4999    1.1612 C.3       1 RES1    0.0000
     21 H8        -1.9575    4.7630    0.3730 H         1 RES1    0.0000
     22 C5        -3.8740    4.0992    0.6753 C.3       1 RES1    0.0000
     23 H9        -4.3192    4.8828    0.3159 H         1 RES1    0.0000
     24 H10       -3.7839    3.4540   -0.0438 H         1 RES1    0.0000
     25 C6        -4.7347    3.5022    1.7656 C.3       1 RES1    0.0000
     26 H11       -5.5879    3.2278    1.3951 H         1 RES1    0.0000
     27 H12       -4.9028    4.1687    2.4495 H         1 RES1    0.0000
     28 C7        -4.0297    2.2946    2.3850 C.3       1 RES1    0.0000
     29 H13       -4.5544    1.9734    3.1347 H         1 RES1    0.0000
     30 H14       -3.9863    1.5827    1.7282 H         1 RES1    0.0000
     31 C8        -2.6404    2.6080    2.8587 C.2       1 RES1    0.0000
     32 C9        -1.7380    3.2788    1.8201 C.3       1 RES1    0.0000
     33 C10       -0.3875    3.6958    2.4015 C.2       1 RES1    0.0000
     34 C11        2.7894    2.2499    2.6362 C.ar      1 RES1    0.0000
     35 C12        2.5540    0.9984    2.0285 C.ar      1 RES1    0.0000
     36 H15        1.6899    0.7750    1.7681 H         1 RES1    0.0000
     37 C13        3.5637    0.1113    1.8157 C.ar      1 RES1    0.0000
     38 H16        3.3888   -0.7055    1.4065 H         1 RES1    0.0000
     39 C14        4.8549    0.4304    2.2116 C.ar      1 RES1    0.0000
     40 C15        5.1308    1.6082    2.8412 C.ar      1 RES1    0.0000
     41 H17        5.9964    1.8011    3.1213 H         1 RES1    0.0000
     42 C16        4.1045    2.5144    3.0595 C.ar      1 RES1    0.0000
     43 C17       -2.2107    2.2797    4.0570 C.2       1 RES1    0.0000
     44 H18       -2.7745    1.8365    4.6477 H         1 RES1    0.0000
     45 H19       -1.3415    2.4917    4.3128 H         1 RES1    0.0000
     46 C18       -1.5038    2.2918    0.7487 C.1       1 RES1    0.0000
@<TRIPOS>BOND
     1    1    9 2
     2    2    9 2
     3    3   10 2
     4    4   10 2
     5    5    6 1
     6    6    7 1
     7    8   46 3
     8    9   42 1
     9   10   39 1
    10   11   12 1
    11   13   11 1
    12   14   11 1
    13   15   14 1
    14   16   14 1
    15   17   14 1
    16   18   17 1
    17   19   17 1
    18   20   17 1
    19   21   20 1
    20   22   20 1
    21   23   22 1
    22   24   22 1
    23   25   22 1
    24   26   25 1
    25   27   25 1
    26   28   25 1
    27   29   28 1
    28   30   28 1
    29   31   28 1
    30   32   20 1
    31   33    5 2
    32   34    6 1
    33   35   34 ar
    34   36   35 1
    35   37   35 ar
    36   38   37 1
    37   39   37 ar
    38   40   39 ar
    39   41   40 1
    40   42   34 ar
    41   43   31 2
    42   44   43 1
    43   45   43 1
    44   46   32 1
    45   11   33 1
    46   31   32 1
    47   32   33 1
    48   40   42 ar
@<TRIPOS>SUBSTRUCTURE
     1 RES1 1

@<TRIPOS>CRYSIN
  13.1764    7.0909   19.0460  90.0000  92.1540  90.0000 231 1

