# MOL2 file generated by ConQuest
# Please check atom types

@<TRIPOS>MOLECULE
KEDGOR
    41    44     1
SMALL
NO_CHARGES
****
Generated from CSD

@<TRIPOS>ATOM
      1 O1         6.9663   10.6882    1.7351 O.3       1 RES1    0.0000
      2 O2         6.0611    9.7087    3.5322 O.2       1 RES1    0.0000
      3 O3         4.4366   13.2403    1.6037 O.2       1 RES1    0.0000
      4 O4         4.2178   10.9218   -1.7674 O.3       1 RES1    0.0000
      5 O5        12.1694   10.8941    6.6450 O.2       1 RES1    0.0000
      6 O6        12.6846   12.2276    5.0164 O.2       1 RES1    0.0000
      7 N1        11.9243   11.4427    5.5694 N.pl3     1 RES1    0.0000
      8 C1         5.7677   10.4744    0.9463 C.3       1 RES1    0.0000
      9 H1         4.9758   10.2794    1.5233 H         1 RES1    0.0000
     10 C2         6.0038    9.3696   -0.0761 C.3       1 RES1    0.0000
     11 H2         6.7258    8.7625    0.2249 H         1 RES1    0.0000
     12 H3         5.1784    8.8386   -0.2130 H         1 RES1    0.0000
     13 C3         6.4025   10.0822   -1.3603 C.3       1 RES1    0.0000
     14 H4         7.3641   10.3138   -1.3549 H         1 RES1    0.0000
     15 H5         6.2076    9.5236   -2.1534 H         1 RES1    0.0000
     16 C4         5.5394   11.3271   -1.3440 C.3       1 RES1    0.0000
     17 H6         5.9120   12.0355   -1.9427 H         1 RES1    0.0000
     18 C5         3.1941   11.7714   -1.4559 C.ar      1 RES1    0.0000
     19 C6         2.0880   11.7732   -2.3056 C.ar      1 RES1    0.0000
     20 H7         2.0751   11.2272   -3.0824 H         1 RES1    0.0000
     21 C7         1.0099   12.5819   -1.9981 C.ar      1 RES1    0.0000
     22 H8         0.2612   12.6064   -2.5826 H         1 RES1    0.0000
     23 C8         1.0046   13.3628   -0.8453 C.ar      1 RES1    0.0000
     24 H9         0.2505   13.9022   -0.6367 H         1 RES1    0.0000
     25 C9         2.0855   13.3510   -0.0152 C.ar      1 RES1    0.0000
     26 H10        2.0747   13.8786    0.7747 H         1 RES1    0.0000
     27 C10        3.2110   12.5736   -0.3107 C.ar      1 RES1    0.0000
     28 C11        4.3904   12.5926    0.5672 C.2       1 RES1    0.0000
     29 C12        5.5688   11.7645    0.1184 C.3       1 RES1    0.0000
     30 H11        6.3871   12.3255    0.2434 H         1 RES1    0.0000
     31 C13        6.9763   10.2714    3.0063 C.2       1 RES1    0.0000
     32 C14        8.2736   10.6029    3.6593 C.ar      1 RES1    0.0000
     33 C15        8.4621   10.2118    4.9859 C.ar      1 RES1    0.0000
     34 H12        7.7663    9.7610    5.4510 H         1 RES1    0.0000
     35 C16        9.6630   10.4809    5.6270 C.ar      1 RES1    0.0000
     36 H13        9.8065   10.2196    6.5299 H         1 RES1    0.0000
     37 C17       10.6383   11.1380    4.9131 C.ar      1 RES1    0.0000
     38 C18       10.4764   11.5688    3.6126 C.ar      1 RES1    0.0000
     39 H14       11.1641   12.0482    3.1650 H         1 RES1    0.0000
     40 C19        9.2855   11.2817    2.9846 C.ar      1 RES1    0.0000
     41 H15        9.1533   11.5480    2.0817 H         1 RES1    0.0000
@<TRIPOS>BOND
     1    1    8 1
     2    2   31 2
     3    3   28 2
     4    4   16 1
     5    5    7 2
     6    6    7 2
     7    7   37 1
     8    8    9 1
     9   10    8 1
    10   11   10 1
    11   12   10 1
    12   13   10 1
    13   14   13 1
    14   15   13 1
    15   16   13 1
    16   17   16 1
    17   18    4 1
    18   19   18 ar
    19   20   19 1
    20   21   19 ar
    21   22   21 1
    22   23   21 ar
    23   24   23 1
    24   25   23 ar
    25   26   25 1
    26   27   18 ar
    27   28   27 1
    28   29    8 1
    29   30   29 1
    30   31    1 1
    31   32   31 1
    32   33   32 ar
    33   34   33 1
    34   35   33 ar
    35   36   35 1
    36   37   35 ar
    37   38   37 ar
    38   39   38 1
    39   40   32 ar
    40   41   40 1
    41   16   29 1
    42   25   27 ar
    43   28   29 1
    44   38   40 ar
@<TRIPOS>SUBSTRUCTURE
     1 RES1 1

@<TRIPOS>CRYSIN
   8.0391   18.1230   11.2750  90.0000 105.4990  90.0000  14 1

