# MOL2 file generated by ConQuest
# Please check atom types

@<TRIPOS>MOLECULE
KEDJUB
    23    24     1
SMALL
NO_CHARGES
****
Generated from CSD

@<TRIPOS>ATOM
      1 O1         1.3915    1.2121    8.2196 O.2       1 RES1    0.0000
      2 O2        -0.0673    0.5093    6.7619 O.2       1 RES1    0.0000
      3 N1         0.8436    1.2630    7.1261 N.pl3     1 RES1    0.0000
      4 N2        -0.2189    1.7955    4.2120 N.pl3     1 RES1    0.0000
      5 H1        -0.4330    2.0451    3.3955 H         1 RES1    0.0000
      6 H2        -0.6498    1.1307    4.5973 H         1 RES1    0.0000
      7 O3         0.7226    3.6988    2.3673 O.2       1 RES1    0.0000
      8 O4         2.3986    4.9844    2.9286 O.2       1 RES1    0.0000
      9 N3         1.5731    4.1020    3.1747 N.pl3     1 RES1    0.0000
     10 C1         1.5628    3.4970    4.4376 C.2       1 RES1    0.0000
     11 C2         0.7640    2.4285    4.8695 C.2       1 RES1    0.0000
     12 C3         1.2577    2.2371    6.1765 C.2       1 RES1    0.0000
     13 N4         2.2147    3.0920    6.5309 N.2       1 RES1    0.0000
     14 N5         2.4097    3.8509    5.4640 N.pl3     1 RES1    0.0000
     15 C4         3.3036    4.9987    5.5958 C.3       1 RES1    0.0000
     16 H3         3.9213    5.0319    4.8229 H         1 RES1    0.0000
     17 H4         3.8446    4.9070    6.4196 H         1 RES1    0.0000
     18 C5         2.5064    6.2590    5.6545 C.2       1 RES1    0.0000
     19 N6         1.1884    6.3288    5.6956 N.2       1 RES1    0.0000
     20 N7         0.9013    7.6561    5.7307 N.2       1 RES1    0.0000
     21 N8         1.9763    8.3781    5.7053 N.2       1 RES1    0.0000
     22 N9         2.9919    7.5034    5.6527 N.pl3     1 RES1    0.0000
     23 H5         3.8451    7.7170    5.6212 H         1 RES1    0.0000
@<TRIPOS>BOND
     1    1    3 2
     2    2    3 2
     3    3   12 1
     4    4    5 1
     5    6    4 1
     6    7    9 2
     7    8    9 2
     8    9   10 1
     9   10   11 2
    10   11    4 1
    11   12   11 1
    12   13   12 2
    13   14   10 1
    14   15   14 1
    15   16   15 1
    16   17   15 1
    17   18   15 1
    18   19   18 2
    19   20   19 1
    20   21   20 2
    21   22   18 1
    22   23   22 1
    23   13   14 1
    24   21   22 1
@<TRIPOS>SUBSTRUCTURE
     1 RES1 1

@<TRIPOS>CRYSIN
   4.9204   30.4780    6.1535  90.0000 100.6120  90.0000 231 1

