# MOL2 file generated by ConQuest
# Please check atom types

@<TRIPOS>MOLECULE
KEDKAG01
    46    47     1
SMALL
NO_CHARGES
****
Generated from CSD

@<TRIPOS>ATOM
      1 O1         0.3076    3.4889    9.8018 O.2       1 RES1    0.0000
      2 N1         0.1726    4.4357   10.6871 N.pl3     1 RES1    0.0000
      3 N2        -2.5826    6.0148    9.2210 N.2       1 RES1    0.0000
      4 C1        -0.6870    5.4816   10.4650 C.ar      1 RES1    0.0000
      5 C2        -0.9027    6.4118   11.4746 C.ar      1 RES1    0.0000
      6 H1        -1.5133    7.1251   11.3287 H         1 RES1    0.0000
      7 C3        -0.2447    6.3183   12.6877 C.ar      1 RES1    0.0000
      8 H2        -0.4048    6.9483   13.3811 H         1 RES1    0.0000
      9 C4         0.6574    5.2766   12.8625 C.ar      1 RES1    0.0000
     10 H3         1.1368    5.2001   13.6796 H         1 RES1    0.0000
     11 C5         0.8621    4.3556   11.8655 C.ar      1 RES1    0.0000
     12 H4         1.4893    3.6541   11.9958 H         1 RES1    0.0000
     13 C6        -1.3792    5.5921    9.1464 C.2       1 RES1    0.0000
     14 C7        -0.6276    5.3283    7.8645 C.3       1 RES1    0.0000
     15 H5        -0.8810    4.4502    7.5113 H         1 RES1    0.0000
     16 H6         0.3357    5.3431    8.0425 H         1 RES1    0.0000
     17 H7        -0.8491    6.0213    7.2073 H         1 RES1    0.0000
     18 C8        -3.3713    6.2441    8.0563 C.ar      1 RES1    0.0000
     19 C9        -3.4297    7.5432    7.5037 C.ar      1 RES1    0.0000
     20 C10       -4.3353    7.7693    6.4679 C.ar      1 RES1    0.0000
     21 H8        -4.3965    8.6375    6.0859 H         1 RES1    0.0000
     22 C11       -5.1475    6.7574    5.9840 C.ar      1 RES1    0.0000
     23 H9        -5.7616    6.9342    5.2807 H         1 RES1    0.0000
     24 C12       -5.0635    5.4872    6.5280 C.ar      1 RES1    0.0000
     25 H10       -5.6199    4.7972    6.1861 H         1 RES1    0.0000
     26 C13       -4.1825    5.1978    7.5614 C.ar      1 RES1    0.0000
     27 C14       -2.5460    8.6512    8.0611 C.3       1 RES1    0.0000
     28 H11       -1.6637    8.2389    8.2897 H         1 RES1    0.0000
     29 C15       -3.1343    9.2149    9.3599 C.3       1 RES1    0.0000
     30 H12       -4.0143    9.6055    9.1772 H         1 RES1    0.0000
     31 H13       -2.5374    9.9060    9.7162 H         1 RES1    0.0000
     32 H14       -3.2271    8.4935   10.0169 H         1 RES1    0.0000
     33 C16       -2.2747    9.7872    7.0656 C.3       1 RES1    0.0000
     34 H15       -1.9694    9.4101    6.2139 H         1 RES1    0.0000
     35 H16       -1.5822   10.3797    7.4266 H         1 RES1    0.0000
     36 H17       -3.0981   10.2976    6.9200 H         1 RES1    0.0000
     37 C17       -4.1006    3.8065    8.1889 C.3       1 RES1    0.0000
     38 H18       -3.1335    3.5879    8.3198 H         1 RES1    0.0000
     39 C18       -4.7699    3.7960    9.5612 C.3       1 RES1    0.0000
     40 H19       -4.4097    4.5269   10.1060 H         1 RES1    0.0000
     41 H20       -4.5914    2.9398   10.0046 H         1 RES1    0.0000
     42 H21       -5.7365    3.9137    9.4545 H         1 RES1    0.0000
     43 C19       -4.7112    2.7094    7.3082 C.3       1 RES1    0.0000
     44 H22       -5.6782    2.8484    7.2373 H         1 RES1    0.0000
     45 H23       -4.5353    1.8332    7.7095 H         1 RES1    0.0000
     46 H24       -4.3095    2.7470    6.4144 H         1 RES1    0.0000
@<TRIPOS>BOND
     1    1    2 1
     2    2    4 ar
     3    3   13 2
     4    4    5 ar
     5    5    6 1
     6    7    5 ar
     7    8    7 1
     8    9    7 ar
     9   10    9 1
    10   11    2 ar
    11   12   11 1
    12   13    4 1
    13   14   13 1
    14   15   14 1
    15   16   14 1
    16   17   14 1
    17   18    3 1
    18   19   18 ar
    19   20   19 ar
    20   21   20 1
    21   22   20 ar
    22   23   22 1
    23   24   22 ar
    24   25   24 1
    25   26   18 ar
    26   27   19 1
    27   28   27 1
    28   29   27 1
    29   30   29 1
    30   31   29 1
    31   32   29 1
    32   33   27 1
    33   34   33 1
    34   35   33 1
    35   36   33 1
    36   37   26 1
    37   38   37 1
    38   39   37 1
    39   40   39 1
    40   41   39 1
    41   42   39 1
    42   43   37 1
    43   44   43 1
    44   45   43 1
    45   46   43 1
    46    9   11 ar
    47   24   26 ar
@<TRIPOS>SUBSTRUCTURE
     1 RES1 1

@<TRIPOS>CRYSIN
   8.5986    8.6704   11.4818  97.0060 101.1100  97.6480   2 1

