# MOL2 file generated by ConQuest
# Please check atom types

@<TRIPOS>MOLECULE
KEDKAI
    23    24     1
SMALL
USER_CHARGES
****
Generated from CSD

@<TRIPOS>ATOM
      1 O1        -5.6726    1.4964   11.2699 O.2       1 RES1    0.0000
      2 O2        -4.3394    1.1905    9.5816 O.2       1 RES1    0.0000
      3 N1        -4.6361    1.6924   10.6662 N.pl3     1 RES1    0.0000
      4 C1        -3.6815    2.5901   11.2534 C.2       1 RES1    0.0000
      5 C2        -3.9026    3.6327   12.1393 C.2       1 RES1    0.0000
      6 N2        -5.1567    4.0043   12.6376 N.2       1 RES1    0.0000
      7 N3        -5.1839    4.3258   13.8435 N.1       1 RES1    1.0000
      8 N4        -5.3842    4.6212   14.9075 N.2       1 RES1   -1.0000
      9 C3        -2.6173    4.1936   12.2548 C.2       1 RES1    0.0000
     10 N5        -2.2387    5.3935   12.9714 N.pl3     1 RES1    0.0000
     11 O3        -3.1681    6.0904   13.3777 O.2       1 RES1    0.0000
     12 O4        -1.0570    5.6472   13.1124 O.2       1 RES1    0.0000
     13 N6        -1.6898    3.5473   11.5568 N.2       1 RES1    0.0000
     14 N7        -2.3582    2.5730   10.9304 N.pl3     1 RES1    0.0000
     15 C4        -1.5960    1.6078   10.1400 C.3       1 RES1    0.0000
     16 H1        -2.0243    0.7175   10.2060 H         1 RES1    0.0000
     17 H2        -0.6793    1.5347   10.5054 H         1 RES1    0.0000
     18 C5        -1.5270    2.0195    8.7076 C.2       1 RES1    0.0000
     19 N8        -1.7901    3.2096    8.2116 N.2       1 RES1    0.0000
     20 N9        -1.4931    3.1269    6.8763 N.2       1 RES1    0.0000
     21 N10       -1.0747    1.9418    6.5773 N.2       1 RES1    0.0000
     22 N11       -1.0954    1.2334    7.7207 N.pl3     1 RES1    0.0000
     23 H3        -0.8616    0.3886    7.8036 H         1 RES1    0.0000
@<TRIPOS>BOND
     1    1    3 2
     2    2    3 2
     3    3    4 1
     4    4    5 2
     5    5    6 1
     6    6    7 2
     7    7    8 2
     8    9    5 1
     9   10    9 1
    10   11   10 2
    11   12   10 2
    12   13    9 2
    13   14    4 1
    14   15   14 1
    15   16   15 1
    16   17   15 1
    17   18   15 1
    18   19   18 2
    19   20   19 1
    20   21   20 2
    21   22   18 1
    22   23   22 1
    23   13   14 1
    24   21   22 1
@<TRIPOS>SUBSTRUCTURE
     1 RES1 1

@<TRIPOS>CRYSIN
   9.7742    9.3179   12.1140  90.0000 113.7710  90.0000 231 1

