# MOL2 file generated by ConQuest
# Please check atom types

@<TRIPOS>MOLECULE
KEDPOB
    49    52     1
SMALL
NO_CHARGES
****
Generated from CSD

@<TRIPOS>ATOM
      1 C1        -1.3487    6.0515   11.0143 C.ar      1 RES1    0.0000
      2 C2        -1.8686    6.0502    9.7427 C.ar      1 RES1    0.0000
      3 H1        -2.8083    6.0548    9.6023 H         1 RES1    0.0000
      4 C3        -0.9907    6.0418    8.6720 C.ar      1 RES1    0.0000
      5 H2        -1.3253    6.0412    7.7837 H         1 RES1    0.0000
      6 C4         0.3808    6.0334    8.8987 C.ar      1 RES1    0.0000
      7 C5         0.8729    6.0437   10.1968 C.ar      1 RES1    0.0000
      8 H3         1.8114    6.0437   10.3459 H         1 RES1    0.0000
      9 C6         0.0070    6.0535   11.2730 C.ar      1 RES1    0.0000
     10 H4         0.3354    6.0606   12.1645 H         1 RES1    0.0000
     11 C7         1.3883    5.9666    7.7964 C.2       1 RES1    0.0000
     12 C8         1.7646    5.6724    5.4843 C.3       1 RES1    0.0000
     13 H5         2.6073    6.2006    5.5852 H         1 RES1    0.0000
     14 C9         1.0453    6.0003    4.1871 C.3       1 RES1    0.0000
     15 H6         1.6903    6.1338    3.4473 H         1 RES1    0.0000
     16 H7         0.4949    6.8176    4.2838 H         1 RES1    0.0000
     17 C10        0.1699    4.7819    3.9322 C.3       1 RES1    0.0000
     18 H8        -0.6123    4.8460    4.5526 H         1 RES1    0.0000
     19 C11        1.0149    3.5912    4.3919 C.3       1 RES1    0.0000
     20 H9         0.4468    2.8835    4.8133 H         1 RES1    0.0000
     21 C12        2.0425    4.1655    5.4041 C.3       1 RES1    0.0000
     22 H10        1.9403    3.7345    6.3005 H         1 RES1    0.0000
     23 C13        3.4008    3.8187    4.7805 C.3       1 RES1    0.0000
     24 H11        3.7592    4.5712    4.2475 H         1 RES1    0.0000
     25 H12        4.0626    3.5588    5.4700 H         1 RES1    0.0000
     26 C14        3.0191    2.6489    3.9062 C.3       1 RES1    0.0000
     27 H13        2.8440    1.8543    4.4879 H         1 RES1    0.0000
     28 C15        4.1048    3.0559    1.7325 C.2       1 RES1    0.0000
     29 H14        3.6836    3.9069    1.7156 H         1 RES1    0.0000
     30 C16        4.8235    2.6780    0.6676 C.2       1 RES1    0.0000
     31 C17        4.9927    3.5251   -0.5575 C.3       1 RES1    0.0000
     32 H15        4.4453    3.1609   -1.2852 H         1 RES1    0.0000
     33 H16        5.9345    3.5258   -0.8265 H         1 RES1    0.0000
     34 H17        4.7083    4.4422   -0.3617 H         1 RES1    0.0000
     35 C18        5.4470    1.3734    0.6884 C.2       1 RES1    0.0000
     36 C19        4.6164    1.0720    2.9983 C.2       1 RES1    0.0000
     37 N1        -2.2720    6.0470   12.1609 N.pl3     1 RES1    0.0000
     38 N2         3.9458    2.2678    2.8548 N.am      1 RES1    0.0000
     39 N3         5.3538    0.6915    1.8956 N.am      1 RES1    0.0000
     40 H18        5.8101   -0.0577    1.9641 H         1 RES1    0.0000
     41 O1        -1.8019    6.0898   13.2807 O.2       1 RES1    0.0000
     42 O2        -3.4726    5.9925   11.9412 O.2       1 RES1    0.0000
     43 O3         2.5749    5.9180    7.9857 O.2       1 RES1    0.0000
     44 O4         0.8280    5.9290    6.5797 O.3       1 RES1    0.0000
     45 O5        -0.3486    4.6853    2.6107 O.3       1 RES1    0.0000
     46 H19        0.2647    4.4533    2.0853 H         1 RES1    0.0000
     47 O6         1.7925    3.0585    3.3002 O.3       1 RES1    0.0000
     48 O7         4.5585    0.3850    4.0009 O.2       1 RES1    0.0000
     49 O8         6.0193    0.8432   -0.2570 O.2       1 RES1    0.0000
@<TRIPOS>BOND
     1    1    2 ar
     2    2    3 1
     3    4    2 ar
     4    5    4 1
     5    6    4 ar
     6    7    6 ar
     7    8    7 1
     8    9    1 ar
     9   10    9 1
    10   11    6 1
    11   12   13 1
    12   14   12 1
    13   15   14 1
    14   16   14 1
    15   17   14 1
    16   18   17 1
    17   19   17 1
    18   20   19 1
    19   21   12 1
    20   22   21 1
    21   23   21 1
    22   24   23 1
    23   25   23 1
    24   26   23 1
    25   27   26 1
    26   28   29 1
    27   30   28 2
    28   31   30 1
    29   32   31 1
    30   33   31 1
    31   34   31 1
    32   35   30 1
    33   36   38 1
    34   37    1 1
    35   38   26 1
    36   39   35 1
    37   40   39 1
    38   41   37 2
    39   42   37 2
    40   43   11 2
    41   44   11 1
    42   45   17 1
    43   46   45 1
    44   47   19 1
    45   48   36 2
    46   49   35 2
    47    7    9 ar
    48   12   44 1
    49   19   21 1
    50   26   47 1
    51   28   38 1
    52   36   39 1
@<TRIPOS>SUBSTRUCTURE
     1 RES1 1

@<TRIPOS>CRYSIN
   7.0712    6.4812   20.4085  90.0000  98.0620  90.0000   4 1

