# MOL2 file generated by ConQuest
# Please check atom types

@<TRIPOS>MOLECULE
KEDWIZ
    38    38     1
SMALL
NO_CHARGES
****
Generated from CSD

@<TRIPOS>ATOM
      1 C1         6.5406   -1.0381    9.0009 C.2       1 RES1    0.0000
      2 C2         5.9919   -1.0813    7.8067 C.2       1 RES1    0.0000
      3 C3         5.9811   -2.3028    6.9073 C.3       1 RES1    0.0000
      4 C4         6.9861   -3.3409    7.4851 C.3       1 RES1    0.0000
      5 C5         6.8213   -3.4763    8.9925 C.3       1 RES1    0.0000
      6 C6         7.1508   -2.1789    9.7613 C.3       1 RES1    0.0000
      7 C7         6.3088   -1.8860    5.4635 C.3       1 RES1    0.0000
      8 C8         5.1825   -1.0583    4.8438 C.3       1 RES1    0.0000
      9 C9         7.6217   -1.1178    5.3815 C.3       1 RES1    0.0000
     10 C10        6.6420   -2.2798   11.1917 C.3       1 RES1    0.0000
     11 N1         6.5877    0.2612    9.6910 N.pl3     1 RES1    0.0000
     12 O1         5.7131    1.0813    9.4816 O.2       1 RES1    0.0000
     13 O2         7.5365    0.4331   10.4397 O.2       1 RES1    0.0000
     14 O3         4.7099   -2.9510    6.9827 O.3       1 RES1    0.0000
     15 N2         6.7144   -4.6786    6.8353 N.pl3     1 RES1    0.0000
     16 O4         6.0734   -5.5083    7.4667 O.2       1 RES1    0.0000
     17 O5         7.1364   -4.8457    5.7081 O.2       1 RES1    0.0000
     18 O6         7.7158   -4.5009    9.4464 O.3       1 RES1    0.0000
     19 N3         7.1183   -5.4631   10.3609 N.pl3     1 RES1    0.0000
     20 O7         7.9367   -6.2218   10.7596 O.2       1 RES1    0.0000
     21 O8         5.9521   -5.3844   10.5870 O.2       1 RES1    0.0000
     22 N4         8.6846   -2.0195    9.7596 N.pl3     1 RES1    0.0000
     23 O9         9.2079   -1.7161    8.6994 O.2       1 RES1    0.0000
     24 O10        9.2785   -2.2183   10.7998 O.2       1 RES1    0.0000
     25 H1         5.5682   -0.2833    7.4801 H         1 RES1    0.0000
     26 H2         7.8824   -3.0461    7.3042 H         1 RES1    0.0000
     27 H3         5.8996   -3.6856    9.1617 H         1 RES1    0.0000
     28 H4         6.4012   -2.6984    4.9594 H         1 RES1    0.0000
     29 H5         5.4125   -0.9632    3.8975 H         1 RES1    0.0000
     30 H6         5.0956   -0.1700    5.2508 H         1 RES1    0.0000
     31 H7         4.3332   -1.5403    4.9276 H         1 RES1    0.0000
     32 H8         7.7883   -0.9017    4.4418 H         1 RES1    0.0000
     33 H9         8.3641   -1.6527    5.7315 H         1 RES1    0.0000
     34 H10        7.5456   -0.2891    5.8990 H         1 RES1    0.0000
     35 H11        6.9173   -1.5038   11.7226 H         1 RES1    0.0000
     36 H12        6.9517   -3.1008   11.6288 H         1 RES1    0.0000
     37 H13        5.6660   -2.2961   11.1180 H         1 RES1    0.0000
     38 H14        4.0852   -2.2058    7.1066 H         1 RES1    0.0000
@<TRIPOS>BOND
     1    1    2 2
     2    2    3 1
     3    3    4 1
     4    4    5 1
     5    5    6 1
     6    6    1 1
     7    7    3 1
     8    8    7 1
     9    9    7 1
    10   10    6 1
    11   11    1 1
    12   12   11 2
    13   13   11 2
    14   14    3 1
    15   15    4 1
    16   16   15 2
    17   17   15 2
    18   18    5 1
    19   19   18 1
    20   20   19 2
    21   21   19 2
    22   22    6 1
    23   23   22 2
    24   24   22 2
    25   25    2 1
    26   26    4 1
    27   27    5 1
    28   28    7 1
    29   29    8 1
    30   30    8 1
    31   31    8 1
    32   32    9 1
    33   33    9 1
    34   34    9 1
    35   35   10 1
    36   36   10 1
    37   37   10 1
    38   38   14 1
@<TRIPOS>SUBSTRUCTURE
     1 RES1 1

@<TRIPOS>CRYSIN
  18.1080    9.6030   16.7490  90.0000  90.0000  90.0000  60 1

