# MOL2 file generated by ConQuest
# Please check atom types

@<TRIPOS>MOLECULE
KEDWAR
    39    39     1
SMALL
NO_CHARGES
****
Generated from CSD

@<TRIPOS>ATOM
      1 C1         5.3618    5.3662    4.3434 C.2       1 RES1    0.0000
      2 C2         4.7084    4.3230    4.8043 C.2       1 RES1    0.0000
      3 C3         3.8379    3.4387    3.9572 C.3       1 RES1    0.0000
      4 C4         4.1429    3.7307    2.4757 C.3       1 RES1    0.0000
      5 C5         4.1799    5.2232    2.1986 C.3       1 RES1    0.0000
      6 C6         5.3733    5.8629    2.9262 C.3       1 RES1    0.0000
      7 C7         3.9471    1.9497    4.3552 C.3       1 RES1    0.0000
      8 C8         3.5359    1.7384    5.8143 C.3       1 RES1    0.0000
      9 C9         5.3435    1.4064    4.1109 C.3       1 RES1    0.0000
     10 C10        6.6859    5.6509    2.2025 C.3       1 RES1    0.0000
     11 N1         6.1975    6.1208    5.2969 N.pl3     1 RES1    0.0000
     12 O1         6.1114    5.8571    6.4802 O.2       1 RES1    0.0000
     13 O2         6.9286    6.9836    4.8385 O.2       1 RES1    0.0000
     14 N2         2.3739    3.8760    4.2225 N.pl3     1 RES1    0.0000
     15 O3         2.1889    4.9410    4.7833 O.2       1 RES1    0.0000
     16 O4         1.4973    3.1274    3.8521 O.2       1 RES1    0.0000
     17 N3         3.1648    3.0693    1.5485 N.pl3     1 RES1    0.0000
     18 O5         2.1731    3.7075    1.2359 O.2       1 RES1    0.0000
     19 O6         3.4378    1.9515    1.1637 O.2       1 RES1    0.0000
     20 O7         4.3307    5.3923    0.7907 O.3       1 RES1    0.0000
     21 N4         3.4599    6.4120    0.1957 N.pl3     1 RES1    0.0000
     22 O8         2.7417    7.0155    0.9233 O.2       1 RES1    0.0000
     23 O9         3.6256    6.4612   -0.9772 O.2       1 RES1    0.0000
     24 N5         5.0299    7.3674    2.9774 N.pl3     1 RES1    0.0000
     25 O10        5.4787    8.0753    2.1145 O.2       1 RES1    0.0000
     26 O11        4.2822    7.7261    3.8561 O.2       1 RES1    0.0000
     27 H1         4.7932    4.1144    5.7369 H         1 RES1    0.0000
     28 H2         5.0123    3.3606    2.3063 H         1 RES1    0.0000
     29 H3         3.3752    5.6433    2.5099 H         1 RES1    0.0000
     30 H4         3.3400    1.4600    3.7957 H         1 RES1    0.0000
     31 H5         3.4573    0.7772    5.9877 H         1 RES1    0.0000
     32 H6         2.6795    2.1753    6.0035 H         1 RES1    0.0000
     33 H7         4.2304    2.1194    6.3909 H         1 RES1    0.0000
     34 H8         5.3840    0.4918    4.4602 H         1 RES1    0.0000
     35 H9         6.0162    1.9583    4.5627 H         1 RES1    0.0000
     36 H10        5.5212    1.3968    3.1482 H         1 RES1    0.0000
     37 H11        6.8490    4.6889    2.1198 H         1 RES1    0.0000
     38 H12        7.4202    6.0652    2.7029 H         1 RES1    0.0000
     39 H13        6.6325    6.0512    1.3094 H         1 RES1    0.0000
@<TRIPOS>BOND
     1    1    2 2
     2    2    3 1
     3    3    4 1
     4    4    5 1
     5    5    6 1
     6    6    1 1
     7    7    3 1
     8    8    7 1
     9    9    7 1
    10   10    6 1
    11   11    1 1
    12   12   11 2
    13   13   11 2
    14   14    3 1
    15   15   14 2
    16   16   14 2
    17   17    4 1
    18   18   17 2
    19   19   17 2
    20   20    5 1
    21   21   20 1
    22   22   21 2
    23   23   21 2
    24   24    6 1
    25   25   24 2
    26   26   24 2
    27   27    2 1
    28   28    4 1
    29   29    5 1
    30   30    7 1
    31   31    8 1
    32   32    8 1
    33   33    8 1
    34   34    9 1
    35   35    9 1
    36   36    9 1
    37   37   10 1
    38   38   10 1
    39   39   10 1
@<TRIPOS>SUBSTRUCTURE
     1 RES1 1

@<TRIPOS>CRYSIN
   6.9460    9.0940   13.4930  82.6200  77.0500  68.0200   2 1

