# MOL2 file generated by ConQuest
# Please check atom types

@<TRIPOS>MOLECULE
KEDXAS
    41    41     1
SMALL
NO_CHARGES
****
Generated from CSD

@<TRIPOS>ATOM
      1 C1        -2.0349    7.3116    8.1234 C.2       1 RES1    0.0000
      2 C2        -0.9446    6.9374    7.4881 C.2       1 RES1    0.0000
      3 C3         0.0367    5.9147    7.9931 C.3       1 RES1    0.0000
      4 C4        -0.6860    5.0890    9.0893 C.3       1 RES1    0.0000
      5 C5        -1.3777    5.9676   10.1121 C.3       1 RES1    0.0000
      6 C6        -2.4855    6.8644    9.4849 C.3       1 RES1    0.0000
      7 C7         0.5557    5.0224    6.8446 C.3       1 RES1    0.0000
      8 C8        -0.5673    4.2971    6.1138 C.3       1 RES1    0.0000
      9 C9         1.4228    5.8052    5.8625 C.3       1 RES1    0.0000
     10 C10       -1.8707    5.4175   12.4033 C.2       1 RES1    0.0000
     11 C11       -2.6327    4.4572   13.2493 C.3       1 RES1    0.0000
     12 C12       -2.8248    8.0182   10.4193 C.3       1 RES1    0.0000
     13 N1        -2.9281    8.2755    7.4439 N.pl3     1 RES1    0.0000
     14 O1        -2.4696    8.9933    6.5688 O.2       1 RES1    0.0000
     15 O2        -4.1104    8.2509    7.7685 O.2       1 RES1    0.0000
     16 O3         1.1765    6.5799    8.5133 O.3       1 RES1    0.0000
     17 N2         0.2986    4.2024    9.8003 N.pl3     1 RES1    0.0000
     18 O4         0.9188    4.6613   10.7475 O.2       1 RES1    0.0000
     19 O5         0.4362    3.0661    9.3616 O.2       1 RES1    0.0000
     20 O6        -1.9911    5.0992   11.0826 O.3       1 RES1    0.0000
     21 O7        -1.2275    6.3588   12.7827 O.2       1 RES1    0.0000
     22 N3        -3.7194    5.9396    9.3045 N.pl3     1 RES1    0.0000
     23 O8        -4.6081    6.0130   10.1226 O.2       1 RES1    0.0000
     24 O9        -3.6928    5.1487    8.3771 O.2       1 RES1    0.0000
     25 H1        -0.7613    7.3478    6.6398 H         1 RES1    0.0000
     26 H2        -1.3554    4.5633    8.6447 H         1 RES1    0.0000
     27 H3        -0.7218    6.5517   10.5008 H         1 RES1    0.0000
     28 H4         1.1051    4.3522    7.2588 H         1 RES1    0.0000
     29 H5        -1.0958    3.7341    6.7166 H         1 RES1    0.0000
     30 H6        -0.1500    3.7380    5.4249 H         1 RES1    0.0000
     31 H7        -1.1528    4.9574    5.6868 H         1 RES1    0.0000
     32 H8         2.1316    6.2832    6.3431 H         1 RES1    0.0000
     33 H9         0.8749    6.4482    5.3656 H         1 RES1    0.0000
     34 H10        1.8253    5.1672    5.2376 H         1 RES1    0.0000
     35 H11       -2.6243    4.7435   14.1872 H         1 RES1    0.0000
     36 H12       -2.1545    3.6064   13.1632 H         1 RES1    0.0000
     37 H13       -3.5589    4.3435   12.9514 H         1 RES1    0.0000
     38 H14       -3.5968    8.5034   10.0621 H         1 RES1    0.0000
     39 H15       -2.0484    8.6158   10.4484 H         1 RES1    0.0000
     40 H16       -3.0277    7.7022   11.3246 H         1 RES1    0.0000
     41 H17        1.0002    6.8556    9.4372 H         1 RES1    0.0000
@<TRIPOS>BOND
     1    1    2 2
     2    2    3 1
     3    3    4 1
     4    4    5 1
     5    5    6 1
     6    6    1 1
     7    7    3 1
     8    8    7 1
     9    9    7 1
    10   10   11 1
    11   11   35 1
    12   12    6 1
    13   13    1 1
    14   14   13 2
    15   15   13 2
    16   16    3 1
    17   17    4 1
    18   18   17 2
    19   19   17 2
    20   20    5 1
    21   21   10 2
    22   22    6 1
    23   23   22 2
    24   24   22 2
    25   25    2 1
    26   26    4 1
    27   27    5 1
    28   28    7 1
    29   29    8 1
    30   30    8 1
    31   31    8 1
    32   32    9 1
    33   33    9 1
    34   34    9 1
    35   36   11 1
    36   37   11 1
    37   38   12 1
    38   39   12 1
    39   40   12 1
    40   41   16 1
    41   10   20 1
@<TRIPOS>SUBSTRUCTURE
     1 RES1 1

@<TRIPOS>CRYSIN
   8.4220    8.2010   12.0120  90.1400 104.0700 100.9300   2 1

