# MOL2 file generated by ConQuest
# Please check atom types

@<TRIPOS>MOLECULE
KEDXUP
    38    41     1
SMALL
NO_CHARGES
****
Generated from CSD

@<TRIPOS>ATOM
      1 O1         6.2516    0.9281   12.8349 O.3       1 RES1    0.0000
      2 O2        10.0756    2.0292   13.9089 O.3       1 RES1    0.0000
      3 C1         8.5601    1.1167   12.2517 C.2       1 RES1    0.0000
      4 O3        10.8796    1.3937   11.9634 O.2       1 RES1    0.0000
      5 C2         7.7373    1.7582   14.4632 C.ar      1 RES1    0.0000
      6 C3         7.5385    1.2466   13.1268 C.2       1 RES1    0.0000
      7 C4         6.0099    0.2888   11.6116 C.2       1 RES1    0.0000
      8 C5         8.5603    1.6164    9.7428 C.ar      1 RES1    0.0000
      9 C6         9.8939    1.4939   12.6479 C.2       1 RES1    0.0000
     10 C7         8.3686    0.5866   10.8526 C.3       1 RES1    0.0000
     11 H1         8.9967   -0.1522   10.7064 H         1 RES1    0.0000
     12 C8         6.9582    0.0542   10.7386 C.2       1 RES1    0.0000
     13 H2         6.7510   -0.4730   10.0009 H         1 RES1    0.0000
     14 C9         6.7241    1.8867   15.4244 C.ar      1 RES1    0.0000
     15 H3         5.8585    1.6097   15.2279 H         1 RES1    0.0000
     16 C10        9.3071    2.7131   16.0298 C.ar      1 RES1    0.0000
     17 H4        10.1679    2.9989   16.2344 H         1 RES1    0.0000
     18 C11        7.0076    2.4213   16.6580 C.ar      1 RES1    0.0000
     19 H5         6.3358    2.5014   17.2956 H         1 RES1    0.0000
     20 C12        8.6603    3.4288    7.6681 C.ar      1 RES1    0.0000
     21 C13        9.0247    2.1540   14.7931 C.ar      1 RES1    0.0000
     22 C14        8.4601    2.9766    9.9793 C.ar      1 RES1    0.0000
     23 H6         8.3484    3.2811   10.8523 H         1 RES1    0.0000
     24 C15        8.7346    1.1754    8.4347 C.ar      1 RES1    0.0000
     25 H7         8.8298    0.2666    8.2616 H         1 RES1    0.0000
     26 C16        8.2918    2.8400   16.9526 C.ar      1 RES1    0.0000
     27 H8         8.4739    3.2120   17.7852 H         1 RES1    0.0000
     28 C17        4.5719   -0.0535   11.4930 C.3       1 RES1    0.0000
     29 H9         4.2970   -0.5517   12.2663 H         1 RES1    0.0000
     30 H10        4.4335   -0.5843   10.7064 H         1 RES1    0.0000
     31 H11        4.0542    0.7529   11.4301 H         1 RES1    0.0000
     32 N1         8.6739    4.4000    6.5479 N.pl3     1 RES1    0.0000
     33 C18        8.5222    3.8892    8.9443 C.ar      1 RES1    0.0000
     34 H12        8.4711    4.8017    9.1130 H         1 RES1    0.0000
     35 C19        8.7677    2.0909    7.3823 C.ar      1 RES1    0.0000
     36 H13        8.8601    1.8005    6.5041 H         1 RES1    0.0000
     37 O4         8.7636    3.9478    5.4204 O.2       1 RES1    0.0000
     38 O5         8.5539    5.5835    6.8337 O.2       1 RES1    0.0000
@<TRIPOS>BOND
     1    1    6 1
     2    2    9 1
     3    3    6 2
     4    4    9 2
     5    5    6 1
     6    7    1 1
     7    8   10 1
     8    9    3 1
     9   10    3 1
    10   11   10 1
    11   12    7 2
    12   13   12 1
    13   14    5 ar
    14   15   14 1
    15   16   17 1
    16   18   14 ar
    17   19   18 1
    18   20   32 1
    19   21    2 1
    20   22    8 ar
    21   23   22 1
    22   24    8 ar
    23   25   24 1
    24   26   16 ar
    25   27   26 1
    26   28    7 1
    27   29   28 1
    28   30   28 1
    29   31   28 1
    30   32   37 2
    31   33   20 ar
    32   34   33 1
    33   35   20 ar
    34   36   35 1
    35   38   32 2
    36    5   21 ar
    37   10   12 1
    38   16   21 ar
    39   18   26 ar
    40   22   33 ar
    41   24   35 ar
@<TRIPOS>SUBSTRUCTURE
     1 RES1 1

@<TRIPOS>CRYSIN
  13.7944    7.4249   30.4072  90.0000  90.0000  90.0000  60 1

