# MOL2 file generated by ConQuest
# Please check atom types

@<TRIPOS>MOLECULE
KEDYIE
    82    86     1
SMALL
NO_CHARGES
****
Generated from CSD

@<TRIPOS>ATOM
      1 C1         4.9574    1.5857   20.3830 C.2       1 RES1    0.0000
      2 C2         4.1519    2.7435   18.3547 C.2       1 RES1    0.0000
      3 C3         4.9132    1.7991   17.5184 C.ar      1 RES1    0.0000
      4 C4         4.9152    1.9763   16.1580 C.ar      1 RES1    0.0000
      5 H1         4.4397    2.6817   15.7818 H         1 RES1    0.0000
      6 C5         5.6229    1.1107   15.3466 C.ar      1 RES1    0.0000
      7 H2         5.6363    1.2458   14.4258 H         1 RES1    0.0000
      8 C6         6.3020    0.0573   15.8890 C.ar      1 RES1    0.0000
      9 H3         6.7648   -0.5198   15.3251 H         1 RES1    0.0000
     10 C7         6.3237   -0.1817   17.2743 C.ar      1 RES1    0.0000
     11 C8         5.6318    0.7436   18.1045 C.ar      1 RES1    0.0000
     12 C9         5.6849    0.6429   19.5150 C.ar      1 RES1    0.0000
     13 C10        6.4597   -0.3124   20.0897 C.ar      1 RES1    0.0000
     14 H4         6.5291   -0.3481   21.0157 H         1 RES1    0.0000
     15 C11        7.1536   -1.2411   19.3163 C.ar      1 RES1    0.0000
     16 C12        7.0552   -1.2800   17.8976 C.ar      1 RES1    0.0000
     17 C13        7.6364   -2.5866   15.7942 C.ar      1 RES1    0.0000
     18 C14        6.5264   -3.1798   15.1967 C.ar      1 RES1    0.0000
     19 C15        6.5948   -3.4408   13.8317 C.ar      1 RES1    0.0000
     20 H5         5.8599   -3.8118   13.4002 H         1 RES1    0.0000
     21 C16        7.7254   -3.1615   13.1136 C.ar      1 RES1    0.0000
     22 H6         7.7462   -3.3252   12.1984 H         1 RES1    0.0000
     23 C17        8.8329   -2.6371   13.7419 C.ar      1 RES1    0.0000
     24 H7         9.6054   -2.4779   13.2480 H         1 RES1    0.0000
     25 C18        8.8195   -2.3430   15.0952 C.ar      1 RES1    0.0000
     26 C19        5.2706   -3.5657   15.9539 C.3       1 RES1    0.0000
     27 H8         5.3784   -3.2851   16.8875 H         1 RES1    0.0000
     28 C20        4.0504   -2.8557   15.3832 C.3       1 RES1    0.0000
     29 H9         3.9361   -3.1042   14.4638 H         1 RES1    0.0000
     30 H10        4.1756   -1.9053   15.4453 H         1 RES1    0.0000
     31 H11        3.2702   -3.1088   15.8840 H         1 RES1    0.0000
     32 C21        5.0980   -5.0805   15.9300 C.3       1 RES1    0.0000
     33 H12        5.8887   -5.4996   16.2786 H         1 RES1    0.0000
     34 H13        4.9513   -5.3725   15.0287 H         1 RES1    0.0000
     35 H14        4.3423   -5.3244   16.4729 H         1 RES1    0.0000
     36 C22       10.0452   -1.7634   15.7714 C.3       1 RES1    0.0000
     37 H15        9.9828   -2.0027   16.7192 H         1 RES1    0.0000
     38 C23       11.3447   -2.3496   15.2590 C.3       1 RES1    0.0000
     39 H16       11.4815   -2.0771   14.3476 H         1 RES1    0.0000
     40 H17       11.3027   -3.3080   15.3031 H         1 RES1    0.0000
     41 H18       12.0719   -2.0347   15.7998 H         1 RES1    0.0000
     42 C24       10.0372   -0.2691   15.7037 C.3       1 RES1    0.0000
     43 H19        9.2028    0.0618   16.0462 H         1 RES1    0.0000
     44 H20       10.1437    0.0115   14.7923 H         1 RES1    0.0000
     45 H21       10.7593    0.0790   16.2325 H         1 RES1    0.0000
     46 C25        3.4853    3.5347   20.5530 C.ar      1 RES1    0.0000
     47 C26        4.1005    4.7359   20.8745 C.ar      1 RES1    0.0000
     48 C27        3.3292    5.6771   21.5583 C.ar      1 RES1    0.0000
     49 H22        3.7104    6.4924   21.7909 H         1 RES1    0.0000
     50 C28        2.0320    5.4321   21.8918 C.ar      1 RES1    0.0000
     51 H23        1.5299    6.0882   22.3197 H         1 RES1    0.0000
     52 C29        1.4702    4.2229   21.5984 C.ar      1 RES1    0.0000
     53 H24        0.5887    4.0603   21.8490 H         1 RES1    0.0000
     54 C30        2.1787    3.2279   20.9368 C.ar      1 RES1    0.0000
     55 C31        5.5394    5.0496   20.5202 C.3       1 RES1    0.0000
     56 H25        5.9003    4.3008   20.0022 H         1 RES1    0.0000
     57 C32        5.6437    6.3126   19.6737 C.3       1 RES1    0.0000
     58 H26        5.3158    7.0615   20.1764 H         1 RES1    0.0000
     59 H27        5.1197    6.2073   18.8765 H         1 RES1    0.0000
     60 H28        6.5613    6.4626   19.4373 H         1 RES1    0.0000
     61 C33        6.3682    5.2008   21.7849 C.3       1 RES1    0.0000
     62 H29        6.3625    4.3741   22.2716 H         1 RES1    0.0000
     63 H30        5.9955    5.8970   22.3317 H         1 RES1    0.0000
     64 H31        7.2716    5.4263   21.5505 H         1 RES1    0.0000
     65 C34        1.5481    1.8847   20.6706 C.3       1 RES1    0.0000
     66 H32        2.1701    1.3729   20.1123 H         1 RES1    0.0000
     67 C35        0.2543    2.0015   19.9161 C.3       1 RES1    0.0000
     68 H33        0.4185    2.3977   19.0568 H         1 RES1    0.0000
     69 H34       -0.3564    2.5523   20.4108 H         1 RES1    0.0000
     70 H35       -0.1271    1.1279   19.7979 H         1 RES1    0.0000
     71 C36        1.3682    1.1198   21.9812 C.3       1 RES1    0.0000
     72 H36        0.7095    1.5630   22.5220 H         1 RES1    0.0000
     73 H37        2.2030    1.0924   22.4539 H         1 RES1    0.0000
     74 H38        1.0771    0.2256   21.7929 H         1 RES1    0.0000
     75 N1         4.2228    2.5769   19.7422 N.am      1 RES1    0.0000
     76 N2         7.9694   -2.1606   20.0591 N.pl3     1 RES1    0.0000
     77 N3         7.6220   -2.2823   17.2072 N.pl3     1 RES1    0.0000
     78 H39        8.0541   -2.8443   17.6927 H         1 RES1    0.0000
     79 O1         4.9593    1.5144   21.5870 O.2       1 RES1    0.0000
     80 O2         3.4827    3.6312   17.8774 O.2       1 RES1    0.0000
     81 O3         8.0635   -2.0260   21.2719 O.2       1 RES1    0.0000
     82 O4         8.6039   -3.0424   19.4766 O.2       1 RES1    0.0000
@<TRIPOS>BOND
     1    1   12 1
     2    2    3 1
     3    3    4 ar
     4    4    5 1
     5    6    4 ar
     6    7    6 1
     7    8    6 ar
     8    9    8 1
     9   10    8 ar
    10   11    3 ar
    11   12   11 ar
    12   13   12 ar
    13   14   13 1
    14   15   13 ar
    15   16   10 ar
    16   17   18 ar
    17   18   19 ar
    18   19   20 1
    19   21   19 ar
    20   22   21 1
    21   23   21 ar
    22   24   23 1
    23   25   17 ar
    24   26   18 1
    25   27   26 1
    26   28   26 1
    27   29   28 1
    28   30   28 1
    29   31   28 1
    30   32   26 1
    31   33   32 1
    32   34   32 1
    33   35   32 1
    34   36   25 1
    35   37   36 1
    36   38   36 1
    37   39   38 1
    38   40   38 1
    39   41   38 1
    40   42   36 1
    41   43   42 1
    42   44   42 1
    43   45   42 1
    44   46   47 ar
    45   47   48 ar
    46   48   49 1
    47   50   48 ar
    48   51   50 1
    49   52   50 ar
    50   53   52 1
    51   54   46 ar
    52   55   47 1
    53   56   55 1
    54   57   55 1
    55   58   57 1
    56   59   57 1
    57   60   57 1
    58   61   55 1
    59   62   61 1
    60   63   61 1
    61   64   61 1
    62   65   54 1
    63   66   65 1
    64   67   65 1
    65   68   67 1
    66   69   67 1
    67   70   67 1
    68   71   65 1
    69   72   71 1
    70   73   71 1
    71   74   71 1
    72   75    1 1
    73   76   15 1
    74   77   16 1
    75   78   77 1
    76   79    1 2
    77   80    2 2
    78   81   76 2
    79   82   76 2
    80    2   75 1
    81   10   11 ar
    82   15   16 ar
    83   17   77 1
    84   23   25 ar
    85   46   75 1
    86   52   54 ar
@<TRIPOS>SUBSTRUCTURE
     1 RES1 1

@<TRIPOS>CRYSIN
  13.7628   11.4504   20.7285  90.0000 104.9140  90.0000  14 1

