# MOL2 file generated by ConQuest
# Please check atom types

@<TRIPOS>MOLECULE
KEFGIN
    76    79     1
SMALL
NO_CHARGES
****
Generated from CSD

@<TRIPOS>ATOM
      1 N1         0.2325    1.2912   17.6208 N.3       1 RES1    0.0000
      2 N2         0.3695    0.2138   16.7483 N.2       1 RES1    0.0000
      3 C1        -0.2464    0.6101   15.6579 C.2       1 RES1    0.0000
      4 C2        -0.8198    1.9048   15.7915 C.2       1 RES1    0.0000
      5 C3        -0.4554    2.3115   17.0859 C.2       1 RES1    0.0000
      6 N3        -0.3113   -0.1372   14.4818 N.am      1 RES1    0.0000
      7 H1        -0.9792    0.0330   13.9358 H         1 RES1    0.0000
      8 N4        -0.7339    3.4804   17.7252 N.3       1 RES1    0.0000
      9 N5        -1.6038    2.6515   14.9503 N.2       1 RES1    0.0000
     10 N6        -1.9291    2.0556   13.8693 N.2       1 RES1    0.0000
     11 C4        -2.7270    2.8349   12.9944 C.ar      1 RES1    0.0000
     12 C5        -3.0082    2.2645   11.7588 C.ar      1 RES1    0.0000
     13 H2        -2.6843    1.3943   11.5557 H         1 RES1    0.0000
     14 C6        -3.7537    2.9522   10.8219 C.ar      1 RES1    0.0000
     15 H3        -3.9428    2.5625    9.9762 H         1 RES1    0.0000
     16 C7        -4.2152    4.2084   11.1308 C.ar      1 RES1    0.0000
     17 C8        -3.9544    4.7959   12.3537 C.ar      1 RES1    0.0000
     18 H4        -4.2791    5.6668   12.5468 H         1 RES1    0.0000
     19 C9        -3.2182    4.1076   13.2908 C.ar      1 RES1    0.0000
     20 H5        -3.0419    4.4985   14.1384 H         1 RES1    0.0000
     21 O1        -5.0855    4.8619   10.2379 O.3       1 RES1    0.0000
     22 C10        0.8847    1.1878   18.9256 C.3       1 RES1    0.0000
     23 H6         0.9011    2.0825   19.3496 H         1 RES1    0.0000
     24 H7         1.8254    0.9008   18.7925 H         1 RES1    0.0000
     25 C11        0.2052    0.2211   19.8516 C.ar      1 RES1    0.0000
     26 C12       -1.0977    0.4525   20.2939 C.ar      1 RES1    0.0000
     27 C13       -1.7032   -0.3884   21.2078 C.ar      1 RES1    0.0000
     28 H8        -2.5951   -0.2272   21.4933 H         1 RES1    0.0000
     29 C14       -0.9927   -1.4706   21.7039 C.ar      1 RES1    0.0000
     30 C15        0.2865   -1.7491   21.2727 C.ar      1 RES1    0.0000
     31 H9         0.7590   -2.5070   21.5970 H         1 RES1    0.0000
     32 C16        0.8684   -0.8874   20.3472 C.ar      1 RES1    0.0000
     33 H10        1.7490   -1.0669   20.0465 H         1 RES1    0.0000
     34 O2        -1.6860    1.5781   19.7778 O.3       1 RES1    0.0000
     35 C17       -3.0072    1.8999   20.2047 C.3       1 RES1    0.0000
     36 H11       -3.3052    2.7195   19.7571 H         1 RES1    0.0000
     37 H12       -3.0144    2.0379   21.1750 H         1 RES1    0.0000
     38 H13       -3.6135    1.1646   19.9765 H         1 RES1    0.0000
     39 O3        -1.6700   -2.2119   22.6448 O.3       1 RES1    0.0000
     40 C18       -0.9533   -3.2655   23.2694 C.3       1 RES1    0.0000
     41 H14       -1.5192   -3.6869   23.9506 H         1 RES1    0.0000
     42 H15       -0.1472   -2.9051   23.6926 H         1 RES1    0.0000
     43 H16       -0.7001   -3.9311   22.5978 H         1 RES1    0.0000
     44 C19       -4.5333    5.5245    9.1947 C.2       1 RES1    0.0000
     45 O4        -3.3699    5.6546    9.0239 O.2       1 RES1    0.0000
     46 O5        -5.5502    5.9581    8.4705 O.3       1 RES1    0.0000
     47 C20       -5.3247    6.5493    7.1194 C.3       1 RES1    0.0000
     48 C21       -4.6707    5.5214    6.2479 C.3       1 RES1    0.0000
     49 H17       -3.7784    5.3150    6.5978 H         1 RES1    0.0000
     50 H18       -4.5897    5.8695    5.3366 H         1 RES1    0.0000
     51 H19       -5.2143    4.7061    6.2384 H         1 RES1    0.0000
     52 C22       -6.7459    6.8265    6.6621 C.3       1 RES1    0.0000
     53 H20       -7.2697    5.9978    6.6966 H         1 RES1    0.0000
     54 H21       -6.7346    7.1667    5.7441 H         1 RES1    0.0000
     55 H22       -7.1542    7.4946    7.2513 H         1 RES1    0.0000
     56 C23       -4.5142    7.8110    7.2385 C.3       1 RES1    0.0000
     57 H23       -3.6199    7.5936    7.5720 H         1 RES1    0.0000
     58 H24       -4.9537    8.4254    7.8614 H         1 RES1    0.0000
     59 H25       -4.4404    8.2366    6.3590 H         1 RES1    0.0000
     60 C24        0.5648   -1.1029   14.1042 C.2       1 RES1    0.0000
     61 O6         1.4927   -1.4675   14.7972 O.2       1 RES1    0.0000
     62 C25        0.3319   -1.7204   12.7542 C.ar      1 RES1    0.0000
     63 C26        0.8819   -2.9852   12.5492 C.ar      1 RES1    0.0000
     64 H26        1.4042   -3.3888   13.2317 H         1 RES1    0.0000
     65 C27        0.6749   -3.6527   11.3647 C.ar      1 RES1    0.0000
     66 H27        1.0406   -4.5199   11.2253 H         1 RES1    0.0000
     67 C28       -0.0718   -3.0365   10.3816 C.ar      1 RES1    0.0000
     68 C29       -0.6026   -1.7680   10.5337 C.ar      1 RES1    0.0000
     69 H28       -1.0906   -1.3539    9.8315 H         1 RES1    0.0000
     70 C30       -0.3994   -1.1225   11.7361 C.ar      1 RES1    0.0000
     71 H29       -0.7648   -0.2565   11.8692 H         1 RES1    0.0000
     72 N7        -0.3168   -3.7632    9.1271 N.pl3     1 RES1    0.0000
     73 O7        -0.9118   -3.1830    8.2351 O.2       1 RES1    0.0000
     74 O8         0.1008   -4.9132    9.0333 O.2       1 RES1    0.0000
     75 H30       -0.4818    3.5604   18.5248 H         1 RES1    0.0000
     76 H31       -0.6887    4.2200   17.2612 H         1 RES1    0.0000
@<TRIPOS>BOND
     1    1    2 1
     2    2    3 2
     3    3    4 1
     4    4    5 2
     5    5    1 1
     6    6    3 1
     7    7    6 1
     8    8    5 1
     9    9    4 1
    10   10    9 2
    11   11   10 1
    12   12   11 ar
    13   13   12 1
    14   14   12 ar
    15   15   14 1
    16   16   14 ar
    17   17   16 ar
    18   18   17 1
    19   19   11 ar
    20   20   19 1
    21   21   16 1
    22   22    1 1
    23   23   22 1
    24   24   22 1
    25   25   22 1
    26   26   25 ar
    27   27   26 ar
    28   28   27 1
    29   29   27 ar
    30   30   29 ar
    31   31   30 1
    32   32   25 ar
    33   33   32 1
    34   34   26 1
    35   35   34 1
    36   36   35 1
    37   37   35 1
    38   38   35 1
    39   39   29 1
    40   40   39 1
    41   41   40 1
    42   42   40 1
    43   43   40 1
    44   44   21 1
    45   45   44 2
    46   46   44 1
    47   47   46 1
    48   48   47 1
    49   49   48 1
    50   50   48 1
    51   51   48 1
    52   52   47 1
    53   53   52 1
    54   54   52 1
    55   55   52 1
    56   56   47 1
    57   57   56 1
    58   58   56 1
    59   59   56 1
    60   60    6 1
    61   61   60 2
    62   62   60 1
    63   63   62 ar
    64   64   63 1
    65   65   63 ar
    66   66   65 1
    67   67   65 ar
    68   68   67 ar
    69   69   68 1
    70   70   62 ar
    71   71   70 1
    72   72   67 1
    73   73   72 2
    74   74   72 2
    75   75    8 1
    76   76    8 1
    77   17   19 ar
    78   30   32 ar
    79   68   70 ar
@<TRIPOS>SUBSTRUCTURE
     1 RES1 1

@<TRIPOS>CRYSIN
  39.9506    6.1071   26.3464  90.0000 113.7530  90.0000  15 1

