# MOL2 file generated by ConQuest
# Please check atom types

@<TRIPOS>MOLECULE
KEFJOX
    30    30     1
SMALL
NO_CHARGES
****
Generated from CSD

@<TRIPOS>ATOM
      1 O1        -2.5651    4.2609    3.1848 O.2       1 RES1    0.0000
      2 O2        -0.0846    4.8706   -1.6181 O.3       1 RES1    0.0000
      3 H1         0.3286    4.5886   -2.4031 H         1 RES1    0.0000
      4 N1        -1.4739    4.2601    2.5177 N.3       1 RES1    0.0000
      5 C1        -1.4738    4.2944    1.0291 C.3       1 RES1    0.0000
      6 C2         0.0262    4.5587    0.7579 C.3       1 RES1    0.0000
      7 H2         0.1858    5.5425    0.8407 H         1 RES1    0.0000
      8 C3         0.7438    3.8613    1.9240 C.3       1 RES1    0.0000
      9 H3         0.8182    2.8882    1.7591 H         1 RES1    0.0000
     10 H4         1.6522    4.2344    2.0511 H         1 RES1    0.0000
     11 C4        -0.1341    4.1400    3.1484 C.3       1 RES1    0.0000
     12 C5        -2.3762    5.4197    0.5427 C.3       1 RES1    0.0000
     13 H5        -3.2895    5.2676    0.8629 H         1 RES1    0.0000
     14 H6        -2.3732    5.4407   -0.4370 H         1 RES1    0.0000
     15 H7        -2.0464    6.2753    0.8888 H         1 RES1    0.0000
     16 C6        -1.9796    2.9342    0.5339 C.3       1 RES1    0.0000
     17 H8        -1.3818    2.2268    0.8548 H         1 RES1    0.0000
     18 H9        -1.9949    2.9293   -0.4466 H         1 RES1    0.0000
     19 H10       -2.8844    2.7776    0.8755 H         1 RES1    0.0000
     20 C7         0.5433    4.1111   -0.5945 C.3       1 RES1    0.0000
     21 H11        1.5242    4.2393   -0.6366 H         1 RES1    0.0000
     22 H12        0.3506    3.1494   -0.7254 H         1 RES1    0.0000
     23 C8        -0.1301    2.9870    4.1481 C.3       1 RES1    0.0000
     24 H13       -0.7363    3.1954    4.8890 H         1 RES1    0.0000
     25 H14        0.7778    2.8588    4.4942 H         1 RES1    0.0000
     26 H15       -0.4282    2.1671    3.7015 H         1 RES1    0.0000
     27 C9         0.1962    5.4672    3.8390 C.3       1 RES1    0.0000
     28 H16        0.2300    6.1833    3.1706 H         1 RES1    0.0000
     29 H17        1.0657    5.3957    4.2856 H         1 RES1    0.0000
     30 H18       -0.4956    5.6716    4.5015 H         1 RES1    0.0000
@<TRIPOS>BOND
     1    1    4 1
     2    2    3 1
     3    4    5 1
     4    5    6 1
     5    6    7 1
     6    8    6 1
     7    9    8 1
     8   10    8 1
     9   11    4 1
    10   12    5 1
    11   13   12 1
    12   14   12 1
    13   15   12 1
    14   16    5 1
    15   17   16 1
    16   18   16 1
    17   19   16 1
    18   20    2 1
    19   21   20 1
    20   22   20 1
    21   23   11 1
    22   24   23 1
    23   25   23 1
    24   26   23 1
    25   27   11 1
    26   28   27 1
    27   29   27 1
    28   30   27 1
    29    6   20 1
    30    8   11 1
@<TRIPOS>SUBSTRUCTURE
     1 RES1 1

@<TRIPOS>CRYSIN
   6.6668    9.7837    8.1006  90.0000 114.1064  90.0000   4 1

