# MOL2 file generated by ConQuest
# Please check atom types

@<TRIPOS>MOLECULE
KEFLEM01
    26    27     1
SMALL
NO_CHARGES
****
Generated from CSD

@<TRIPOS>ATOM
      1 O1         6.0698    1.6910    5.2825 O.2       1 RES1    0.0000
      2 O2         6.6753    3.4641    6.3782 O.2       1 RES1    0.0000
      3 N1        -3.7058    5.6184    6.2914 N.3       1 RES1    0.0000
      4 N2         5.8093    2.7354    5.8903 N.pl3     1 RES1    0.0000
      5 C1        -2.4029    5.1929    6.2686 C.ar      1 RES1    0.0000
      6 C2        -2.0512    3.9378    5.7304 C.ar      1 RES1    0.0000
      7 C3        -0.7271    3.5153    5.7326 C.ar      1 RES1    0.0000
      8 C4         0.3097    4.3042    6.2661 C.ar      1 RES1    0.0000
      9 C5        -0.0618    5.5526    6.8069 C.ar      1 RES1    0.0000
     10 C6        -1.3776    5.9890    6.8027 C.ar      1 RES1    0.0000
     11 C7         1.7203    3.8732    6.2215 C.ar      1 RES1    0.0000
     12 C8         2.0988    2.6598    5.6095 C.ar      1 RES1    0.0000
     13 C9         3.4297    2.2785    5.5114 C.ar      1 RES1    0.0000
     14 C10        4.4113    3.1160    6.0305 C.ar      1 RES1    0.0000
     15 C11        4.0882    4.3114    6.6647 C.ar      1 RES1    0.0000
     16 C12        2.7513    4.6769    6.7543 C.ar      1 RES1    0.0000
     17 H1        -3.9043    6.4154    6.4622 H         1 RES1    0.0000
     18 H2        -4.2887    5.1556    5.9314 H         1 RES1    0.0000
     19 H3        -2.7950    3.3267    5.3576 H         1 RES1    0.0000
     20 H4        -0.5230    2.6300    5.3433 H         1 RES1    0.0000
     21 H5         0.6203    6.1251    7.2224 H         1 RES1    0.0000
     22 H6        -1.6250    6.8218    7.2224 H         1 RES1    0.0000
     23 H7         1.4109    2.0727    5.2501 H         1 RES1    0.0000
     24 H8         3.6732    1.4515    5.1138 H         1 RES1    0.0000
     25 H9         4.8384    4.8595    7.0359 H         1 RES1    0.0000
     26 H10        2.5907    5.5039    7.2583 H         1 RES1    0.0000
@<TRIPOS>BOND
     1    1    4 2
     2    2    4 2
     3    3    5 1
     4    4   14 1
     5    5    6 ar
     6    6    7 ar
     7    7    8 ar
     8    8    9 ar
     9    9   10 ar
    10   10    5 ar
    11   11    8 1
    12   12   11 ar
    13   13   12 ar
    14   14   13 ar
    15   15   14 ar
    16   16   11 ar
    17   17    3 1
    18   18    3 1
    19   19    6 1
    20   20    7 1
    21   21    9 1
    22   22   10 1
    23   23   12 1
    24   24   13 1
    25   25   15 1
    26   26   16 1
    27   15   16 ar
@<TRIPOS>SUBSTRUCTURE
     1 RES1 1

@<TRIPOS>CRYSIN
  24.3259    5.8058    7.1722  90.0000  90.0000  90.0000  29 1

