# MOL2 file generated by ConQuest
# Please check atom types

@<TRIPOS>MOLECULE
KEFYOM
    49    52     1
SMALL
NO_CHARGES
****
Generated from CSD

@<TRIPOS>ATOM
      1 C1        -1.5532    1.8400   11.1776 C.3       1 RES1    0.0000
      2 C2        -0.2284    1.0756   11.0882 C.3       1 RES1    0.0000
      3 C3         0.6593    1.5103    9.9490 C.3       1 RES1    0.0000
      4 H1         0.2320    1.2781    9.0862 H         1 RES1    0.0000
      5 H2         1.5260    1.0354   10.0020 H         1 RES1    0.0000
      6 C4         0.8923    3.0187   10.0188 C.3       1 RES1    0.0000
      7 H3         1.3855    3.2422   10.8481 H         1 RES1    0.0000
      8 H4         1.4398    3.3076    9.2453 H         1 RES1    0.0000
      9 C5        -0.9300    4.2517    8.8963 C.2       1 RES1    0.0000
     10 H5        -0.4341    4.4727    8.1172 H         1 RES1    0.0000
     11 C6        -2.2688    4.4462    9.0108 C.2       1 RES1    0.0000
     12 C7        -2.7483    3.8559   10.3106 C.3       1 RES1    0.0000
     13 C8        -3.6079    2.5790   10.1361 C.3       1 RES1    0.0000
     14 H6        -4.2327    2.4654   10.8956 H         1 RES1    0.0000
     15 H7        -4.1286    2.6149    9.2942 H         1 RES1    0.0000
     16 C9        -2.5853    1.4516   10.0970 C.3       1 RES1    0.0000
     17 H8        -2.1588    1.3917    9.2062 H         1 RES1    0.0000
     18 H9        -3.0091    0.5822   10.3092 H         1 RES1    0.0000
     19 C10       -1.4244    3.3823   10.9821 C.3       1 RES1    0.0000
     20 C11       -2.1774    1.4998   12.5095 C.2       1 RES1    0.0000
     21 H10       -2.1838    0.5835   12.7608 H         1 RES1    0.0000
     22 C12       -3.0256    5.1309    7.9999 C.2       1 RES1    0.0000
     23 C13       -5.1629    5.8373    7.2949 C.3       1 RES1    0.0000
     24 H11       -4.8538    6.7616    7.1930 H         1 RES1    0.0000
     25 H12       -6.1021    5.8367    7.5769 H         1 RES1    0.0000
     26 H13       -5.0780    5.3680    6.4391 H         1 RES1    0.0000
     27 C14        1.3911    0.5643   12.7943 C.2       1 RES1    0.0000
     28 C15        2.0180    1.1058   14.0299 C.ar      1 RES1    0.0000
     29 C16        2.8784    0.2828   14.7448 C.ar      1 RES1    0.0000
     30 H14        3.0654   -0.5927   14.4278 H         1 RES1    0.0000
     31 C17        3.4638    0.7273   15.9161 C.ar      1 RES1    0.0000
     32 H15        4.0397    0.1630   16.4187 H         1 RES1    0.0000
     33 C18        3.1884    2.0190   16.3378 C.ar      1 RES1    0.0000
     34 C19        2.3582    2.8674   15.6397 C.ar      1 RES1    0.0000
     35 H16        2.1977    3.7516   15.9482 H         1 RES1    0.0000
     36 C20        1.7646    2.4049   14.4823 C.ar      1 RES1    0.0000
     37 H17        1.1808    2.9717   13.9908 H         1 RES1    0.0000
     38 N1        -0.3774    3.7102   10.0038 N.3       1 RES1    0.0000
     39 N2         3.8166    2.5247   17.5720 N.pl3     1 RES1    0.0000
     40 O1         0.4294    1.3886   12.3629 O.3       1 RES1    0.0000
     41 O2         1.6993   -0.4699   12.2602 O.2       1 RES1    0.0000
     42 O3        -2.6663    2.2814   13.2845 O.2       1 RES1    0.0000
     43 O4        -2.5758    5.6558    7.0014 O.2       1 RES1    0.0000
     44 O5        -4.3622    5.1704    8.2903 O.3       1 RES1    0.0000
     45 O6         4.3389    1.7202   18.3214 O.2       1 RES1    0.0000
     46 O7         3.7706    3.7343   17.7814 O.2       1 RES1    0.0000
     47 H18       -0.3734    0.0556   11.1134 H         1 RES1    0.0000
     48 H19       -3.2841    4.5505   10.8341 H         1 RES1    0.0000
     49 H20       -1.2743    3.8281   11.9092 H         1 RES1    0.0000
@<TRIPOS>BOND
     1    1    2 1
     2    2    3 1
     3    3    4 1
     4    5    3 1
     5    6    3 1
     6    7    6 1
     7    8    6 1
     8    9   10 1
     9   11    9 2
    10   12   11 1
    11   13   12 1
    12   14   13 1
    13   15   13 1
    14   16    1 1
    15   17   16 1
    16   18   16 1
    17   19    1 1
    18   20    1 1
    19   21   20 1
    20   22   11 1
    21   23   24 1
    22   25   23 1
    23   26   23 1
    24   27   28 1
    25   28   29 ar
    26   29   30 1
    27   31   29 ar
    28   32   31 1
    29   33   31 ar
    30   34   33 ar
    31   35   34 1
    32   36   28 ar
    33   37   36 1
    34   38    6 1
    35   39   33 1
    36   40    2 1
    37   41   27 2
    38   42   20 2
    39   43   22 2
    40   44   22 1
    41   45   39 2
    42   46   39 2
    43   47    2 1
    44   48   12 1
    45   49   19 1
    46    9   38 1
    47   12   19 1
    48   13   16 1
    49   19   38 1
    50   23   44 1
    51   27   40 1
    52   34   36 ar
@<TRIPOS>SUBSTRUCTURE
     1 RES1 1

@<TRIPOS>CRYSIN
  11.1034    6.1744   14.0512  90.0000  96.4770  90.0000   4 1

