# MOL2 file generated by ConQuest
# Please check atom types

@<TRIPOS>MOLECULE
KEGNOA
    56    59     1
SMALL
NO_CHARGES
****
Generated from CSD

@<TRIPOS>ATOM
      1 O1         5.6374   -0.3026    7.3592 O.3       1 RES1    0.0000
      2 O2         6.7206    0.7061    8.9569 O.2       1 RES1    0.0000
      3 O3         8.4694   -1.5170    8.9911 O.3       1 RES1    0.0000
      4 O4        12.4070   -0.5611    9.5935 O.3       1 RES1    0.0000
      5 O5        13.7546    4.0544    9.9012 O.3       1 RES1    0.0000
      6 O6         9.3627    2.8390    8.5946 O.3       1 RES1    0.0000
      7 N1         9.4811   -0.7227    9.5824 N.2       1 RES1    0.0000
      8 N2        10.8542   -0.7284    5.6448 N.1       1 RES1    0.0000
      9 C1         5.5047   -1.4346    6.3830 C.3       1 RES1    0.0000
     10 C2         6.7328   -0.1156    8.0807 C.2       1 RES1    0.0000
     11 C3         8.0028   -0.9102    7.7473 C.3       1 RES1    0.0000
     12 C4         7.7272   -2.0404    6.7468 C.3       1 RES1    0.0000
     13 C5         6.8839   -3.1477    7.4289 C.3       1 RES1    0.0000
     14 C6         5.4312   -2.7187    7.2091 C.3       1 RES1    0.0000
     15 C7         6.8155   -1.5376    5.6024 C.3       1 RES1    0.0000
     16 C8         6.6991   -2.6226    4.5110 C.3       1 RES1    0.0000
     17 C9         7.2443   -0.2382    4.9157 C.3       1 RES1    0.0000
     18 C10        4.2449   -1.0683    5.6115 C.3       1 RES1    0.0000
     19 C11        9.8456    0.1755    8.7689 C.2       1 RES1    0.0000
     20 C12        9.1309    0.1031    7.4259 C.3       1 RES1    0.0000
     21 C13       10.0957   -0.3607    6.4118 C.1       1 RES1    0.0000
     22 C14       10.9114    1.1602    9.0781 C.ar      1 RES1    0.0000
     23 C15       12.1742    0.7772    9.5101 C.ar      1 RES1    0.0000
     24 C16       13.1584    1.7103    9.8209 C.ar      1 RES1    0.0000
     25 C17       12.8450    3.0502    9.6799 C.ar      1 RES1    0.0000
     26 C18       11.5882    3.4791    9.2737 C.ar      1 RES1    0.0000
     27 C19       10.6337    2.5348    8.9751 C.ar      1 RES1    0.0000
     28 C20       13.5943   -0.9819   10.2271 C.3       1 RES1    0.0000
     29 C21       15.0736    3.6727   10.3347 C.3       1 RES1    0.0000
     30 C22        8.9410    4.2090    8.7159 C.3       1 RES1    0.0000
     31 H1         8.6345   -2.4397    6.4262 H         1 RES1    0.0000
     32 H2         7.0936   -3.2066    8.4421 H         1 RES1    0.0000
     33 H3         7.0617   -4.0729    6.9816 H         1 RES1    0.0000
     34 H4         4.9578   -2.5347    8.1091 H         1 RES1    0.0000
     35 H5         4.9069   -3.4488    6.6786 H         1 RES1    0.0000
     36 H6         6.3410   -3.5064    4.9426 H         1 RES1    0.0000
     37 H7         7.6214   -2.7975    4.0810 H         1 RES1    0.0000
     38 H8         6.0231   -2.3063    3.7837 H         1 RES1    0.0000
     39 H9         7.2963    0.5241    5.6244 H         1 RES1    0.0000
     40 H10        6.5361    0.0127    4.1944 H         1 RES1    0.0000
     41 H11        8.1688   -0.3646    4.4699 H         1 RES1    0.0000
     42 H12        3.4447   -0.9809    6.2974 H         1 RES1    0.0000
     43 H13        4.0123   -1.8234    4.9364 H         1 RES1    0.0000
     44 H14        4.3720   -0.1744    5.1252 H         1 RES1    0.0000
     45 H15       14.1020    1.4054   10.1506 H         1 RES1    0.0000
     46 H16       11.3684    4.5030    9.2102 H         1 RES1    0.0000
     47 H17        8.7405    1.0287    7.1455 H         1 RES1    0.0000
     48 H18       13.6613   -2.0210   10.1922 H         1 RES1    0.0000
     49 H19       13.5810   -0.6756   11.2256 H         1 RES1    0.0000
     50 H20       14.4129   -0.5641    9.7492 H         1 RES1    0.0000
     51 H21       15.6416    4.5361   10.5156 H         1 RES1    0.0000
     52 H22       15.5220    3.0775    9.6540 H         1 RES1    0.0000
     53 H23       14.9862    3.1594   11.2635 H         1 RES1    0.0000
     54 H24        7.9672    4.3096    8.3574 H         1 RES1    0.0000
     55 H25        9.5744    4.8173    8.1488 H         1 RES1    0.0000
     56 H26        8.9785    4.5034    9.7079 H         1 RES1    0.0000
@<TRIPOS>BOND
     1    1    9 1
     2    2   10 2
     3    3    7 1
     4    4   23 1
     5    5   25 1
     6    6   27 1
     7    7   19 2
     8    8   21 3
     9    9   14 1
    10   10    1 1
    11   11    3 1
    12   12   11 1
    13   13   12 1
    14   14   13 1
    15   15    9 1
    16   16   15 1
    17   17   15 1
    18   18    9 1
    19   19   20 1
    20   20   11 1
    21   21   20 1
    22   22   19 1
    23   23   22 ar
    24   24   23 ar
    25   25   24 ar
    26   26   25 ar
    27   27   22 ar
    28   28    4 1
    29   29    5 1
    30   30    6 1
    31   31   12 1
    32   32   13 1
    33   33   13 1
    34   34   14 1
    35   35   14 1
    36   36   16 1
    37   37   16 1
    38   38   16 1
    39   39   17 1
    40   40   17 1
    41   41   17 1
    42   42   18 1
    43   43   18 1
    44   44   18 1
    45   45   24 1
    46   46   26 1
    47   47   20 1
    48   48   28 1
    49   49   28 1
    50   50   28 1
    51   51   29 1
    52   52   29 1
    53   53   29 1
    54   54   30 1
    55   55   30 1
    56   56   30 1
    57   10   11 1
    58   12   15 1
    59   26   27 ar
@<TRIPOS>SUBSTRUCTURE
     1 RES1 1

@<TRIPOS>CRYSIN
  10.2090   13.9277   15.1580  90.0000  90.0000  90.0000  19 1

