# MOL2 file generated by ConQuest
# Please check atom types

@<TRIPOS>MOLECULE
KEGPES
    67    71     1
SMALL
NO_CHARGES
****
Generated from CSD

@<TRIPOS>ATOM
      1 O1         5.5302   12.5977    3.3675 O.2       1 RES1    0.0000
      2 O2         3.6045   10.3584    3.3783 O.3       1 RES1    0.0000
      3 O3         7.2321   10.7197    6.2107 O.3       1 RES1    0.0000
      4 O4         6.4413    8.6453   10.3747 O.3       1 RES1    0.0000
      5 O5         3.1953    8.4299    6.8084 O.3       1 RES1    0.0000
      6 N1         3.7019   10.2754    4.7901 N.2       1 RES1    0.0000
      7 C1         5.4214   11.9212    1.0248 C.3       1 RES1    0.0000
      8 C2         5.3524   11.7574    2.5360 C.2       1 RES1    0.0000
      9 C3         4.9501   10.2866    2.8112 C.3       1 RES1    0.0000
     10 C4         4.9218    9.7268    1.3775 C.3       1 RES1    0.0000
     11 C5         3.6405   10.2597    0.7019 C.3       1 RES1    0.0000
     12 C6         3.9563   11.7630    0.5385 C.3       1 RES1    0.0000
     13 C7         6.1202   13.1912    0.5790 C.3       1 RES1    0.0000
     14 C8         6.0259   10.5368    0.6567 C.3       1 RES1    0.0000
     15 C9         7.4443   10.3427    1.2048 C.3       1 RES1    0.0000
     16 C10        6.0773   10.2698   -0.8591 C.3       1 RES1    0.0000
     17 C11        4.8605    9.8592    5.1117 C.2       1 RES1    0.0000
     18 C12        5.7777    9.5843    3.9179 C.3       1 RES1    0.0000
     19 C13        5.9463    8.0675    3.7726 C.ar      1 RES1    0.0000
     20 C14        4.7930    7.2698    3.6759 C.ar      1 RES1    0.0000
     21 C15        4.8888    5.8989    3.5501 C.ar      1 RES1    0.0000
     22 C16        6.1317    5.2964    3.5198 C.ar      1 RES1    0.0000
     23 C17        7.2627    6.0649    3.6386 C.ar      1 RES1    0.0000
     24 C18        7.2060    7.4561    3.7848 C.ar      1 RES1    0.0000
     25 C19        8.4841    8.2100    4.0169 C.3       1 RES1    0.0000
     26 C20        5.2275    9.5518    6.5075 C.ar      1 RES1    0.0000
     27 C21        6.4620    9.9601    7.0352 C.ar      1 RES1    0.0000
     28 C22        6.8512    9.6404    8.3259 C.ar      1 RES1    0.0000
     29 C23        5.9784    8.9101    9.1257 C.ar      1 RES1    0.0000
     30 C24        4.7355    8.5017    8.6577 C.ar      1 RES1    0.0000
     31 C25        4.3731    8.8113    7.3486 C.ar      1 RES1    0.0000
     32 C26        2.4053    7.4953    7.5341 C.3       1 RES1    0.0000
     33 C27        5.6558    7.8521   11.2289 C.3       1 RES1    0.0000
     34 C28        8.4979   11.1920    6.6954 C.3       1 RES1    0.0000
     35 H1         3.8588    7.7274    3.6960 H         1 RES1    0.0000
     36 H2         4.0216    5.3265    3.4866 H         1 RES1    0.0000
     37 H3         6.2241    4.2649    3.4091 H         1 RES1    0.0000
     38 H4         8.2099    5.6147    3.6404 H         1 RES1    0.0000
     39 H5         7.7735    9.9433    8.7048 H         1 RES1    0.0000
     40 H6         4.0923    7.9642    9.2797 H         1 RES1    0.0000
     41 H7         4.9003    8.6816    1.4040 H         1 RES1    0.0000
     42 H8         2.8071   10.1137    1.3088 H         1 RES1    0.0000
     43 H9         3.4810    9.8080   -0.2199 H         1 RES1    0.0000
     44 H10        3.3104   12.3405    1.1241 H         1 RES1    0.0000
     45 H11        3.8625   12.0545   -0.4564 H         1 RES1    0.0000
     46 H12        5.5899   14.0232    0.9223 H         1 RES1    0.0000
     47 H13        6.1613   13.2230   -0.4625 H         1 RES1    0.0000
     48 H14        7.0837   13.2162    0.9634 H         1 RES1    0.0000
     49 H15        7.4554   10.5636    2.2256 H         1 RES1    0.0000
     50 H16        8.0977   10.9797    0.7094 H         1 RES1    0.0000
     51 H17        7.7451    9.3571    1.0659 H         1 RES1    0.0000
     52 H18        5.1306   10.3748   -1.2660 H         1 RES1    0.0000
     53 H19        6.4253    9.3015   -1.0304 H         1 RES1    0.0000
     54 H20        6.7281   10.9500   -1.3041 H         1 RES1    0.0000
     55 H21        6.7193   10.0410    4.0469 H         1 RES1    0.0000
     56 H22        9.2762    7.5376    4.0425 H         1 RES1    0.0000
     57 H23        8.4297    8.7123    4.9302 H         1 RES1    0.0000
     58 H24        8.6284    8.8948    3.2533 H         1 RES1    0.0000
     59 H25        1.5207    7.3084    7.0236 H         1 RES1    0.0000
     60 H26        2.1986    7.8634    8.4783 H         1 RES1    0.0000
     61 H27        2.9382    6.5937    7.6270 H         1 RES1    0.0000
     62 H28        6.1679    7.6944   12.1253 H         1 RES1    0.0000
     63 H29        5.4874    6.9226   10.7743 H         1 RES1    0.0000
     64 H30        4.7513    8.3102   11.4200 H         1 RES1    0.0000
     65 H31        8.9429   11.7930    5.9658 H         1 RES1    0.0000
     66 H32        9.1173   10.3868    6.9021 H         1 RES1    0.0000
     67 H33        8.3500   11.7531    7.5568 H         1 RES1    0.0000
@<TRIPOS>BOND
     1    1    8 2
     2    2    6 1
     3    3   27 1
     4    4   29 1
     5    5   31 1
     6    6   17 2
     7    7    8 1
     8    8    9 1
     9    9    2 1
    10   10    9 1
    11   11   10 1
    12   12    7 1
    13   13    7 1
    14   14    7 1
    15   15   14 1
    16   16   14 1
    17   17   18 1
    18   18    9 1
    19   19   18 1
    20   20   19 ar
    21   21   20 ar
    22   22   21 ar
    23   23   22 ar
    24   24   19 ar
    25   25   24 1
    26   26   17 1
    27   27   26 ar
    28   28   27 ar
    29   29   28 ar
    30   30   29 ar
    31   31   26 ar
    32   32    5 1
    33   33    4 1
    34   34    3 1
    35   35   20 1
    36   36   21 1
    37   37   22 1
    38   38   23 1
    39   39   28 1
    40   40   30 1
    41   41   10 1
    42   42   11 1
    43   43   11 1
    44   44   12 1
    45   45   12 1
    46   46   13 1
    47   47   13 1
    48   48   13 1
    49   49   15 1
    50   50   15 1
    51   51   15 1
    52   52   16 1
    53   53   16 1
    54   54   16 1
    55   55   18 1
    56   56   25 1
    57   57   25 1
    58   58   25 1
    59   59   32 1
    60   60   32 1
    61   61   32 1
    62   62   33 1
    63   63   33 1
    64   64   33 1
    65   65   34 1
    66   66   34 1
    67   67   34 1
    68   10   14 1
    69   11   12 1
    70   23   24 ar
    71   30   31 ar
@<TRIPOS>SUBSTRUCTURE
     1 RES1 1

@<TRIPOS>CRYSIN
   7.6627   11.2189   29.1229  90.0000  90.0000  90.0000  19 1

