# MOL2 file generated by ConQuest
# Please check atom types

@<TRIPOS>MOLECULE
KEHYAZ
    16    16     1
SMALL
NO_CHARGES
****
Generated from CSD

@<TRIPOS>ATOM
      1 C1         1.9821    2.7054    0.9838 C.2       1 RES1    0.0000
      2 C2         2.9026    1.7244    1.4634 C.2       1 RES1    0.0000
      3 C3         2.1033    4.1404    0.9326 C.2       1 RES1    0.0000
      4 C4         4.2180    1.9388    2.0464 C.2       1 RES1    0.0000
      5 N1         0.9491    2.0381    0.4767 N.pl3     1 RES1    0.0000
      6 N2         2.4380    0.5141    1.2721 N.2       1 RES1    0.0000
      7 N3         1.1498    4.8571    0.4970 N.2       1 RES1    0.0000
      8 N4         4.5732    3.1334    2.3041 N.2       1 RES1    0.0000
      9 O1         1.2117    0.6260    0.6593 O.3       1 RES1    0.0000
     10 O2        -0.0868    2.3448   -0.1030 O.2       1 RES1    0.0000
     11 O3         1.5057    6.2011    0.4975 O.3       1 RES1    0.0000
     12 O4         5.8570    3.1962    2.8250 O.3       1 RES1    0.0000
     13 H1         2.8870    4.4911    1.1817 H         1 RES1    0.0000
     14 H2         0.6953    6.5867    0.1692 H         1 RES1    0.0000
     15 H3         4.7453    1.2078    2.1631 H         1 RES1    0.0000
     16 H4         5.9437    4.0706    2.9209 H         1 RES1    0.0000
@<TRIPOS>BOND
     1    1    2 1
     2    2    4 1
     3    3    1 1
     4    4    8 2
     5    5    1 2
     6    6    2 2
     7    7    3 2
     8    8   12 1
     9    9    5 1
    10   10    5 1
    11   11    7 1
    12   12   16 1
    13   13    3 1
    14   14   11 1
    15   15    4 1
    16    6    9 1
@<TRIPOS>SUBSTRUCTURE
     1 RES1 1

@<TRIPOS>CRYSIN
   6.5809   11.1829    9.2617  90.0000 105.9470  90.0000 231 1

