# MOL2 file generated by ConQuest
# Please check atom types

@<TRIPOS>MOLECULE
KEJHIT
    66    70     1
SMALL
NO_CHARGES
****
Generated from CSD

@<TRIPOS>ATOM
      1 O1         7.1774   12.7210    1.4703 O.2       1 RES1    0.0000
      2 O2         4.7183    9.3880   -0.5196 O.3       1 RES1    0.0000
      3 O3         6.3231    6.3159    2.3233 O.3       1 RES1    0.0000
      4 O4         7.3509    5.9095   -1.0964 O.3       1 RES1    0.0000
      5 O5         7.6184    3.7418   -0.5393 O.3       1 RES1    0.0000
      6 O6         9.2706    9.3831    3.0078 O.2       1 RES1    0.0000
      7 O7         8.9477   11.6076    3.2724 O.3       1 RES1    0.0000
      8 N1         8.1210   10.5735    1.4656 N.am      1 RES1    0.0000
      9 N2         4.8777    7.9771   -0.3690 N.2       1 RES1    0.0000
     10 C1         6.5498   10.9996   -0.1745 C.3       1 RES1    0.0000
     11 H1         6.1917   11.6447   -0.8501 H         1 RES1    0.0000
     12 C2         5.5123   10.0746    0.4807 C.3       1 RES1    0.0000
     13 H2         4.9442   10.5568    1.1474 H         1 RES1    0.0000
     14 C3         6.3681    8.9663    1.1355 C.3       1 RES1    0.0000
     15 H3         6.2778    8.9563    2.1312 H         1 RES1    0.0000
     16 C4         7.8000    9.3646    0.6783 C.3       1 RES1    0.0000
     17 H4         8.4818    8.6344    0.7132 H         1 RES1    0.0000
     18 C5         7.5713    9.9855   -0.6999 C.3       1 RES1    0.0000
     19 H5         7.1848    9.3486   -1.3516 H         1 RES1    0.0000
     20 H6         8.3839   10.4105   -1.0725 H         1 RES1    0.0000
     21 C6         5.7740    7.7472    0.4992 C.2       1 RES1    0.0000
     22 C7         6.1471    6.3447    0.9173 C.3       1 RES1    0.0000
     23 H7         5.4265    5.7049    0.6502 H         1 RES1    0.0000
     24 C8         7.4851    5.9053    0.3171 C.3       1 RES1    0.0000
     25 H8         8.2128    6.5312    0.5978 H         1 RES1    0.0000
     26 C9         7.8607    4.4626    0.6693 C.3       1 RES1    0.0000
     27 H9         8.8118    4.3984    0.9357 H         1 RES1    0.0000
     28 H10        7.2958    4.1193    1.4062 H         1 RES1    0.0000
     29 C10        7.8333    4.6640   -1.5954 C.3       1 RES1    0.0000
     30 C11        9.2983    4.7906   -1.9625 C.3       1 RES1    0.0000
     31 H11        9.8098    5.0704   -1.1741 H         1 RES1    0.0000
     32 H12        9.4012    5.4584   -2.6723 H         1 RES1    0.0000
     33 H13        9.6328    3.9249   -2.2777 H         1 RES1    0.0000
     34 C12        6.9883    4.2346   -2.7728 C.3       1 RES1    0.0000
     35 H14        6.0523    4.1584   -2.4926 H         1 RES1    0.0000
     36 H15        7.3029    3.3669   -3.1011 H         1 RES1    0.0000
     37 H16        7.0622    4.9008   -3.4871 H         1 RES1    0.0000
     38 C13        5.0988    6.4285    3.0411 C.3       1 RES1    0.0000
     39 H17        4.6287    5.5577    3.0390 H         1 RES1    0.0000
     40 H18        4.5142    7.0966    2.6017 H         1 RES1    0.0000
     41 C14        5.3801    6.8541    4.4653 C.ar      1 RES1    0.0000
     42 C15        6.5954    7.3992    4.8402 C.ar      1 RES1    0.0000
     43 H19        7.2836    7.5147    4.1950 H         1 RES1    0.0000
     44 C16        4.3740    6.7106    5.4150 C.ar      1 RES1    0.0000
     45 H20        3.5325    6.3502    5.1627 H         1 RES1    0.0000
     46 C17        6.8108    7.7802    6.1658 C.ar      1 RES1    0.0000
     47 H21        7.6464    8.1527    6.4214 H         1 RES1    0.0000
     48 C18        4.5964    7.0930    6.7339 C.ar      1 RES1    0.0000
     49 H22        3.9056    6.9926    7.3784 H         1 RES1    0.0000
     50 C19        5.8103    7.6155    7.1105 C.ar      1 RES1    0.0000
     51 H23        5.9633    7.8639    8.0147 H         1 RES1    0.0000
     52 C20        7.3016   11.6208    1.0036 C.2       1 RES1    0.0000
     53 C21        8.8326   10.4426    2.6644 C.2       1 RES1    0.0000
     54 C22        9.7352   11.7259    4.5297 C.3       1 RES1    0.0000
     55 C23        9.1742   10.8270    5.5990 C.3       1 RES1    0.0000
     56 H24        9.3316    9.8905    5.3542 H         1 RES1    0.0000
     57 H25        8.2109   10.9839    5.6857 H         1 RES1    0.0000
     58 H26        9.6155   11.0194    6.4524 H         1 RES1    0.0000
     59 C24       11.1958   11.4331    4.2281 C.3       1 RES1    0.0000
     60 H27       11.2998   10.4837    4.0100 H         1 RES1    0.0000
     61 H28       11.7414   11.6504    5.0120 H         1 RES1    0.0000
     62 H29       11.4868   11.9766    3.4657 H         1 RES1    0.0000
     63 C25        9.5139   13.1895    4.8783 C.3       1 RES1    0.0000
     64 H30        8.5654   13.3387    5.0740 H         1 RES1    0.0000
     65 H31        9.7845   13.7505    4.1212 H         1 RES1    0.0000
     66 H32       10.0501   13.4225    5.6653 H         1 RES1    0.0000
@<TRIPOS>BOND
     1    1   52 2
     2    2    9 1
     3    3   22 1
     4    4   24 1
     5    5   26 1
     6    6   53 2
     7    7   53 1
     8    8   16 1
     9    9   21 2
    10   10   11 1
    11   12    2 1
    12   13   12 1
    13   14   12 1
    14   15   14 1
    15   16   14 1
    16   17   16 1
    17   18   10 1
    18   19   18 1
    19   20   18 1
    20   21   14 1
    21   22   21 1
    22   23   22 1
    23   24   22 1
    24   25   24 1
    25   26   24 1
    26   27   26 1
    27   28   26 1
    28   29    4 1
    29   30   29 1
    30   31   30 1
    31   32   30 1
    32   33   30 1
    33   34   29 1
    34   35   34 1
    35   36   34 1
    36   37   34 1
    37   38    3 1
    38   39   38 1
    39   40   38 1
    40   41   38 1
    41   42   41 ar
    42   43   42 1
    43   44   41 ar
    44   45   44 1
    45   46   42 ar
    46   47   46 1
    47   48   44 ar
    48   49   48 1
    49   50   46 ar
    50   51   50 1
    51   52    8 1
    52   53    8 1
    53   54    7 1
    54   55   54 1
    55   56   55 1
    56   57   55 1
    57   58   55 1
    58   59   54 1
    59   60   59 1
    60   61   59 1
    61   62   59 1
    62   63   54 1
    63   64   63 1
    64   65   63 1
    65   66   63 1
    66    5   29 1
    67   10   12 1
    68   10   52 1
    69   16   18 1
    70   48   50 ar
@<TRIPOS>SUBSTRUCTURE
     1 RES1 1

@<TRIPOS>CRYSIN
   6.0765    9.6451   11.0698  89.9020  75.4210  76.3980   1 1

