# MOL2 file generated by ConQuest
# Please check atom types

@<TRIPOS>MOLECULE
KEJMAQ
    59    64     1
SMALL
NO_CHARGES
****
Generated from CSD

@<TRIPOS>ATOM
      1 C1         2.9199   10.7104   19.9278 C.3       1 RES1    0.0000
      2 H1         2.1884   10.3374   20.4630 H         1 RES1    0.0000
      3 H2         3.1212   11.6170   20.2395 H         1 RES1    0.0000
      4 H3         3.7158   10.1473   20.0233 H         1 RES1    0.0000
      5 C2         1.5179   11.5536   18.2377 C.2       1 RES1    0.0000
      6 C3         1.2461   11.6015   16.7557 C.3       1 RES1    0.0000
      7 H4         0.2880   11.8419   16.6027 H         1 RES1    0.0000
      8 C4         2.1498   12.6469   16.0789 C.3       1 RES1    0.0000
      9 H5         1.6820   13.5161   16.0050 H         1 RES1    0.0000
     10 H6         2.9824   12.7761   16.5978 H         1 RES1    0.0000
     11 C5         2.4636   12.0851   14.6914 C.3       1 RES1    0.0000
     12 H7         3.3725   12.3652   14.3846 H         1 RES1    0.0000
     13 C6         1.4254   12.3386   13.6303 C.ar      1 RES1    0.0000
     14 C7         0.9023   13.5461   13.1935 C.ar      1 RES1    0.0000
     15 H8         1.1922   14.3644   13.5780 H         1 RES1    0.0000
     16 C8        -0.0525   13.5377   12.1855 C.ar      1 RES1    0.0000
     17 H9        -0.4192   14.3583   11.8750 H         1 RES1    0.0000
     18 C9        -0.4735   12.3423   11.6308 C.ar      1 RES1    0.0000
     19 H10       -1.1245   12.3529   10.9397 H         1 RES1    0.0000
     20 C10        0.0343   11.1311   12.0628 C.ar      1 RES1    0.0000
     21 H11       -0.2694   10.3108   11.6904 H         1 RES1    0.0000
     22 C11        0.9995   11.1501   13.0555 C.ar      1 RES1    0.0000
     23 C12        2.3763   10.5671   14.8491 C.3       1 RES1    0.0000
     24 H12        3.2824   10.1595   14.9628 H         1 RES1    0.0000
     25 C13        0.8503    9.2251   16.1999 C.2       1 RES1    0.0000
     26 C14        0.9209    8.2995   15.0520 C.2       1 RES1    0.0000
     27 H13        0.8026    7.3672   15.1887 H         1 RES1    0.0000
     28 C15        1.1512    8.7693   13.8125 C.2       1 RES1    0.0000
     29 C16        0.8598    8.0262   12.5667 C.ar      1 RES1    0.0000
     30 C17       -0.1450    7.0608   12.5368 C.ar      1 RES1    0.0000
     31 H14       -0.6133    6.8439   13.3351 H         1 RES1    0.0000
     32 C18       -0.4664    6.4148   11.3532 C.ar      1 RES1    0.0000
     33 H15       -1.1440    5.7503   11.3357 H         1 RES1    0.0000
     34 C19        0.2070    6.7498   10.2106 C.ar      1 RES1    0.0000
     35 C20        1.2242    7.6816   10.2065 C.ar      1 RES1    0.0000
     36 H16        1.6958    7.8823    9.4067 H         1 RES1    0.0000
     37 C21        1.5427    8.3194   11.3930 C.ar      1 RES1    0.0000
     38 H17        2.2380    8.9657   11.4037 H         1 RES1    0.0000
     39 C22        0.4435    5.2122    8.4413 C.2       1 RES1    0.0000
     40 C23       -0.1712    4.7611    7.1605 C.ar      1 RES1    0.0000
     41 C24        0.2766    3.5652    6.6131 C.ar      1 RES1    0.0000
     42 H18        0.9728    3.0765    7.0356 H         1 RES1    0.0000
     43 C25       -0.2980    3.0904    5.4470 C.ar      1 RES1    0.0000
     44 H19       -0.0148    2.2670    5.0678 H         1 RES1    0.0000
     45 C26       -1.2842    3.8320    4.8506 C.ar      1 RES1    0.0000
     46 C27       -1.7268    5.0332    5.3627 C.ar      1 RES1    0.0000
     47 H20       -2.3992    5.5336    4.9171 H         1 RES1    0.0000
     48 C28       -1.1669    5.4919    6.5429 C.ar      1 RES1    0.0000
     49 H21       -1.4669    6.3083    6.9263 H         1 RES1    0.0000
     50 N1         1.5570   10.3764   16.0347 N.am      1 RES1    0.0000
     51 N2         1.7063   10.0555   13.6555 N.3       1 RES1    0.0000
     52 N3        -1.9404    3.3138    3.6330 N.pl3     1 RES1    0.0000
     53 O1         2.5289   10.7544   18.5455 O.3       1 RES1    0.0000
     54 O2         0.9223   12.2413   19.0236 O.2       1 RES1    0.0000
     55 O3         0.1421    9.0330   17.1852 O.2       1 RES1    0.0000
     56 O4        -0.2499    6.2214    8.9923 O.3       1 RES1    0.0000
     57 O5         1.4206    4.7435    8.9461 O.2       1 RES1    0.0000
     58 O6        -2.7058    4.0573    3.0309 O.2       1 RES1    0.0000
     59 O7        -1.7106    2.1635    3.2994 O.2       1 RES1    0.0000
@<TRIPOS>BOND
     1    1    2 1
     2    3    1 1
     3    4    1 1
     4    5    6 1
     5    6    7 1
     6    8    6 1
     7    9    8 1
     8   10    8 1
     9   11    8 1
    10   12   11 1
    11   13   11 1
    12   14   13 ar
    13   15   14 1
    14   16   14 ar
    15   17   16 1
    16   18   16 ar
    17   19   18 1
    18   20   18 ar
    19   21   20 1
    20   22   13 ar
    21   23   11 1
    22   24   23 1
    23   25   26 1
    24   26   27 1
    25   28   26 2
    26   29   28 1
    27   30   29 ar
    28   31   30 1
    29   32   30 ar
    30   33   32 1
    31   34   32 ar
    32   35   34 ar
    33   36   35 1
    34   37   29 ar
    35   38   37 1
    36   39   40 1
    37   40   41 ar
    38   41   42 1
    39   43   41 ar
    40   44   43 1
    41   45   43 ar
    42   46   45 ar
    43   47   46 1
    44   48   40 ar
    45   49   48 1
    46   50    6 1
    47   51   22 1
    48   52   45 1
    49   53    1 1
    50   54    5 2
    51   55   25 2
    52   56   34 1
    53   57   39 2
    54   58   52 2
    55   59   52 2
    56    5   53 1
    57   20   22 ar
    58   23   50 1
    59   23   51 1
    60   25   50 1
    61   28   51 1
    62   35   37 ar
    63   39   56 1
    64   46   48 ar
@<TRIPOS>SUBSTRUCTURE
     1 RES1 1

@<TRIPOS>CRYSIN
   4.7688   20.4417   24.2942  90.0000  90.0000  90.0000  19 1

