# MOL2 file generated by ConQuest
# Please check atom types

@<TRIPOS>MOLECULE
KEMDUB
    19    18     1
SMALL
NO_CHARGES
****
Generated from CSD

@<TRIPOS>ATOM
      1 O1         1.4509   -5.0360    4.4850 O.2       1 RES1    0.0000
      2 O2         0.1267   -7.0593    5.0341 O.3       1 RES1    0.0000
      3 O3         0.0599   -3.3139    6.9241 O.2       1 RES1    0.0000
      4 O4         1.2397   -1.1796    6.4476 O.3       1 RES1    0.0000
      5 O5         2.4209   -4.3558    9.0932 O.3       1 RES1    0.0000
      6 O6         4.0459   -5.7912    6.3160 O.3       1 RES1    0.0000
      7 N1         1.3265   -5.4180    5.6826 N.pl3     1 RES1    0.0000
      8 N2         0.6729   -6.4125    6.1026 N.2       1 RES1    0.0000
      9 N3         1.2995   -3.3031    6.6930 N.pl3     1 RES1    0.0000
     10 N4         2.0265   -2.2989    6.4324 N.2       1 RES1    0.0000
     11 C1         2.0189   -4.6128    6.7368 C.3       1 RES1    0.0000
     12 C2        -0.8162   -8.0581    5.5283 C.3       1 RES1    0.0000
     13 C3         2.1005   -0.0102    6.2696 C.3       1 RES1    0.0000
     14 C4         3.4995   -4.4957    6.3565 C.3       1 RES1    0.0000
     15 C5         1.8249   -5.2027    8.1486 C.3       1 RES1    0.0000
     16 C6        -1.0882   -8.9946    4.4564 C.3       1 RES1    0.0000
     17 C7         2.8671    0.3027    7.4798 C.3       1 RES1    0.0000
     18 H1         1.8551   -3.8278    9.3361 H         1 RES1    0.0000
     19 H2         4.0644   -6.0370    5.5578 H         1 RES1    0.0000
@<TRIPOS>BOND
     1    1    7 1
     2    2    8 1
     3    3    9 1
     4    4   10 1
     5    5   15 1
     6    6   14 1
     7    7    8 2
     8    9   10 2
     9   11    7 1
    10   12    2 1
    11   13    4 1
    12   14   11 1
    13   15   11 1
    14   16   12 1
    15   17   13 1
    16   18    5 1
    17   19    6 1
    18    9   11 1
@<TRIPOS>SUBSTRUCTURE
     1 RES1 1

@<TRIPOS>CRYSIN
   7.8340    9.5090    9.5920 105.2900 111.8600  94.9800   2 1

