# MOL2 file generated by ConQuest
# Please check atom types

@<TRIPOS>MOLECULE
KEMDOV
    15    14     1
SMALL
NO_CHARGES
****
Generated from CSD

@<TRIPOS>ATOM
      1 O1        10.9092   -1.7626    1.4878 O.2       1 RES1    0.0000
      2 O2        10.2268    0.5896    1.2642 O.3       1 RES1    0.0000
      3 O3        12.3978   -0.8699    4.5632 O.2       1 RES1    0.0000
      4 O4        12.4029   -3.2490    5.1669 O.3       1 RES1    0.0000
      5 O5        13.9204   -1.8171    0.1580 O.3       1 RES1    0.0000
      6 N1        11.7168   -0.8471    1.7838 N.pl3     1 RES1    0.0000
      7 N2        11.4965    0.3956    1.7387 N.2       1 RES1    0.0000
      8 N3        12.7288   -1.7225    3.7102 N.pl3     1 RES1    0.0000
      9 N4        12.7679   -2.9784    3.8723 N.2       1 RES1    0.0000
     10 C1        13.0690   -1.2489    2.3237 C.3       1 RES1    0.0000
     11 C2         9.8962    1.9697    1.3987 C.3       1 RES1    0.0000
     12 C3        12.3307   -4.6788    5.2986 C.3       1 RES1    0.0000
     13 C4        14.0173   -0.0725    2.4313 C.3       1 RES1    0.0000
     14 C5        13.6260   -2.3646    1.4308 C.3       1 RES1    0.0000
     15 H1        13.3070   -1.9262   -0.3209 H         1 RES1    0.0000
@<TRIPOS>BOND
     1    1    6 1
     2    2    7 1
     3    3    8 1
     4    4    9 1
     5    5   14 1
     6    6    7 2
     7    8    9 2
     8   10    6 1
     9   11    2 1
    10   12    4 1
    11   13   10 1
    12   14   10 1
    13   15    5 1
    14    8   10 1
@<TRIPOS>SUBSTRUCTURE
     1 RES1 1

@<TRIPOS>CRYSIN
  15.0030    6.9040   19.0560  90.0000  97.8700  90.0000  15 1

