# MOL2 file generated by ConQuest
# Please check atom types

@<TRIPOS>MOLECULE
KEMSIF
    33    34     1
SMALL
USER_CHARGES
****
Generated from CSD

@<TRIPOS>ATOM
      1 C1         1.5938    1.0721    2.4721 C.ar      1 RES1    0.0000
      2 H1         1.8089    1.6962    1.7787 H         1 RES1    0.0000
      3 C2         1.6868   -0.2980    2.2913 C.ar      1 RES1    0.0000
      4 H2         1.9246   -0.6530    1.4040 H         1 RES1    0.0000
      5 C3         1.3945   -1.1632    3.3196 C.ar      1 RES1    0.0000
      6 H3         1.4886   -2.0849    3.1542 H         1 RES1    0.0000
      7 C4         1.0066   -0.6657    4.5400 C.ar      1 RES1    0.0000
      8 H4         0.8152   -1.2873    5.2278 H         1 RES1    0.0000
      9 C5         0.9119    0.6904    4.7401 C.ar      1 RES1    0.0000
     10 H5         0.6541    1.0354    5.6016 H         1 RES1    0.0000
     11 C6         1.2073    1.5894    3.7107 C.ar      1 RES1    0.0000
     12 C7         1.0939    2.9959    4.0255 C.2       1 RES1    0.0000
     13 H6         0.8268    3.2447    4.9196 H         1 RES1    0.0000
     14 C8         1.0832    5.3640    3.7037 C.2       1 RES1    0.0000
     15 C9         2.0098    5.9699    4.4359 C.2       1 RES1    0.0000
     16 H7         1.7919    6.8780    4.7798 H         1 RES1    0.0000
     17 C10        3.3369    5.4977    4.8615 C.ar      1 RES1    0.0000
     18 C11        4.1163    4.6067    4.1178 C.ar      1 RES1    0.0000
     19 H8         3.7727    4.2195    3.2797 H         1 RES1    0.0000
     20 C12        5.3912    4.2704    4.5458 C.ar      1 RES1    0.0000
     21 H9         5.9350    3.6567    3.9608 H         1 RES1    0.0000
     22 C13        5.9165    4.8123    5.7024 C.ar      1 RES1    0.0000
     23 H10        6.8160    4.5786    5.9745 H         1 RES1    0.0000
     24 C14        5.1612    5.6970    6.4415 C.ar      1 RES1    0.0000
     25 H11        5.5267    6.1162    7.2947 H         1 RES1    0.0000
     26 C15        3.8882    6.0371    6.0233 C.ar      1 RES1    0.0000
     27 H12        3.3672    6.6774    6.5509 H         1 RES1    0.0000
     28 C16       -0.2170    5.9450    3.2645 C.3       1 RES1    0.0000
     29 H13       -0.9427    5.4383    3.6431 H         1 RES1    0.0000
     30 H14       -0.2251    5.9716    2.2353 H         1 RES1    0.0000
     31 H15       -0.2989    6.8935    3.5432 H         1 RES1    0.0000
     32 N1         1.2928    4.0027    3.2186 N.pl3     1 RES1    1.0000
     33 O1         1.6262    3.9196    1.9595 O.2       1 RES1   -1.0000
@<TRIPOS>BOND
     1    1    2 1
     2    3    1 ar
     3    4    3 1
     4    5    3 ar
     5    6    5 1
     6    7    5 ar
     7    8    7 1
     8    9    7 ar
     9   10    9 1
    10   11    1 ar
    11   12   11 1
    12   13   12 1
    13   14   15 2
    14   15   16 1
    15   17   15 1
    16   18   17 ar
    17   19   18 1
    18   20   18 ar
    19   21   20 1
    20   22   20 ar
    21   23   22 1
    22   24   22 ar
    23   25   24 1
    24   26   17 ar
    25   27   26 1
    26   28   14 1
    27   29   28 1
    28   30   28 1
    29   31   28 1
    30   32   12 2
    31   33   32 1
    32    9   11 ar
    33   14   32 1
    34   24   26 ar
@<TRIPOS>SUBSTRUCTURE
     1 RES1 1

@<TRIPOS>CRYSIN
   9.1660   15.5470   10.1740  90.0000 110.7830  90.0000  14 1

