# MOL2 file generated by ConQuest
# Please check atom types

@<TRIPOS>MOLECULE
KEMSOL
    36    37     1
SMALL
USER_CHARGES
****
Generated from CSD

@<TRIPOS>ATOM
      1 C1         2.4683   15.5649    8.1565 C.ar      1 RES1    0.0000
      2 H1         2.7415   15.0091    7.4366 H         1 RES1    0.0000
      3 C2         2.2605   16.9225    7.9476 C.ar      1 RES1    0.0000
      4 H2         2.4007   17.2911    7.0826 H         1 RES1    0.0000
      5 C3         1.8567   17.7374    8.9704 C.ar      1 RES1    0.0000
      6 H3         1.7265   18.6661    8.8180 H         1 RES1    0.0000
      7 C4         1.6422   17.2024   10.2217 C.ar      1 RES1    0.0000
      8 H4         1.3453   17.7625   10.9299 H         1 RES1    0.0000
      9 C5         1.8527   15.8647   10.4522 C.ar      1 RES1    0.0000
     10 H5         1.7094   15.5095   11.3217 H         1 RES1    0.0000
     11 C6         2.2757   15.0214    9.4223 C.ar      1 RES1    0.0000
     12 C7         2.4998   13.6320    9.7815 C.2       1 RES1    0.0000
     13 H6         2.3869   13.4052   10.6976 H         1 RES1    0.0000
     14 C8         2.9865   11.3220    9.5179 C.2       1 RES1    0.0000
     15 C9         4.0579   10.8944   10.1697 C.2       1 RES1    0.0000
     16 H7         4.0147    9.9838   10.4367 H         1 RES1    0.0000
     17 C10        5.2958   11.5755   10.5522 C.ar      1 RES1    0.0000
     18 C11        5.7883   12.7346    9.9575 C.ar      1 RES1    0.0000
     19 H8         5.2998   13.1558    9.2600 H         1 RES1    0.0000
     20 C12        6.9910   13.2738   10.3835 C.ar      1 RES1    0.0000
     21 H9         7.3205   14.0679    9.9783 H         1 RES1    0.0000
     22 C13        7.7147   12.6666   11.3906 C.ar      1 RES1    0.0000
     23 H10        8.5330   13.0482   11.6860 H         1 RES1    0.0000
     24 C14        7.2502   11.5102   11.9639 C.ar      1 RES1    0.0000
     25 H11        7.7537   11.0839   12.6468 H         1 RES1    0.0000
     26 C15        6.0524   10.9669   11.5498 C.ar      1 RES1    0.0000
     27 H12        5.7389   10.1649   11.9510 H         1 RES1    0.0000
     28 C16        1.8624   10.4015    9.2521 C.2       1 RES1    0.0000
     29 C17       -0.3423   10.1663    8.4812 C.3       1 RES1    0.0000
     30 H13       -0.1256    9.5158    7.7804 H         1 RES1    0.0000
     31 H14       -1.0934   10.7235    8.1887 H         1 RES1    0.0000
     32 H15       -0.5883    9.6918    9.3019 H         1 RES1    0.0000
     33 N1         2.8387   12.6659    8.9801 N.pl3     1 RES1    1.0000
     34 O1         3.0544   12.7639    7.7063 O.2       1 RES1   -1.0000
     35 O2         0.8080   11.0029    8.7347 O.3       1 RES1    0.0000
     36 O3         1.8952    9.2266    9.5011 O.2       1 RES1    0.0000
@<TRIPOS>BOND
     1    1    2 1
     2    3    1 ar
     3    4    3 1
     4    5    3 ar
     5    6    5 1
     6    7    5 ar
     7    8    7 1
     8    9    7 ar
     9   10    9 1
    10   11    1 ar
    11   12   11 1
    12   13   12 1
    13   14   15 2
    14   15   16 1
    15   17   15 1
    16   18   17 ar
    17   19   18 1
    18   20   18 ar
    19   21   20 1
    20   22   20 ar
    21   23   22 1
    22   24   22 ar
    23   25   24 1
    24   26   17 ar
    25   27   26 1
    26   28   14 1
    27   29   30 1
    28   31   29 1
    29   32   29 1
    30   33   12 2
    31   34   33 1
    32   35   28 1
    33   36   28 2
    34    9   11 ar
    35   14   33 1
    36   24   26 ar
    37   29   35 1
@<TRIPOS>SUBSTRUCTURE
     1 RES1 1

@<TRIPOS>CRYSIN
   8.4060   17.0810   10.2590  90.0000  94.1550  90.0000  14 1

