# MOL2 file generated by ConQuest
# Please check atom types

@<TRIPOS>MOLECULE
KENCEM
    31    32     1
SMALL
NO_CHARGES
****
Generated from CSD

@<TRIPOS>ATOM
      1 O1         4.0224    2.9849    2.2846 O.2       1 RES1    0.0000
      2 O2         4.5022    3.2447    4.3730 O.2       1 RES1    0.0000
      3 O3         2.5793    8.1040    3.1945 O.2       1 RES1    0.0000
      4 N1        -0.0755    2.8273    6.3043 N.3       1 RES1    0.0000
      5 N2         3.7443    2.9218    3.4850 N.pl3     1 RES1    0.0000
      6 N3         1.7514    6.8262    4.8426 N.am      1 RES1    0.0000
      7 C1         0.7374    3.8413    6.7194 C.2       1 RES1    0.0000
      8 C2         1.8510    3.9398    5.9193 C.2       1 RES1    0.0000
      9 C3         1.7212    2.8943    4.9557 C.ar      1 RES1    0.0000
     10 C4         2.4123    2.4021    3.8374 C.ar      1 RES1    0.0000
     11 C5         1.9158    1.3960    3.0423 C.ar      1 RES1    0.0000
     12 C6         0.7024    0.7954    3.3450 C.ar      1 RES1    0.0000
     13 C7        -0.0199    1.2168    4.4348 C.ar      1 RES1    0.0000
     14 C8         0.4847    2.2308    5.1991 C.ar      1 RES1    0.0000
     15 C9         2.8844    5.0089    6.0715 C.3       1 RES1    0.0000
     16 C10        2.9408    5.9933    4.9150 C.3       1 RES1    0.0000
     17 C11        1.6757    7.8598    3.9945 C.2       1 RES1    0.0000
     18 C12        0.4273    8.7084    4.0686 C.3       1 RES1    0.0000
     19 H1        -0.8326    2.5458    6.6299 H         1 RES1    0.0000
     20 H2         1.2365    6.7494    5.4172 H         1 RES1    0.0000
     21 H3         0.5615    4.3926    7.4470 H         1 RES1    0.0000
     22 H4         2.3965    1.1183    2.2968 H         1 RES1    0.0000
     23 H5         0.3784    0.1063    2.8103 H         1 RES1    0.0000
     24 H6        -0.8333    0.8210    4.6472 H         1 RES1    0.0000
     25 H7         3.7538    4.5895    6.1651 H         1 RES1    0.0000
     26 H8         2.7060    5.4991    6.8895 H         1 RES1    0.0000
     27 H9         3.7203    6.5604    5.0184 H         1 RES1    0.0000
     28 H10        3.0363    5.5031    4.0840 H         1 RES1    0.0000
     29 H11       -0.1558    8.3619    4.7482 H         1 RES1    0.0000
     30 H12       -0.0227    8.6907    3.2205 H         1 RES1    0.0000
     31 H13        0.6675    9.6141    4.2834 H         1 RES1    0.0000
@<TRIPOS>BOND
     1    1    5 2
     2    2    5 2
     3    3   17 2
     4    4    7 1
     5    5   10 1
     6    6   16 1
     7    7    8 2
     8    8    9 1
     9    9   10 ar
    10   10   11 ar
    11   11   12 ar
    12   12   13 ar
    13   13   14 ar
    14   14    4 1
    15   15    8 1
    16   16   15 1
    17   17    6 1
    18   18   17 1
    19   19    4 1
    20   20    6 1
    21   21    7 1
    22   22   11 1
    23   23   12 1
    24   24   13 1
    25   25   15 1
    26   26   15 1
    27   27   16 1
    28   28   16 1
    29   29   18 1
    30   30   18 1
    31   31   18 1
    32    9   14 ar
@<TRIPOS>SUBSTRUCTURE
     1 RES1 1

@<TRIPOS>CRYSIN
   7.3990   19.6890    8.5760  90.0000 108.3740  90.0000 231 1

