# MOL2 file generated by ConQuest
# Please check atom types

@<TRIPOS>MOLECULE
KENHOC
    51    54     1
SMALL
NO_CHARGES
****
Generated from CSD

@<TRIPOS>ATOM
      1 C1        -6.6782   -0.0254   18.7015 C.ar      1 RES1    0.0000
      2 H1        -7.5359   -0.1112   19.0506 H         1 RES1    0.0000
      3 C2        -5.7709   -1.0487   18.8686 C.ar      1 RES1    0.0000
      4 H2        -6.0198   -1.8177   19.3285 H         1 RES1    0.0000
      5 C3        -4.5094   -0.9397   18.3636 C.ar      1 RES1    0.0000
      6 H3        -3.9007   -1.6309   18.4850 H         1 RES1    0.0000
      7 C4        -4.1343    0.1994   17.6706 C.ar      1 RES1    0.0000
      8 H4        -3.2757    0.2693   17.3201 H         1 RES1    0.0000
      9 C5        -5.0446    1.2394   17.4982 C.ar      1 RES1    0.0000
     10 H5        -4.7906    2.0057   17.0356 H         1 RES1    0.0000
     11 C6        -6.3271    1.1354   18.0155 C.ar      1 RES1    0.0000
     12 C7        -7.3571    2.2282   17.8458 C.3       1 RES1    0.0000
     13 H6        -7.9021    2.0297   17.0691 H         1 RES1    0.0000
     14 H7        -7.9377    2.2372   18.6222 H         1 RES1    0.0000
     15 C8        -6.6810    4.3146   16.5054 C.2       1 RES1    0.0000
     16 C9        -7.3204    3.8923   15.2452 C.ar      1 RES1    0.0000
     17 C10       -7.1126    2.6333   14.6723 C.ar      1 RES1    0.0000
     18 H8        -6.5596    2.0217   15.1009 H         1 RES1    0.0000
     19 C11       -7.7171    2.2848   13.4824 C.ar      1 RES1    0.0000
     20 H9        -7.5723    1.4361   13.1311 H         1 RES1    0.0000
     21 C12       -8.5354    3.1706   12.7986 C.ar      1 RES1    0.0000
     22 C13       -9.1735    2.7896   11.4846 C.3       1 RES1    0.0000
     23 H10       -8.6126    3.0784   10.7613 H         1 RES1    0.0000
     24 H11      -10.0326    3.2114   11.4123 H         1 RES1    0.0000
     25 H12       -9.2808    1.8361   11.4458 H         1 RES1    0.0000
     26 C14       -8.7413    4.4258   13.3592 C.ar      1 RES1    0.0000
     27 H13       -9.2844    5.0394   12.9186 H         1 RES1    0.0000
     28 C15       -8.1540    4.7800   14.5635 C.ar      1 RES1    0.0000
     29 H14       -8.3177    5.6216   14.9235 H         1 RES1    0.0000
     30 C16       -6.0356    5.4865   16.8171 C.2       1 RES1    0.0000
     31 C17       -5.6926    5.4296   18.2130 C.2       1 RES1    0.0000
     32 C18       -4.9978    6.3790   19.0070 C.1       1 RES1    0.0000
     33 C19       -6.1698    4.2258   18.7079 C.2       1 RES1    0.0000
     34 C20       -5.7814    6.6411   15.9284 C.ar      1 RES1    0.0000
     35 C21       -6.0081    7.9301   16.4048 C.ar      1 RES1    0.0000
     36 H15       -6.3261    8.0468   17.2716 H         1 RES1    0.0000
     37 C22       -5.7702    9.0403   15.6139 C.ar      1 RES1    0.0000
     38 H16       -5.9247    9.8977   15.9394 H         1 RES1    0.0000
     39 C23       -5.3000    8.8481   14.3389 C.ar      1 RES1    0.0000
     40 C24       -5.0811    7.5849   13.8156 C.ar      1 RES1    0.0000
     41 H17       -4.7759    7.4783   12.9437 H         1 RES1    0.0000
     42 C25       -5.3253    6.4845   14.6186 C.ar      1 RES1    0.0000
     43 H18       -5.1842    5.6296   14.2809 H         1 RES1    0.0000
     44 N1        -6.7613    3.5522   17.6818 N.pl3     1 RES1    0.0000
     45 N2        -6.1925    3.7640   19.9926 N.3       1 RES1    0.0000
     46 H19       -6.5909    3.0234   20.1770 H         1 RES1    0.0000
     47 H20       -5.8085    4.2131   20.6171 H         1 RES1    0.0000
     48 N3        -4.4637    7.1287   19.6881 N.1       1 RES1    0.0000
     49 N4        -5.0454   10.0308   13.5021 N.pl3     1 RES1    0.0000
     50 O1        -5.1682   11.1341   14.0136 O.2       1 RES1    0.0000
     51 O2        -4.7502    9.8597   12.3289 O.2       1 RES1    0.0000
@<TRIPOS>BOND
     1    1    2 1
     2    3    1 ar
     3    4    3 1
     4    5    3 ar
     5    6    5 1
     6    7    5 ar
     7    8    7 1
     8    9    7 ar
     9   10    9 1
    10   11    1 ar
    11   12   11 1
    12   13   12 1
    13   14   12 1
    14   15   16 1
    15   16   17 ar
    16   17   18 1
    17   19   17 ar
    18   20   19 1
    19   21   19 ar
    20   22   21 1
    21   23   22 1
    22   24   22 1
    23   25   22 1
    24   26   21 ar
    25   27   26 1
    26   28   16 ar
    27   29   28 1
    28   30   15 2
    29   31   30 1
    30   32   31 1
    31   33   31 2
    32   34   30 1
    33   35   34 ar
    34   36   35 1
    35   37   35 ar
    36   38   37 1
    37   39   37 ar
    38   40   39 ar
    39   41   40 1
    40   42   34 ar
    41   43   42 1
    42   44   12 1
    43   45   33 1
    44   46   45 1
    45   47   45 1
    46   48   32 3
    47   49   39 1
    48   50   49 2
    49   51   49 2
    50    9   11 ar
    51   15   44 1
    52   26   28 ar
    53   33   44 1
    54   40   42 ar
@<TRIPOS>SUBSTRUCTURE
     1 RES1 1

@<TRIPOS>CRYSIN
  21.7160   11.4610   18.7620  90.0000 116.8720  90.0000  15 1

