# MOL2 file generated by ConQuest
# Please check atom types

@<TRIPOS>MOLECULE
KENHIW
    51    54     1
SMALL
NO_CHARGES
****
Generated from CSD

@<TRIPOS>ATOM
      1 C1         2.6981   11.0624    8.5834 C.ar      1 RES1    0.0000
      2 H1         1.8904   10.7500    8.2453 H         1 RES1    0.0000
      3 C2         2.7262   11.8041    9.7561 C.ar      1 RES1    0.0000
      4 H2         1.9282   11.9861   10.1965 H         1 RES1    0.0000
      5 C3         3.9166   12.2795   10.2863 C.ar      1 RES1    0.0000
      6 C4         3.9426   13.0565   11.5813 C.3       1 RES1    0.0000
      7 H3         4.4333   13.8711   11.4565 H         1 RES1    0.0000
      8 H4         4.3651   12.5294   12.2629 H         1 RES1    0.0000
      9 H5         3.0433   13.2628   11.8489 H         1 RES1    0.0000
     10 C5         5.0836   12.0193    9.5952 C.ar      1 RES1    0.0000
     11 H6         5.8903   12.3392    9.9289 H         1 RES1    0.0000
     12 C6         5.0772   11.2893    8.4117 C.ar      1 RES1    0.0000
     13 H7         5.8706   11.1364    7.9513 H         1 RES1    0.0000
     14 C7         3.8794   10.7915    7.9228 C.ar      1 RES1    0.0000
     15 C8         4.3358    8.6370    6.8037 C.2       1 RES1    0.0000
     16 C9         3.9838    8.0247    5.6134 C.2       1 RES1    0.0000
     17 C10        4.2998    6.6794    5.2967 C.1       1 RES1    0.0000
     18 C11        3.2851    9.0022    4.8128 C.2       1 RES1    0.0000
     19 C12        2.8157    8.7819    3.4302 C.ar      1 RES1    0.0000
     20 C13        2.2578    7.5548    3.0747 C.ar      1 RES1    0.0000
     21 H8         2.1656    6.8925    3.7200 H         1 RES1    0.0000
     22 C14        1.8382    7.3030    1.7813 C.ar      1 RES1    0.0000
     23 H9         1.4769    6.4790    1.5480 H         1 RES1    0.0000
     24 C15        1.9701    8.3104    0.8449 C.ar      1 RES1    0.0000
     25 C16        2.5113    9.5434    1.1526 C.ar      1 RES1    0.0000
     26 H10        2.5832   10.2067    0.5040 H         1 RES1    0.0000
     27 C17        2.9440    9.7697    2.4445 C.ar      1 RES1    0.0000
     28 H11        3.3253   10.5885    2.6640 H         1 RES1    0.0000
     29 C18        3.2164   10.1589    5.5474 C.2       1 RES1    0.0000
     30 C19        2.5947   11.4497    5.1958 C.ar      1 RES1    0.0000
     31 C20        1.3264   11.4636    4.6235 C.ar      1 RES1    0.0000
     32 H12        0.8359   10.6746    4.5756 H         1 RES1    0.0000
     33 C21        0.7843   12.6367    4.1246 C.ar      1 RES1    0.0000
     34 H13       -0.0576   12.6184    3.7284 H         1 RES1    0.0000
     35 C22        1.4689   13.8327    4.2051 C.ar      1 RES1    0.0000
     36 C23        0.9172   15.0988    3.5916 C.3       1 RES1    0.0000
     37 H14        0.0090   14.9516    3.3156 H         1 RES1    0.0000
     38 H15        1.4473   15.3425    2.8296 H         1 RES1    0.0000
     39 H16        0.9434   15.8059    4.2396 H         1 RES1    0.0000
     40 C24        2.7066   13.8268    4.8293 C.ar      1 RES1    0.0000
     41 H17        3.1687   14.6287    4.9260 H         1 RES1    0.0000
     42 C25        3.2747   12.6568    5.3133 C.ar      1 RES1    0.0000
     43 H18        4.1123   12.6803    5.7169 H         1 RES1    0.0000
     44 N1         3.8815    9.9322    6.7682 N.pl3     1 RES1    0.0000
     45 N2         5.0488    8.1337    7.8560 N.3       1 RES1    0.0000
     46 H19        5.2294    8.6341    8.5321 H         1 RES1    0.0000
     47 H20        5.3167    7.3166    7.8421 H         1 RES1    0.0000
     48 N3         4.5494    5.5816    5.0749 N.1       1 RES1    0.0000
     49 N4         1.5266    8.0544   -0.5260 N.pl3     1 RES1    0.0000
     50 O1         1.3841    9.0191   -1.2737 O.2       1 RES1    0.0000
     51 O2         1.3038    6.9032   -0.8730 O.2       1 RES1    0.0000
@<TRIPOS>BOND
     1    1    2 1
     2    3    1 ar
     3    4    3 1
     4    5    3 ar
     5    6    5 1
     6    7    6 1
     7    8    6 1
     8    9    6 1
     9   10    5 ar
    10   11   10 1
    11   12   10 ar
    12   13   12 1
    13   14    1 ar
    14   15   16 2
    15   16   17 1
    16   17   48 3
    17   18   16 1
    18   19   18 1
    19   20   19 ar
    20   21   20 1
    21   22   20 ar
    22   23   22 1
    23   24   22 ar
    24   25   24 ar
    25   26   25 1
    26   27   19 ar
    27   28   27 1
    28   29   18 2
    29   30   29 1
    30   31   30 ar
    31   32   31 1
    32   33   31 ar
    33   34   33 1
    34   35   33 ar
    35   36   35 1
    36   37   36 1
    37   38   36 1
    38   39   36 1
    39   40   35 ar
    40   41   40 1
    41   42   30 ar
    42   43   42 1
    43   44   14 1
    44   45   15 1
    45   46   45 1
    46   47   45 1
    47   49   24 1
    48   50   49 2
    49   51   49 2
    50   12   14 ar
    51   15   44 1
    52   25   27 ar
    53   29   44 1
    54   40   42 ar
@<TRIPOS>SUBSTRUCTURE
     1 RES1 1

@<TRIPOS>CRYSIN
  11.7035   15.0920   14.2500  90.0000 122.6360  90.0000  14 1

