# MOL2 file generated by ConQuest
# Please check atom types

@<TRIPOS>MOLECULE
KENMOF
    34    34     1
SMALL
NO_CHARGES
****
Generated from CSD

@<TRIPOS>ATOM
      1 C1         3.2547   -0.8647   -0.9892 C.2       1 RES1    0.0000
      2 C2         2.5605    0.3993   -1.2230 C.2       1 RES1    0.0000
      3 C3         2.1670    1.2431   -0.1689 C.2       1 RES1    0.0000
      4 C4         2.4604    1.0508    1.3858 C.3       1 RES1    0.0000
      5 C5         3.3095   -0.2123    1.6698 C.3       1 RES1    0.0000
      6 C6         3.1436   -1.3379    0.5705 C.3       1 RES1    0.0000
      7 O1         3.7412   -1.5093   -1.9624 O.2       1 RES1    0.0000
      8 C7         2.3864    0.6629   -2.7092 C.1       1 RES1    0.0000
      9 N1         2.2527    0.8760   -3.8893 N.1       1 RES1    0.0000
     10 C8         1.5109    2.5218   -0.5264 C.3       1 RES1    0.0000
     11 N2         1.2090    0.8508    2.2611 N.pl3     1 RES1    0.0000
     12 O2         1.1061    1.1448    3.5625 O.2       1 RES1    0.0000
     13 O3         0.3032    0.4854    1.6221 O.2       1 RES1    0.0000
     14 C9         3.0016    2.3522    1.9845 C.3       1 RES1    0.0000
     15 N3         4.6558    0.3680    1.2928 N.pl3     1 RES1    0.0000
     16 O4         4.9356    0.6307    0.0380 O.2       1 RES1    0.0000
     17 O5         5.2942    0.5785    2.2979 O.2       1 RES1    0.0000
     18 C10        3.2102   -0.6855    3.2258 C.3       1 RES1    0.0000
     19 N4         4.1522   -2.4357    0.6562 N.pl3     1 RES1    0.0000
     20 O6         5.1785   -2.0817    0.9733 O.2       1 RES1    0.0000
     21 O7         3.8930   -3.5692    0.3452 O.2       1 RES1    0.0000
     22 C11        1.8851   -2.0417    0.8178 C.3       1 RES1    0.0000
     23 H1         0.8453    2.6662    0.1787 H         1 RES1    0.0000
     24 H2         1.0538    2.3748   -1.3809 H         1 RES1    0.0000
     25 H3         2.0890    3.3100   -0.5962 H         1 RES1    0.0000
     26 H4         3.7484    2.6323    1.4152 H         1 RES1    0.0000
     27 H5         3.3340    2.1521    2.8843 H         1 RES1    0.0000
     28 H6         2.3402    3.0742    2.0334 H         1 RES1    0.0000
     29 H7         2.3932   -1.1874    3.4266 H         1 RES1    0.0000
     30 H8         3.3548   -0.0052    3.9163 H         1 RES1    0.0000
     31 H9         3.9735   -1.2988    3.2062 H         1 RES1    0.0000
     32 H10        1.1342   -1.4232    0.6990 H         1 RES1    0.0000
     33 H11        1.8193   -2.4696    1.6968 H         1 RES1    0.0000
     34 H12        1.8579   -2.7271    0.1175 H         1 RES1    0.0000
@<TRIPOS>BOND
     1    1    2 1
     2    2    3 2
     3    3    4 1
     4    4    5 1
     5    5    6 1
     6    6    1 1
     7    7    1 2
     8    8    2 1
     9    9    8 3
    10   10    3 1
    11   11    4 1
    12   12   11 2
    13   13   11 2
    14   14    4 1
    15   15    5 1
    16   16   15 2
    17   17   15 2
    18   18    5 1
    19   19    6 1
    20   20   19 2
    21   21   19 2
    22   22    6 1
    23   23   10 1
    24   24   10 1
    25   25   10 1
    26   26   14 1
    27   27   14 1
    28   28   14 1
    29   29   18 1
    30   30   18 1
    31   31   18 1
    32   32   22 1
    33   33   22 1
    34   34   22 1
@<TRIPOS>SUBSTRUCTURE
     1 RES1 1

@<TRIPOS>CRYSIN
  12.6450    8.6990   13.6440  90.0000 116.2000  90.0000  14 1

