# MOL2 file generated by ConQuest
# Please check atom types

@<TRIPOS>MOLECULE
KENMIZ
    33    33     1
SMALL
NO_CHARGES
****
Generated from CSD

@<TRIPOS>ATOM
      1 C1        -2.9545    6.0786    1.8024 C.2       1 RES1    0.0000
      2 C2        -2.5581    5.8345    0.4084 C.2       1 RES1    0.0000
      3 C3        -1.6046    4.9860    0.0173 C.2       1 RES1    0.0000
      4 C4        -0.8363    4.1418    1.0250 C.3       1 RES1    0.0000
      5 C5        -1.2338    4.3532    2.5183 C.3       1 RES1    0.0000
      6 C6        -1.9172    5.7139    2.8621 C.3       1 RES1    0.0000
      7 O1        -3.9740    6.6617    2.1036 O.2       1 RES1    0.0000
      8 C7        -3.3174    6.5553   -0.5819 C.1       1 RES1    0.0000
      9 N1        -3.8646    7.1229   -1.4224 N.1       1 RES1    0.0000
     10 C8        -1.2852    4.7945   -1.4287 C.3       1 RES1    0.0000
     11 C9        -0.8620    2.6746    0.5913 C.3       1 RES1    0.0000
     12 N2         0.6487    4.6256    0.8704 N.pl3     1 RES1    0.0000
     13 O2         0.8486    5.7778    0.5724 O.2       1 RES1    0.0000
     14 O3         1.5275    3.7913    1.0329 O.2       1 RES1    0.0000
     15 C10       -0.1195    4.0183    3.4802 C.3       1 RES1    0.0000
     16 N3        -2.3862    3.3259    2.7548 N.pl3     1 RES1    0.0000
     17 O4        -2.1952    2.3880    3.4976 O.2       1 RES1    0.0000
     18 O5        -3.4235    3.5316    2.1162 O.2       1 RES1    0.0000
     19 C11       -0.9290    6.8802    2.9441 C.3       1 RES1    0.0000
     20 O6        -2.5615    5.5082    4.1126 O.3       1 RES1    0.0000
     21 H1        -0.5829    4.1460   -1.5186 H         1 RES1    0.0000
     22 H2        -0.9994    5.6288   -1.8071 H         1 RES1    0.0000
     23 H3        -2.0679    4.4837   -1.8907 H         1 RES1    0.0000
     24 H4        -1.7553    2.3313    0.6749 H         1 RES1    0.0000
     25 H5        -0.2702    2.1638    1.1496 H         1 RES1    0.0000
     26 H6        -0.5784    2.6065   -0.3233 H         1 RES1    0.0000
     27 H7         0.6085    4.6299    3.3509 H         1 RES1    0.0000
     28 H8         0.1820    3.1216    3.3225 H         1 RES1    0.0000
     29 H9        -0.4422    4.0921    4.3822 H         1 RES1    0.0000
     30 H10       -0.5014    6.9980    2.0925 H         1 RES1    0.0000
     31 H11       -0.2646    6.6901    3.6127 H         1 RES1    0.0000
     32 H12       -1.3991    7.6819    3.1806 H         1 RES1    0.0000
     33 H13       -2.4063    6.2730    4.5162 H         1 RES1    0.0000
@<TRIPOS>BOND
     1    1    2 1
     2    2    3 2
     3    3    4 1
     4    4    5 1
     5    5    6 1
     6    6    1 1
     7    7    1 2
     8    8    2 1
     9    9    8 3
    10   10    3 1
    11   11    4 1
    12   12    4 1
    13   13   12 2
    14   14   12 2
    15   15    5 1
    16   16    5 1
    17   17   16 2
    18   18   16 2
    19   19    6 1
    20   20    6 1
    21   21   10 1
    22   22   10 1
    23   23   10 1
    24   24   11 1
    25   25   11 1
    26   26   11 1
    27   27   15 1
    28   28   15 1
    29   29   15 1
    30   30   19 1
    31   31   19 1
    32   32   19 1
    33   33   20 1
@<TRIPOS>SUBSTRUCTURE
     1 RES1 1

@<TRIPOS>CRYSIN
  11.1660   14.1890   15.7690  90.0000  90.0000  90.0000  61 1

