# MOL2 file generated by ConQuest
# Please check atom types

@<TRIPOS>MOLECULE
KENMUL
    27    27     1
SMALL
NO_CHARGES
****
Generated from CSD

@<TRIPOS>ATOM
      1 O1         0.0438   10.6896    2.7723 O.2       1 RES1    0.0000
      2 O2         2.7254   12.1813   -2.2136 O.2       1 RES1    0.0000
      3 O3         2.0034   14.0300   -1.3365 O.2       1 RES1    0.0000
      4 O4         1.2642    9.5681   -1.4622 O.2       1 RES1    0.0000
      5 O5         0.2096   11.2096   -0.5153 O.2       1 RES1    0.0000
      6 O6         1.6039    8.9826    1.3784 O.3       1 RES1    0.0000
      7 N1        -0.0196   14.1102    3.8127 N.1       1 RES1    0.0000
      8 N2         2.4444   12.8898   -1.2583 N.pl3     1 RES1    0.0000
      9 N3         1.2044   10.5078   -0.6969 N.pl3     1 RES1    0.0000
     10 C1         0.9810   11.1628    2.1885 C.2       1 RES1    0.0000
     11 C2         1.2228   12.6318    2.0851 C.2       1 RES1    0.0000
     12 C3         2.0196   13.1438    1.1466 C.2       1 RES1    0.0000
     13 C4         2.7645   12.3137    0.1383 C.3       1 RES1    0.0000
     14 C5         2.4179   10.8099    0.1550 C.3       1 RES1    0.0000
     15 C6         2.0737   10.2926    1.5656 C.3       1 RES1    0.0000
     16 C7         0.5354   13.4659    3.0390 C.1       1 RES1    0.0000
     17 C8         4.2844   12.5316    0.2654 C.3       1 RES1    0.0000
     18 C9         3.2792   10.3100    2.5041 C.3       1 RES1    0.0000
     19 H1         1.4508    8.0349    1.3966 H         1 RES1    0.0000
     20 H2         2.1232   14.0968    1.1103 H         1 RES1    0.0000
     21 H3         3.2066   10.3781   -0.1816 H         1 RES1    0.0000
     22 H4         4.5837   12.2041    1.1173 H         1 RES1    0.0000
     23 H5         4.4801   13.4686    0.1955 H         1 RES1    0.0000
     24 H6         4.7357   12.0570   -0.4357 H         1 RES1    0.0000
     25 H7         3.5820   11.2136    2.6200 H         1 RES1    0.0000
     26 H8         3.9861    9.7820    2.1242 H         1 RES1    0.0000
     27 H9         3.0282    9.9437    3.3546 H         1 RES1    0.0000
@<TRIPOS>BOND
     1    1   10 2
     2    2    8 2
     3    3    8 2
     4    4    9 2
     5    5    9 2
     6    6   15 1
     7    7   16 3
     8    8   13 1
     9    9   14 1
    10   10   11 1
    11   11   12 2
    12   12   13 1
    13   13   14 1
    14   14   15 1
    15   15   10 1
    16   16   11 1
    17   17   13 1
    18   18   15 1
    19   19    6 1
    20   20   12 1
    21   21   14 1
    22   22   17 1
    23   23   17 1
    24   24   17 1
    25   25   18 1
    26   26   18 1
    27   27   18 1
@<TRIPOS>SUBSTRUCTURE
     1 RES1 1

@<TRIPOS>CRYSIN
  11.5140   13.3670   13.9660  90.0000  90.0000  90.0000  61 1

