# MOL2 file generated by ConQuest
# Please check atom types

@<TRIPOS>MOLECULE
KENWIL
    45    45     2
SMALL
NO_CHARGES
****
Generated from CSD

@<TRIPOS>ATOM
      1 O1        18.6326   11.0143    1.4628 O.2       1 RES1    0.0000
      2 O2        16.8038   11.9376    2.0974 O.2       1 RES1    0.0000
      3 N1        16.4316   10.9866    4.5086 N.pl3     1 RES1    0.0000
      4 O3        17.6685   10.6925    4.4108 O.2       1 RES1    0.0000
      5 O4        16.0165   12.0842    4.9236 O.2       1 RES1    0.0000
      6 O5         8.5495    4.5119   -0.1696 O.2       1 RES1    0.0000
      7 O6         8.7677    3.9569    1.9146 O.2       1 RES1    0.0000
      8 O7        10.9556    2.8414    0.7400 O.2       1 RES1    0.0000
      9 O8        11.1119    2.0352    2.7593 O.2       1 RES1    0.0000
     10 N2        17.4997   10.9258    1.8247 N.pl3     1 RES1    0.0000
     11 N3         9.0655    4.6335    0.9364 N.pl3     1 RES1    0.0000
     12 N4        11.2032    2.9478    1.9379 N.pl3     1 RES1    0.0000
     13 C1        16.7981    9.6459    1.7887 C.ar      1 RES1    0.0000
     14 C2        17.0664    8.8683    0.6894 C.ar      1 RES1    0.0000
     15 H1        17.7630    9.0935    0.1166 H         1 RES1    0.0000
     16 C3        16.2856    7.7349    0.4373 C.ar      1 RES1    0.0000
     17 H2        16.4637    7.2049   -0.3070 H         1 RES1    0.0000
     18 C4        15.2637    7.4060    1.2811 C.ar      1 RES1    0.0000
     19 H3        14.7395    6.6606    1.0941 H         1 RES1    0.0000
     20 C5        14.9854    8.1818    2.4438 C.ar      1 RES1    0.0000
     21 C6        13.9457    7.7877    3.3407 C.ar      1 RES1    0.0000
     22 C7        13.6890    8.5385    4.4640 C.ar      1 RES1    0.0000
     23 H4        12.9818    8.3061    5.0213 H         1 RES1    0.0000
     24 C8        14.4755    9.6378    4.7778 C.ar      1 RES1    0.0000
     25 H5        14.3024   10.1285    5.5478 H         1 RES1    0.0000
     26 C9        15.5072   10.0025    3.9512 C.ar      1 RES1    0.0000
     27 C10       15.7802    9.3232    2.7353 C.ar      1 RES1    0.0000
     28 C11       10.0733    5.6783    1.1267 C.ar      1 RES1    0.0000
     29 C12        9.7244    6.8957    0.5762 C.ar      1 RES1    0.0000
     30 H6         8.9772    6.9654    0.0257 H         1 RES1    0.0000
     31 C13       10.4958    8.0120    0.8523 C.ar      1 RES1    0.0000
     32 H7        10.2749    8.8343    0.4785 H         1 RES1    0.0000
     33 C14       11.5748    7.9021    1.6652 C.ar      1 RES1    0.0000
     34 H8        12.0610    8.6672    1.8727 H         1 RES1    0.0000
     35 C15       11.9886    6.6552    2.2140 C.ar      1 RES1    0.0000
     36 C16       13.1325    6.5667    3.0646 C.ar      1 RES1    0.0000
     37 C17       13.5012    5.3700    3.5945 C.ar      1 RES1    0.0000
     38 H9        14.2207    5.3262    4.1827 H         1 RES1    0.0000
     39 C18       12.7962    4.1937    3.2584 C.ar      1 RES1    0.0000
     40 H10       13.0645    3.3777    3.6151 H         1 RES1    0.0000
     41 C19       11.7253    4.2411    2.4146 C.ar      1 RES1    0.0000
     42 C20       11.2260    5.4701    1.9104 C.ar      1 RES1    0.0000
     43 N5        16.4316   10.9866    4.5086 Du        2 SUP2    0.0000
     44 O9        17.6685   10.6925    4.4108 Du        2 SUP2    0.0000
     45 O10       16.0741   11.6355    5.4329 Du        2 SUP2    0.0000
@<TRIPOS>BOND
     1    1   10 2
     2    2   10 2
     3    3    4 2
     4    5    3 2
     5    6   11 2
     6    7   11 2
     7    8   12 2
     8    9   12 2
     9   10   13 1
    10   11   28 1
    11   12   41 1
    12   13   14 ar
    13   14   15 1
    14   16   14 ar
    15   17   16 1
    16   18   16 ar
    17   19   18 1
    18   20   18 ar
    19   21   20 ar
    20   22   21 ar
    21   23   22 1
    22   24   22 ar
    23   25   24 1
    24   26    3 1
    25   27   13 ar
    26   28   29 ar
    27   29   30 1
    28   31   29 ar
    29   32   31 1
    30   33   31 ar
    31   34   33 1
    32   35   33 ar
    33   36   21 1
    34   37   36 ar
    35   38   37 1
    36   39   37 ar
    37   40   39 1
    38   41   39 ar
    39   42   28 ar
    40   20   27 ar
    41   24   26 ar
    42   26   27 ar
    43   35   36 ar
    44   35   42 ar
    45   41   42 ar
@<TRIPOS>SUBSTRUCTURE
     1 RES1 1
     2 SUP2 43

@<TRIPOS>CRYSIN
  23.6960    8.9380   17.3120  90.0000  97.8600  90.0000  15 1

