# MOL2 file generated by ConQuest
# Please check atom types

@<TRIPOS>MOLECULE
KEPDUF
    34    36     1
SMALL
NO_CHARGES
****
Generated from CSD

@<TRIPOS>ATOM
      1 O1        -1.6211    4.2920    2.5973 O.3       1 RES1    0.0000
      2 O2         1.8194    9.4213    3.5596 O.2       1 RES1    0.0000
      3 O3         0.9147    9.4305    5.5198 O.2       1 RES1    0.0000
      4 N1        -0.7930    4.8954    3.5651 N.2       1 RES1    0.0000
      5 N2         1.1501    5.4520    5.4904 N.pl3     1 RES1    0.0000
      6 N3         0.4768    7.1452    6.6929 N.pl3     1 RES1    0.0000
      7 H1         0.2826    7.9557    6.9045 H         1 RES1    0.0000
      8 N4         1.4172    7.4784    4.4654 N.2       1 RES1    0.0000
      9 N5         1.3725    8.8227    4.5431 N.pl3     1 RES1    0.0000
     10 C1        -0.8931    3.3659    1.9280 C.2       1 RES1    0.0000
     11 C2         0.3608    3.3463    2.4203 C.2       1 RES1    0.0000
     12 H2         1.0679    2.8062    2.1483 H         1 RES1    0.0000
     13 C3         0.3677    4.3228    3.4381 C.2       1 RES1    0.0000
     14 C4         1.5301    4.7121    4.3078 C.3       1 RES1    0.0000
     15 H3         2.0010    3.9083    4.5795 H         1 RES1    0.0000
     16 H4         2.1448    5.2516    3.7853 H         1 RES1    0.0000
     17 C5         0.5210    4.8119    6.6392 C.3       1 RES1    0.0000
     18 H5         1.1140    4.1640    7.0511 H         1 RES1    0.0000
     19 H6        -0.3069    4.3733    6.3884 H         1 RES1    0.0000
     20 C6         0.2638    5.9947    7.5658 C.3       1 RES1    0.0000
     21 H7        -0.6426    5.9790    7.9099 H         1 RES1    0.0000
     22 H8         0.8865    5.9987    8.3094 H         1 RES1    0.0000
     23 C7         1.0034    6.7871    5.5394 C.2       1 RES1    0.0000
     24 C8        -1.5835    2.6136    0.8820 C.ar      1 RES1    0.0000
     25 C9        -2.9554    2.6889    0.7293 C.ar      1 RES1    0.0000
     26 H9        -3.4582    3.2161    1.3068 H         1 RES1    0.0000
     27 C10       -3.5823    1.9807   -0.2829 C.ar      1 RES1    0.0000
     28 H10       -4.5047    2.0426   -0.3844 H         1 RES1    0.0000
     29 C11       -2.8623    1.1935   -1.1328 C.ar      1 RES1    0.0000
     30 H11       -3.2911    0.7170   -1.8066 H         1 RES1    0.0000
     31 C12       -1.5103    1.1114   -0.9884 C.ar      1 RES1    0.0000
     32 H12       -1.0177    0.5782   -1.5688 H         1 RES1    0.0000
     33 C13       -0.8628    1.8121    0.0113 C.ar      1 RES1    0.0000
     34 H13        0.0606    1.7452    0.1004 H         1 RES1    0.0000
@<TRIPOS>BOND
     1    1    4 1
     2    2    9 2
     3    3    9 2
     4    4   13 2
     5    5   14 1
     6    6    7 1
     7    8    9 1
     8   10    1 1
     9   11   10 2
    10   12   11 1
    11   13   11 1
    12   14   13 1
    13   15   14 1
    14   16   14 1
    15   17    5 1
    16   18   17 1
    17   19   17 1
    18   20    6 1
    19   21   20 1
    20   22   20 1
    21   23    5 1
    22   24   10 1
    23   25   24 ar
    24   26   25 1
    25   27   25 ar
    26   28   27 1
    27   29   27 ar
    28   30   29 1
    29   31   29 ar
    30   32   31 1
    31   33   24 ar
    32   34   33 1
    33    6   23 1
    34    8   23 2
    35   17   20 1
    36   31   33 ar
@<TRIPOS>SUBSTRUCTURE
     1 RES1 1

@<TRIPOS>CRYSIN
   7.2405    7.9936   11.6573  97.8010  90.8840  96.2500   2 1

