# MOL2 file generated by ConQuest
# Please check atom types

@<TRIPOS>MOLECULE
KEPFER
    38    40     1
SMALL
NO_CHARGES
****
Generated from CSD

@<TRIPOS>ATOM
      1 O1         0.7808    8.8817    8.6202 O.3       1 RES1    0.0000
      2 O2        -3.9454    4.5414    9.4461 O.2       1 RES1    0.0000
      3 O3        -4.0253    5.5326   11.3455 O.2       1 RES1    0.0000
      4 O4         3.1070    7.3787    5.6277 O.3       1 RES1    0.0000
      5 N1         0.2979    7.9125    9.5158 N.2       1 RES1    0.0000
      6 N2        -0.0701    5.8193   11.2347 N.pl3     1 RES1    0.0000
      7 N3        -1.8064    6.2607   12.4646 N.pl3     1 RES1    0.0000
      8 H1        -2.6305    6.2992   12.7072 H         1 RES1    0.0000
      9 N4        -2.0547    5.2185   10.2774 N.2       1 RES1    0.0000
     10 N5        -3.3864    5.1030   10.3863 N.pl3     1 RES1    0.0000
     11 C1         1.7384    8.3202    7.8478 C.2       1 RES1    0.0000
     12 C2         1.9005    7.0281    8.2209 C.2       1 RES1    0.0000
     13 H2         2.4952    6.4076    7.8671 H         1 RES1    0.0000
     14 C3         0.9717    6.8286    9.2616 C.2       1 RES1    0.0000
     15 C4         0.6984    5.5743   10.0350 C.3       1 RES1    0.0000
     16 H3         0.2147    4.9522    9.4689 H         1 RES1    0.0000
     17 H4         1.5421    5.1611   10.2767 H         1 RES1    0.0000
     18 C5         0.5058    6.4846   12.3901 C.3       1 RES1    0.0000
     19 H5         0.9353    7.3172   12.1384 H         1 RES1    0.0000
     20 H6         1.1522    5.9159   12.8372 H         1 RES1    0.0000
     21 C6        -0.7035    6.7367   13.2692 C.3       1 RES1    0.0000
     22 H7        -0.6397    6.2411   14.1000 H         1 RES1    0.0000
     23 H8        -0.7995    7.6808   13.4686 H         1 RES1    0.0000
     24 C7        -1.4024    5.7628   11.3162 C.2       1 RES1    0.0000
     25 C8         2.3345    9.2148    6.8643 C.ar      1 RES1    0.0000
     26 C9         2.2085   10.5909    7.0084 C.ar      1 RES1    0.0000
     27 H9         1.7674   10.9294    7.7534 H         1 RES1    0.0000
     28 C10        2.7195   11.4619    6.0797 C.ar      1 RES1    0.0000
     29 H10        2.6142   12.3793    6.1888 H         1 RES1    0.0000
     30 C11        3.3899   10.9624    4.9847 C.ar      1 RES1    0.0000
     31 H11        3.7470   11.5491    4.3572 H         1 RES1    0.0000
     32 C12        3.5380    9.6051    4.8066 C.ar      1 RES1    0.0000
     33 H12        3.9891    9.2792    4.0624 H         1 RES1    0.0000
     34 C13        3.0127    8.7278    5.7370 C.ar      1 RES1    0.0000
     35 C14        3.6634    6.8640    4.4215 C.3       1 RES1    0.0000
     36 H13        3.1360    7.1577    3.6747 H         1 RES1    0.0000
     37 H14        3.6665    5.9049    4.4547 H         1 RES1    0.0000
     38 H15        4.5631    7.1836    4.3224 H         1 RES1    0.0000
@<TRIPOS>BOND
     1    1    5 1
     2    2   10 2
     3    3   10 2
     4    4   34 1
     5    5   14 2
     6    6   15 1
     7    7    8 1
     8    9   10 1
     9   11    1 1
    10   12   11 2
    11   13   12 1
    12   14   12 1
    13   15   14 1
    14   16   15 1
    15   17   15 1
    16   18    6 1
    17   19   18 1
    18   20   18 1
    19   21    7 1
    20   22   21 1
    21   23   21 1
    22   24    6 1
    23   25   11 1
    24   26   25 ar
    25   27   26 1
    26   28   26 ar
    27   29   28 1
    28   30   28 ar
    29   31   30 1
    30   32   30 ar
    31   33   32 1
    32   34   25 ar
    33   35    4 1
    34   36   35 1
    35   37   35 1
    36   38   35 1
    37    7   24 1
    38    9   24 2
    39   18   21 1
    40   32   34 ar
@<TRIPOS>SUBSTRUCTURE
     1 RES1 1

@<TRIPOS>CRYSIN
   7.8439    7.8544   23.5340  90.0000  99.4640  90.0000 231 1

