# MOL2 file generated by ConQuest
# Please check atom types

@<TRIPOS>MOLECULE
KEPFAN
    37    39     1
SMALL
NO_CHARGES
****
Generated from CSD

@<TRIPOS>ATOM
      1 C1         4.6065   17.1017    1.8987 C.2       1 RES1    0.0000
      2 C2         4.3134   18.0123    0.9606 C.2       1 RES1    0.0000
      3 H1         4.8446   18.2861    0.2489 H         1 RES1    0.0000
      4 C3         3.0228   18.4603    1.2919 C.2       1 RES1    0.0000
      5 C4         2.2137   19.4796    0.5366 C.3       1 RES1    0.0000
      6 H2         2.6289   20.3496    0.6401 H         1 RES1    0.0000
      7 H3         2.2279   19.2543   -0.4071 H         1 RES1    0.0000
      8 C5        -0.1628   18.5794    0.6073 C.3       1 RES1    0.0000
      9 H4         0.0997   17.6877    0.8854 H         1 RES1    0.0000
     10 H5        -0.3155   18.5797   -0.3508 H         1 RES1    0.0000
     11 C6        -1.3852   19.0412    1.3513 C.3       1 RES1    0.0000
     12 H6        -2.0508   19.3983    0.7430 H         1 RES1    0.0000
     13 H7        -1.7781   18.3171    1.8619 H         1 RES1    0.0000
     14 C7         0.3969   20.3473    1.9643 C.2       1 RES1    0.0000
     15 C8         5.7301   16.1840    2.0779 C.ar      1 RES1    0.0000
     16 C9         5.7555   15.2603    3.1097 C.ar      1 RES1    0.0000
     17 H8         5.0889   15.2685    3.7580 H         1 RES1    0.0000
     18 C10        6.7723   14.3280    3.1732 C.ar      1 RES1    0.0000
     19 H9         6.7733   13.7075    3.8671 H         1 RES1    0.0000
     20 C11        7.7891   14.2873    2.2387 C.ar      1 RES1    0.0000
     21 C12        7.7718   15.2344    1.2325 C.ar      1 RES1    0.0000
     22 H10        8.4578   15.2431    0.6042 H         1 RES1    0.0000
     23 C13        6.7540   16.1749    1.1368 C.ar      1 RES1    0.0000
     24 H11        6.7581   16.7957    0.4455 H         1 RES1    0.0000
     25 C14        8.8343   13.2017    2.2761 C.3       1 RES1    0.0000
     26 H12        8.5229   12.4401    1.7825 H         1 RES1    0.0000
     27 H13        8.9992   12.9482    3.1871 H         1 RES1    0.0000
     28 H14        9.6475   13.5269    1.8828 H         1 RES1    0.0000
     29 N1         2.5536   17.8678    2.3457 N.2       1 RES1    0.0000
     30 N2         0.8376   19.5603    0.9785 N.3       1 RES1    0.0000
     31 N3        -0.8722   20.0681    2.2198 N.pl3     1 RES1    0.0000
     32 H15       -1.3353   20.4540    2.8327 H         1 RES1    0.0000
     33 N4         1.2488   21.2303    2.4917 N.2       1 RES1    0.0000
     34 N5         0.7735   22.0430    3.4380 N.pl3     1 RES1    0.0000
     35 O1         3.5724   16.9817    2.7523 O.3       1 RES1    0.0000
     36 O2         1.5806   22.8367    3.9070 O.2       1 RES1    0.0000
     37 O3        -0.3939   22.0178    3.8317 O.2       1 RES1    0.0000
@<TRIPOS>BOND
     1    1    2 2
     2    2    3 1
     3    4    2 1
     4    5    4 1
     5    6    5 1
     6    7    5 1
     7    8    9 1
     8   10    8 1
     9   11    8 1
    10   12   11 1
    11   13   11 1
    12   14   30 1
    13   15    1 1
    14   16   15 ar
    15   17   16 1
    16   18   16 ar
    17   19   18 1
    18   20   18 ar
    19   21   20 ar
    20   22   21 1
    21   23   15 ar
    22   24   23 1
    23   25   20 1
    24   26   25 1
    25   27   25 1
    26   28   25 1
    27   29    4 2
    28   30    5 1
    29   31   11 1
    30   32   31 1
    31   33   14 2
    32   34   33 1
    33   35    1 1
    34   36   34 2
    35   37   34 2
    36    8   30 1
    37   14   31 1
    38   21   23 ar
    39   29   35 1
@<TRIPOS>SUBSTRUCTURE
     1 RES1 1

@<TRIPOS>CRYSIN
  10.1778   28.2280    5.1206  90.0000  90.0000  90.0000  33 1

