# MOL2 file generated by ConQuest
# Please check atom types

@<TRIPOS>MOLECULE
KEPKIZ
    15    17     1
SMALL
NO_CHARGES
****
Generated from CSD

@<TRIPOS>ATOM
      1 C1         1.6953    8.4170    2.0292 C.2       1 RES1    0.0000
      2 C2         2.2103    8.1000    3.3075 C.2       1 RES1    0.0000
      3 C3         1.5815    8.4648    4.5371 C.2       1 RES1    0.0000
      4 C4         0.4453    9.1736    4.4537 C.2       1 RES1    0.0000
      5 C5        -0.0906    9.5224    3.1592 C.2       1 RES1    0.0000
      6 N1         2.4035    7.9824    1.0407 N.2       1 RES1    0.0000
      7 N2         3.3078    7.4042    3.0780 N.pl3     1 RES1    0.0000
      8 N3         0.5210    9.1367    2.0142 N.pl3     1 RES1    0.0000
      9 N4        -0.1723    9.6131    0.9515 N.2       1 RES1    0.0000
     10 N5        -1.1737   10.2461    1.4614 N.2       1 RES1    0.0000
     11 N6        -1.1684   10.2082    2.8242 N.2       1 RES1    0.0000
     12 O1         3.4633    7.3225    1.6468 O.3       1 RES1    0.0000
     13 O2         4.1650    6.8699    3.7676 O.2       1 RES1    0.0000
     14 H1         1.9564    8.2166    5.3854 H         1 RES1    0.0000
     15 H2        -0.0113    9.4447    5.2533 H         1 RES1    0.0000
@<TRIPOS>BOND
     1    1    2 1
     2    2    3 1
     3    3    4 2
     4    4    5 1
     5    5    8 1
     6    6    1 2
     7    7    2 2
     8    8    1 1
     9    9    8 1
    10   10    9 2
    11   11    5 2
    12   12    6 1
    13   13    7 1
    14   14    3 1
    15   15    4 1
    16    7   12 1
    17   10   11 1
@<TRIPOS>SUBSTRUCTURE
     1 RES1 1

@<TRIPOS>CRYSIN
   5.9610    9.9680   11.5890  90.0000  90.0000  90.0000  19 1

