# MOL2 file generated by ConQuest
# Please check atom types

@<TRIPOS>MOLECULE
KEPVIK
    30    33     1
SMALL
NO_CHARGES
****
Generated from CSD

@<TRIPOS>ATOM
      1 O1         3.6694    1.8747   10.1365 O.2       1 RES1    0.0000
      2 O2         1.7553    2.7892   10.4619 O.2       1 RES1    0.0000
      3 O3         5.6723    5.6863   10.7142 O.2       1 RES1    0.0000
      4 O4         4.1361    4.3946   11.4748 O.2       1 RES1    0.0000
      5 N1         2.8491    2.7464    9.9390 N.pl3     1 RES1    0.0000
      6 N2         4.7086    4.9430   10.5607 N.pl3     1 RES1    0.0000
      7 C1         0.5982    2.7133    4.8433 C.ar      1 RES1    0.0000
      8 C2        -0.2183    1.7048    5.3132 C.ar      1 RES1    0.0000
      9 C3        -0.1054    1.2544    6.6150 C.ar      1 RES1    0.0000
     10 C4         0.8080    1.8263    7.4963 C.ar      1 RES1    0.0000
     11 C5         1.6114    2.8500    7.0392 C.ar      1 RES1    0.0000
     12 C6         1.5145    3.2866    5.6917 C.ar      1 RES1    0.0000
     13 C7         2.4843    4.3752    5.4851 C.ar      1 RES1    0.0000
     14 C8         3.1139    4.5852    6.7193 C.ar      1 RES1    0.0000
     15 C9         2.6307    3.6900    7.7029 C.ar      1 RES1    0.0000
     16 C10        3.1952    3.7743    8.9407 C.ar      1 RES1    0.0000
     17 C11        4.1871    4.7606    9.2003 C.ar      1 RES1    0.0000
     18 C12        4.6379    5.6034    8.2295 C.ar      1 RES1    0.0000
     19 C13        4.1156    5.5274    6.9240 C.ar      1 RES1    0.0000
     20 C14        4.5041    6.2900    5.7941 C.ar      1 RES1    0.0000
     21 C15        3.9101    6.0731    4.5947 C.ar      1 RES1    0.0000
     22 C16        2.8777    5.1226    4.4192 C.ar      1 RES1    0.0000
     23 H1         0.5414    2.9840    3.9310 H         1 RES1    0.0000
     24 H2        -0.8446    1.2986    4.7172 H         1 RES1    0.0000
     25 H3        -0.6413    0.5250    6.9661 H         1 RES1    0.0000
     26 H4         0.8733    1.5197    8.3556 H         1 RES1    0.0000
     27 H5         5.2232    6.2858    8.4836 H         1 RES1    0.0000
     28 H6         5.1802    6.9904    5.8873 H         1 RES1    0.0000
     29 H7         4.1777    6.5898    3.8213 H         1 RES1    0.0000
     30 H8         2.5323    5.0010    3.5287 H         1 RES1    0.0000
@<TRIPOS>BOND
     1    1    5 2
     2    2    5 2
     3    3    6 2
     4    4    6 2
     5    5   16 1
     6    6   17 1
     7    7    8 ar
     8    8    9 ar
     9    9   10 ar
    10   10   11 ar
    11   11   12 ar
    12   12    7 ar
    13   13   12 1
    14   14   13 ar
    15   15   11 1
    16   16   15 ar
    17   17   16 ar
    18   18   17 ar
    19   19   14 ar
    20   20   19 ar
    21   21   20 ar
    22   22   13 ar
    23   23    7 1
    24   24    8 1
    25   25    9 1
    26   26   10 1
    27   27   18 1
    28   28   20 1
    29   29   21 1
    30   30   22 1
    31   14   15 ar
    32   18   19 ar
    33   21   22 ar
@<TRIPOS>SUBSTRUCTURE
     1 RES1 1

@<TRIPOS>CRYSIN
   4.9680   13.8150   18.4440  90.0000  97.5600  90.0000 231 1

