# MOL2 file generated by ConQuest
# Please check atom types

@<TRIPOS>MOLECULE
KEQXOV
    38    37     1
SMALL
NO_CHARGES
****
Generated from CSD

@<TRIPOS>ATOM
      1 C1        -0.0014   11.3035    9.0631 C.2       1 RES1    0.0000
      2 C2        -0.1269   12.0731   10.2970 C.2       1 RES1    0.0000
      3 C3        -2.3890   11.5729    8.6250 C.3       1 RES1    0.0000
      4 H1        -2.3594   12.1168    9.4399 H         1 RES1    0.0000
      5 H2        -3.1083   10.9150    8.7278 H         1 RES1    0.0000
      6 C4        -2.6836   12.4417    7.4665 C.3       1 RES1    0.0000
      7 H3        -1.9731   13.0930    7.3624 H         1 RES1    0.0000
      8 H4        -3.5246   12.9020    7.6137 H         1 RES1    0.0000
      9 H5        -2.7472   11.9006    6.6650 H         1 RES1    0.0000
     10 C5        -1.1549    9.6075    7.6963 C.3       1 RES1    0.0000
     11 H6        -0.2438    9.2716    7.5650 H         1 RES1    0.0000
     12 H7        -1.5427    9.7809    6.8133 H         1 RES1    0.0000
     13 C6        -1.9715    8.5621    8.3983 C.3       1 RES1    0.0000
     14 H8        -1.6208    8.4240    9.2916 H         1 RES1    0.0000
     15 H9        -1.9281    7.7303    7.9013 H         1 RES1    0.0000
     16 H10       -2.8948    8.8564    8.4549 H         1 RES1    0.0000
     17 C7         2.4050   11.0940    9.4293 C.3       1 RES1    0.0000
     18 H11        2.1367   11.3050   10.3479 H         1 RES1    0.0000
     19 H12        3.0104   11.8011    9.1217 H         1 RES1    0.0000
     20 C8         3.1293    9.7823    9.4147 C.3       1 RES1    0.0000
     21 H13        2.5286    9.0780    9.7014 H         1 RES1    0.0000
     22 H14        3.8881    9.8247   10.0173 H         1 RES1    0.0000
     23 H15        3.4410    9.5952    8.5160 H         1 RES1    0.0000
     24 C9         1.4500   10.9646    7.1075 C.3       1 RES1    0.0000
     25 H16        0.5950   11.0371    6.6344 H         1 RES1    0.0000
     26 H17        1.8319   10.0847    6.9061 H         1 RES1    0.0000
     27 C10        2.3819   12.0335    6.6129 C.3       1 RES1    0.0000
     28 H18        2.0713   12.8993    6.9186 H         1 RES1    0.0000
     29 H19        2.4023   12.0213    5.6426 H         1 RES1    0.0000
     30 H20        3.2739   11.8700    6.9571 H         1 RES1    0.0000
     31 N1         0.3586   13.3750   10.3282 N.pl3     1 RES1    0.0000
     32 N2        -0.7566   11.4968   11.3945 N.pl3     1 RES1    0.0000
     33 N3        -1.1036   10.8687    8.4629 N.3       1 RES1    0.0000
     34 N4         1.2096   11.0694    8.5677 N.3       1 RES1    0.0000
     35 O1         0.6542   13.8670    9.2190 O.2       1 RES1    0.0000
     36 O2         0.5138   13.9912   11.3888 O.2       1 RES1    0.0000
     37 O3        -0.9209   10.2614   11.3417 O.2       1 RES1    0.0000
     38 O4        -1.1428   12.1658   12.3546 O.2       1 RES1    0.0000
@<TRIPOS>BOND
     1    1    2 2
     2    2   31 1
     3    3    4 1
     4    5    3 1
     5    6    3 1
     6    7    6 1
     7    8    6 1
     8    9    6 1
     9   10   11 1
    10   12   10 1
    11   13   10 1
    12   14   13 1
    13   15   13 1
    14   16   13 1
    15   17   18 1
    16   19   17 1
    17   20   17 1
    18   21   20 1
    19   22   20 1
    20   23   20 1
    21   24   25 1
    22   26   24 1
    23   27   24 1
    24   28   27 1
    25   29   27 1
    26   30   27 1
    27   31   35 2
    28   32    2 1
    29   33    1 1
    30   34    1 1
    31   36   31 2
    32   37   32 2
    33   38   32 2
    34    3   33 1
    35   10   33 1
    36   17   34 1
    37   24   34 1
@<TRIPOS>SUBSTRUCTURE
     1 RES1 1

@<TRIPOS>CRYSIN
   9.0758   13.2641   11.4729  90.0000  99.3180  90.0000 231 1

