# MOL2 file generated by ConQuest
# Please check atom types

@<TRIPOS>MOLECULE
KERHUN
    29    31     1
SMALL
NO_CHARGES
****
Generated from CSD

@<TRIPOS>ATOM
      1 C1         1.0042    3.7067   14.8683 C.3       1 RES1    0.0000
      2 H1         0.3685    4.3817   14.4934 H         1 RES1    0.0000
      3 C2         2.4254    4.0545   14.5141 C.2       1 RES1    0.0000
      4 C3         3.4718    3.0373   14.8578 C.3       1 RES1    0.0000
      5 H2         3.8555    3.2537   15.7445 H         1 RES1    0.0000
      6 H3         4.2024    3.0859   14.1912 H         1 RES1    0.0000
      7 C4         2.9108    1.6033   14.8875 C.3       1 RES1    0.0000
      8 H4         3.0042    1.1973   13.9893 H         1 RES1    0.0000
      9 H5         3.4379    1.0592   15.5245 H         1 RES1    0.0000
     10 C5         1.4480    1.5804   15.2985 C.3       1 RES1    0.0000
     11 H6         1.0910    0.6464   15.2880 H         1 RES1    0.0000
     12 C6         1.1594    2.2567   16.6383 C.3       1 RES1    0.0000
     13 H7         0.3778    1.8425   17.0828 H         1 RES1    0.0000
     14 H8         1.9419    2.1964   17.2415 H         1 RES1    0.0000
     15 C7         4.0845    6.5899   12.9049 C.ar      1 RES1    0.0000
     16 C8         5.3070    7.2330   13.0135 C.ar      1 RES1    0.0000
     17 H9         5.9565    6.9337   13.6387 H         1 RES1    0.0000
     18 C9         5.5664    8.3231   12.1917 C.ar      1 RES1    0.0000
     19 H10        6.3985    8.7770   12.2576 H         1 RES1    0.0000
     20 C10        4.6175    8.7536   11.2759 C.ar      1 RES1    0.0000
     21 H11        4.7997    9.4987   10.7159 H         1 RES1    0.0000
     22 C11        3.4028    8.0932   11.1795 C.ar      1 RES1    0.0000
     23 H12        2.7553    8.3895   10.5509 H         1 RES1    0.0000
     24 C12        3.1220    6.9990   11.9956 C.ar      1 RES1    0.0000
     25 H13        2.2901    6.5444   11.9300 H         1 RES1    0.0000
     26 N1         2.5652    5.2022   13.9748 N.2       1 RES1    0.0000
     27 O1         0.7092    2.4227   14.3865 O.3       1 RES1    0.0000
     28 O2         0.8840    3.6304   16.2861 O.3       1 RES1    0.0000
     29 O3         3.9420    5.4635   13.7087 O.3       1 RES1    0.0000
@<TRIPOS>BOND
     1    1    2 1
     2    3    1 1
     3    4    3 1
     4    5    4 1
     5    6    4 1
     6    7    4 1
     7    8    7 1
     8    9    7 1
     9   10    7 1
    10   11   10 1
    11   12   10 1
    12   13   12 1
    13   14   12 1
    14   15   16 ar
    15   16   17 1
    16   18   16 ar
    17   19   18 1
    18   20   18 ar
    19   21   20 1
    20   22   20 ar
    21   23   22 1
    22   24   15 ar
    23   25   24 1
    24   26    3 2
    25   27    1 1
    26   28    1 1
    27   29   15 1
    28   10   27 1
    29   12   28 1
    30   22   24 ar
    31   26   29 1
@<TRIPOS>SUBSTRUCTURE
     1 RES1 1

@<TRIPOS>CRYSIN
   5.9489    8.1059   22.3033  90.0000  90.0000  90.0000  19 1

