# MOL2 file generated by ConQuest
# Please check atom types

@<TRIPOS>MOLECULE
KERJID
    24    25     1
SMALL
NO_CHARGES
****
Generated from CSD

@<TRIPOS>ATOM
      1 C1         3.0977    8.9638    4.4907 C.3       1 RES1    0.0000
      2 H1         3.5147    8.8317    3.5915 H         1 RES1    0.0000
      3 C2         3.4022    7.7968    5.4071 C.2       1 RES1    0.0000
      4 C3         2.7530    7.8462    6.7580 C.3       1 RES1    0.0000
      5 H2         3.3376    8.3403    7.3858 H         1 RES1    0.0000
      6 H3         2.6424    6.9250    7.1033 H         1 RES1    0.0000
      7 C4         1.3773    8.5355    6.6906 C.3       1 RES1    0.0000
      8 H4         0.6899    7.8695    6.4370 H         1 RES1    0.0000
      9 H5         1.1442    8.8885    7.5857 H         1 RES1    0.0000
     10 C5         1.3677    9.6723    5.6857 C.3       1 RES1    0.0000
     11 H6         0.4783   10.1287    5.6663 H         1 RES1    0.0000
     12 C6         2.4967   10.6767    5.8983 C.3       1 RES1    0.0000
     13 H7         2.2356   11.5758    5.5760 H         1 RES1    0.0000
     14 H8         2.7413   10.7368    6.8557 H         1 RES1    0.0000
     15 C7         5.5207    5.1037    5.5277 C.2       1 RES1    0.0000
     16 C8         5.8660    4.1783    6.6485 C.3       1 RES1    0.0000
     17 H9         5.7642    3.2506    6.3493 H         1 RES1    0.0000
     18 H10        5.2668    4.3448    7.4059 H         1 RES1    0.0000
     19 H11        6.7933    4.3323    6.9255 H         1 RES1    0.0000
     20 N1         4.2256    6.9488    4.9260 N.2       1 RES1    0.0000
     21 O1         4.5199    5.9491    5.9218 O.3       1 RES1    0.0000
     22 O2         6.0333    5.1276    4.4482 O.2       1 RES1    0.0000
     23 O3         1.7102    9.1377    4.3805 O.3       1 RES1    0.0000
     24 O4         3.5936   10.1431    5.1149 O.3       1 RES1    0.0000
@<TRIPOS>BOND
     1    1    2 1
     2    3    1 1
     3    4    3 1
     4    5    4 1
     5    6    4 1
     6    7    4 1
     7    8    7 1
     8    9    7 1
     9   10    7 1
    10   11   10 1
    11   12   10 1
    12   13   12 1
    13   14   12 1
    14   15   16 1
    15   16   17 1
    16   18   16 1
    17   19   16 1
    18   20    3 2
    19   21   15 1
    20   22   15 2
    21   23    1 1
    22   24    1 1
    23   10   23 1
    24   12   24 1
    25   20   21 1
@<TRIPOS>SUBSTRUCTURE
     1 RES1 1

@<TRIPOS>CRYSIN
   5.6704   15.6773    9.7844  90.0000  90.0000  90.0000  19 1

