# MOL2 file generated by ConQuest
# Please check atom types

@<TRIPOS>MOLECULE
KERJEZ
    33    35     1
SMALL
NO_CHARGES
****
Generated from CSD

@<TRIPOS>ATOM
      1 C1         5.2859   13.2124    8.8463 C.3       1 RES1    0.0000
      2 H1         5.7133   13.4376    9.6990 H         1 RES1    0.0000
      3 C2         4.9889   11.7296    8.7602 C.2       1 RES1    0.0000
      4 C3         4.3309   11.2878    7.4868 C.3       1 RES1    0.0000
      5 H2         3.3745   11.4375    7.5469 H         1 RES1    0.0000
      6 H3         4.4798   10.3381    7.3572 H         1 RES1    0.0000
      7 C4         4.8982   12.0646    6.2902 C.3       1 RES1    0.0000
      8 H4         5.7147   11.6365    5.9883 H         1 RES1    0.0000
      9 H5         4.2600   12.0395    5.5603 H         1 RES1    0.0000
     10 C5         5.1930   13.5104    6.6497 C.3       1 RES1    0.0000
     11 H6         5.5577   13.9945    5.8795 H         1 RES1    0.0000
     12 C6         4.0070   14.2508    7.2427 C.3       1 RES1    0.0000
     13 H7         4.0755   15.2044    7.0792 H         1 RES1    0.0000
     14 H8         3.1725   13.9256    6.8702 H         1 RES1    0.0000
     15 C7         5.7647    8.8504   10.4090 C.2       1 RES1    0.0000
     16 C8         5.5120    7.4197   10.0963 C.ar      1 RES1    0.0000
     17 C9         5.9003    6.4763   11.0433 C.ar      1 RES1    0.0000
     18 H9         6.3091    6.7356   11.8373 H         1 RES1    0.0000
     19 C10        5.6609    5.1434   10.7694 C.ar      1 RES1    0.0000
     20 C11        5.0800    4.7074    9.5882 C.ar      1 RES1    0.0000
     21 H10        4.9341    3.8024    9.4314 H         1 RES1    0.0000
     22 C12        4.7229    5.6628    8.6471 C.ar      1 RES1    0.0000
     23 H11        4.3477    5.3963    7.8390 H         1 RES1    0.0000
     24 C13        4.9215    7.0144    8.9026 C.ar      1 RES1    0.0000
     25 H12        4.6595    7.6488    8.2751 H         1 RES1    0.0000
     26 N1         5.3843   11.0502    9.7643 N.2       1 RES1    0.0000
     27 N2         6.0151    4.1460   11.7833 N.pl3     1 RES1    0.0000
     28 O1         5.1132    9.6528    9.5308 O.3       1 RES1    0.0000
     29 O2         6.4701    9.2299   11.3018 O.2       1 RES1    0.0000
     30 O3         6.5630    4.5306   12.8065 O.2       1 RES1    0.0000
     31 O4         5.7320    2.9771   11.5669 O.2       1 RES1    0.0000
     32 O5         6.1188   13.5371    7.7617 O.3       1 RES1    0.0000
     33 O6         4.0918   13.9592    8.6601 O.3       1 RES1    0.0000
@<TRIPOS>BOND
     1    1    2 1
     2    3    1 1
     3    4    3 1
     4    5    4 1
     5    6    4 1
     6    7    4 1
     7    8    7 1
     8    9    7 1
     9   10    7 1
    10   11   10 1
    11   12   10 1
    12   13   12 1
    13   14   12 1
    14   15   16 1
    15   16   17 ar
    16   17   18 1
    17   19   17 ar
    18   20   19 ar
    19   21   20 1
    20   22   20 ar
    21   23   22 1
    22   24   16 ar
    23   25   24 1
    24   26    3 2
    25   27   19 1
    26   28   15 1
    27   29   15 2
    28   30   27 2
    29   31   27 2
    30   32    1 1
    31   33    1 1
    32   10   32 1
    33   12   33 1
    34   22   24 ar
    35   26   28 1
@<TRIPOS>SUBSTRUCTURE
     1 RES1 1

@<TRIPOS>CRYSIN
   7.3112   12.3133   13.9596  90.0000  90.0000  90.0000  19 1

