# MOL2 file generated by ConQuest
# Please check atom types

@<TRIPOS>MOLECULE
KERPII
    20    20     1
SMALL
NO_CHARGES
****
Generated from CSD

@<TRIPOS>ATOM
      1 N1         3.9240    1.3968    2.8275 N.ar      1 RES1    0.0000
      2 C1         3.4629    1.4482    4.1039 C.ar      1 RES1    0.0000
      3 N2         4.2330    2.1014    4.9718 N.3       1 RES1    0.0000
      4 H1         4.9819    2.4260    4.6474 H         1 RES1    0.0000
      5 H2         3.9415    2.2937    5.7779 H         1 RES1    0.0000
      6 C2         2.2354    0.8038    4.4346 C.ar      1 RES1    0.0000
      7 N3         1.8633    0.7418    5.8398 N.pl3     1 RES1    0.0000
      8 O1         2.0735    1.7316    6.5368 O.2       1 RES1    0.0000
      9 O2         1.3962   -0.3074    6.2703 O.2       1 RES1    0.0000
     10 C3         1.4316    0.1742    3.4897 C.ar      1 RES1    0.0000
     11 C4         0.0582   -0.3476    3.8126 C.3       1 RES1    0.0000
     12 H3        -0.5365   -0.1972    3.0483 H         1 RES1    0.0000
     13 H4        -0.2936    0.1223    4.5972 H         1 RES1    0.0000
     14 H5         0.1102   -1.3077    4.0025 H         1 RES1    0.0000
     15 C5         1.9699    0.1718    2.1947 C.ar      1 RES1    0.0000
     16 N4         1.3339   -0.5119    1.0860 N.pl3     1 RES1    0.0000
     17 O3         0.5975   -1.4674    1.3227 O.2       1 RES1    0.0000
     18 O4         1.6107   -0.1357   -0.0536 O.2       1 RES1    0.0000
     19 C6         3.1889    0.7802    1.9187 C.ar      1 RES1    0.0000
     20 H6         3.5116    0.7511    1.0260 H         1 RES1    0.0000
@<TRIPOS>BOND
     1    1    2 ar
     2    2    3 1
     3    3    4 1
     4    5    3 1
     5    6    2 ar
     6    7    6 1
     7    8    7 2
     8    9    7 2
     9   10    6 ar
    10   11   10 1
    11   12   11 1
    12   13   11 1
    13   14   11 1
    14   15   10 ar
    15   16   15 1
    16   17   16 2
    17   18   16 2
    18   19    1 ar
    19   20   19 1
    20   15   19 ar
@<TRIPOS>SUBSTRUCTURE
     1 RES1 1

@<TRIPOS>CRYSIN
   7.3660    7.6680    7.8870 108.3800 110.3900  98.8300   2 1

