# MOL2 file generated by ConQuest
# Please check atom types

@<TRIPOS>MOLECULE
KERSIK
    57    59     1
SMALL
NO_CHARGES
****
Generated from CSD

@<TRIPOS>ATOM
      1 O1        13.8814    5.0616   -5.4650 O.2       1 RES1    0.0000
      2 O2        12.3500    4.1369   -6.6689 O.2       1 RES1    0.0000
      3 O3         8.6707    2.0136   -4.6539 O.2       1 RES1    0.0000
      4 O4         8.0910    2.4607   -2.6492 O.2       1 RES1    0.0000
      5 O5         9.1026    3.3639    6.0526 O.3       1 RES1    0.0000
      6 O6         8.3386    2.6645    3.5675 O.3       1 RES1    0.0000
      7 O7         7.2240    0.4046    2.1651 O.3       1 RES1    0.0000
      8 O8         8.0727    0.9538   -0.1632 O.2       1 RES1    0.0000
      9 O9         7.8301   -0.4897   -1.6961 O.2       1 RES1    0.0000
     10 O10        4.1008   -3.3834   -1.6456 O.2       1 RES1    0.0000
     11 O11        3.1080   -3.8638    0.2141 O.2       1 RES1    0.0000
     12 N1        12.8203    4.4720   -5.5817 N.pl3     1 RES1    0.0000
     13 N2         8.8969    2.4982   -3.5643 N.pl3     1 RES1    0.0000
     14 N3         9.9323    3.2861   -0.9385 N.pl3     1 RES1    0.0000
     15 H1         9.1631    2.9044   -0.9743 H         1 RES1    0.0000
     16 N4        10.4863    3.6170    0.2750 N.2       1 RES1    0.0000
     17 N5         7.5869   -0.0563   -0.6008 N.pl3     1 RES1    0.0000
     18 N6         3.9256   -3.2417   -0.4427 N.pl3     1 RES1    0.0000
     19 C1        11.8205    4.2769   -2.0239 C.ar      1 RES1    0.0000
     20 H2        12.1456    4.5544   -1.1980 H         1 RES1    0.0000
     21 C2        12.5341    4.5699   -3.1429 C.ar      1 RES1    0.0000
     22 H3        13.3275    5.0512   -3.0797 H         1 RES1    0.0000
     23 C3        12.0684    4.1458   -4.3819 C.ar      1 RES1    0.0000
     24 C4        10.8993    3.4592   -4.5003 C.ar      1 RES1    0.0000
     25 H4        10.5970    3.1836   -5.3347 H         1 RES1    0.0000
     26 C5        10.1662    3.1778   -3.3587 C.ar      1 RES1    0.0000
     27 C6        10.6058    3.5664   -2.0721 C.ar      1 RES1    0.0000
     28 C7         9.8084    3.3109    1.3091 C.2       1 RES1    0.0000
     29 H5         8.9877    2.8837    1.2151 H         1 RES1    0.0000
     30 C8        10.3104    3.6289    2.6368 C.ar      1 RES1    0.0000
     31 C9        11.5332    4.2779    2.8267 C.ar      1 RES1    0.0000
     32 H6        12.0608    4.4963    2.0920 H         1 RES1    0.0000
     33 C10       11.9592    4.5959    4.0892 C.ar      1 RES1    0.0000
     34 H7        12.7832    5.0112    4.2059 H         1 RES1    0.0000
     35 C11       11.1773    4.3046    5.1936 C.ar      1 RES1    0.0000
     36 H8        11.4698    4.5447    6.0425 H         1 RES1    0.0000
     37 C12        9.9707    3.6654    5.0432 C.ar      1 RES1    0.0000
     38 C13        9.5489    3.2971    3.7534 C.ar      1 RES1    0.0000
     39 C14        9.4949    3.6819    7.3805 C.3       1 RES1    0.0000
     40 H9        10.3342    3.2604    7.5763 H         1 RES1    0.0000
     41 H10        8.8272    3.3669    7.9947 H         1 RES1    0.0000
     42 H11        9.5861    4.6329    7.4680 H         1 RES1    0.0000
     43 C15        8.3299    1.3091    4.0490 C.3       1 RES1    0.0000
     44 H12        8.3623    1.3033    5.0184 H         1 RES1    0.0000
     45 H13        9.1101    0.8368    3.7158 H         1 RES1    0.0000
     46 C16        7.0960    0.6309    3.5832 C.3       1 RES1    0.0000
     47 H14        6.9823   -0.2139    4.0466 H         1 RES1    0.0000
     48 H15        6.3208    1.1859    3.7632 H         1 RES1    0.0000
     49 C17        6.3796   -0.4412    1.5719 C.ar      1 RES1    0.0000
     50 C18        5.3305   -1.0933    2.2307 C.ar      1 RES1    0.0000
     51 H16        5.1772   -0.9161    3.1307 H         1 RES1    0.0000
     52 C19        4.5267   -1.9881    1.5739 C.ar      1 RES1    0.0000
     53 H17        3.8301   -2.4092    2.0239 H         1 RES1    0.0000
     54 C20        4.7555   -2.2564    0.2530 C.ar      1 RES1    0.0000
     55 C21        5.7605   -1.6312   -0.4500 C.ar      1 RES1    0.0000
     56 H18        5.9024   -1.8254   -1.3489 H         1 RES1    0.0000
     57 C22        6.5494   -0.7161    0.2007 C.ar      1 RES1    0.0000
@<TRIPOS>BOND
     1    1   12 2
     2    2   12 2
     3    3   13 2
     4    4   13 2
     5    5   37 1
     6    6   38 1
     7    7   46 1
     8    8   17 2
     9    9   17 2
    10   10   18 2
    11   11   18 2
    12   12   23 1
    13   13   26 1
    14   14   15 1
    15   16   14 1
    16   17   57 1
    17   18   54 1
    18   19   20 1
    19   21   19 ar
    20   22   21 1
    21   23   21 ar
    22   24   23 ar
    23   25   24 1
    24   26   24 ar
    25   27   14 1
    26   28   16 2
    27   29   28 1
    28   30   28 1
    29   31   30 ar
    30   32   31 1
    31   33   31 ar
    32   34   33 1
    33   35   33 ar
    34   36   35 1
    35   37   35 ar
    36   38   30 ar
    37   39    5 1
    38   40   39 1
    39   41   39 1
    40   42   39 1
    41   43    6 1
    42   44   43 1
    43   45   43 1
    44   46   43 1
    45   47   46 1
    46   48   46 1
    47   49    7 1
    48   50   49 ar
    49   51   50 1
    50   52   50 ar
    51   53   52 1
    52   54   52 ar
    53   55   54 ar
    54   56   55 1
    55   57   49 ar
    56   19   27 ar
    57   26   27 ar
    58   37   38 ar
    59   55   57 ar
@<TRIPOS>SUBSTRUCTURE
     1 RES1 1

@<TRIPOS>CRYSIN
   9.4470   10.2860   13.3570  68.9120  76.6970  85.6400   2 1

