# MOL2 file generated by ConQuest
# Please check atom types

@<TRIPOS>MOLECULE
KERZIR
    25    26     1
SMALL
NO_CHARGES
****
Generated from CSD

@<TRIPOS>ATOM
      1 O1         0.3034    3.1494    1.7608 O.3       1 RES1    0.0000
      2 O2        -2.5561    3.2625    0.9515 O.3       1 RES1    0.0000
      3 N1         1.2594    3.3558    2.7773 N.2       1 RES1    0.0000
      4 C1         3.7777    2.6906    8.7875 C.3       1 RES1    0.0000
      5 H1         4.3772    3.4404    8.8163 H         1 RES1    0.0000
      6 H2         4.2826    1.8752    8.8264 H         1 RES1    0.0000
      7 H3         3.1770    2.7326    9.5349 H         1 RES1    0.0000
      8 C2         2.9902    2.7294    7.5105 C.ar      1 RES1    0.0000
      9 C3         1.7362    2.1354    7.4170 C.ar      1 RES1    0.0000
     10 H4         1.3693    1.7234    8.1664 H         1 RES1    0.0000
     11 C4         1.0275    2.1457    6.2368 C.ar      1 RES1    0.0000
     12 H5         0.1954    1.7321    6.1987 H         1 RES1    0.0000
     13 C5         1.5378    2.7666    5.0980 C.ar      1 RES1    0.0000
     14 C6         2.7716    3.3866    5.2043 C.ar      1 RES1    0.0000
     15 H6         3.1306    3.8200    4.4638 H         1 RES1    0.0000
     16 C7         3.4749    3.3724    6.3844 C.ar      1 RES1    0.0000
     17 H7         4.2972    3.8050    6.4275 H         1 RES1    0.0000
     18 C8         0.7869    2.7476    3.8375 C.2       1 RES1    0.0000
     19 C9        -0.4585    2.1520    3.5467 C.2       1 RES1    0.0000
     20 H8        -0.9982    1.6680    4.1298 H         1 RES1    0.0000
     21 C10       -0.7033    2.4265    2.2606 C.2       1 RES1    0.0000
     22 C11       -1.8248    2.1228    1.3282 C.3       1 RES1    0.0000
     23 H9        -1.4664    1.7012    0.5324 H         1 RES1    0.0000
     24 H10       -2.4249    1.4901    1.7531 H         1 RES1    0.0000
     25 H11       -3.1257    3.5353    1.6195 H         1 RES1    0.0000
@<TRIPOS>BOND
     1    1    3 1
     2    2   22 1
     3    3   18 2
     4    4    5 1
     5    6    4 1
     6    7    4 1
     7    8    4 1
     8    9    8 ar
     9   10    9 1
    10   11    9 ar
    11   12   11 1
    12   13   11 ar
    13   14   13 ar
    14   15   14 1
    15   16    8 ar
    16   17   16 1
    17   18   13 1
    18   19   18 1
    19   20   19 1
    20   21    1 1
    21   22   21 1
    22   23   22 1
    23   24   22 1
    24   25    2 1
    25   14   16 ar
    26   19   21 2
@<TRIPOS>SUBSTRUCTURE
     1 RES1 1

@<TRIPOS>CRYSIN
   6.1049    7.9090   20.2440  90.0000  90.0000  90.0000  19 1

