# MOL2 file generated by ConQuest
# Please check atom types

@<TRIPOS>MOLECULE
KESHUM
    57    61     1
SMALL
NO_CHARGES
****
Generated from CSD

@<TRIPOS>ATOM
      1 N1         9.9513    0.9009   -2.0061 N.pl3     1 RES1    0.0000
      2 O1        10.7272    0.4321   -2.8386 O.2       1 RES1    0.0000
      3 O2         8.9834    0.3218   -1.5570 O.2       1 RES1    0.0000
      4 O3        12.6122    4.7039    4.2310 O.2       1 RES1    0.0000
      5 O4        13.0886    3.3499    5.9277 O.3       1 RES1    0.0000
      6 O5         9.5254    3.2097    3.9460 O.2       1 RES1    0.0000
      7 O6         8.2434    2.2601    2.4273 O.3       1 RES1    0.0000
      8 O7        11.0102   -0.4763    1.5838 O.3       1 RES1    0.0000
      9 C1        10.2780    3.2149   -2.5822 C.ar      1 RES1    0.0000
     10 C2        10.1974    2.2878   -1.5685 C.ar      1 RES1    0.0000
     11 C3        10.2862    2.5968   -0.2181 C.ar      1 RES1    0.0000
     12 C4        10.4261    3.9620    0.0765 C.ar      1 RES1    0.0000
     13 C5        10.5071    4.9042   -0.9181 C.ar      1 RES1    0.0000
     14 C6        10.4410    4.5614   -2.2475 C.ar      1 RES1    0.0000
     15 C7        10.2474    1.4822    0.8168 C.3       1 RES1    0.0000
     16 N2        11.2568    0.4606    0.4973 N.3       1 RES1    0.0000
     17 C8        12.6126    0.9969    0.6236 C.ar      1 RES1    0.0000
     18 C9        13.5687    0.4613   -0.2276 C.ar      1 RES1    0.0000
     19 C10       14.8594    0.9886   -0.2123 C.ar      1 RES1    0.0000
     20 C11       15.1604    2.0380    0.6293 C.ar      1 RES1    0.0000
     21 C12       14.1989    2.5541    1.4900 C.ar      1 RES1    0.0000
     22 C13       12.9010    2.0215    1.5130 C.ar      1 RES1    0.0000
     23 C14       11.8780    2.5211    2.5153 C.3       1 RES1    0.0000
     24 C15       10.5395    1.7650    2.3164 C.3       1 RES1    0.0000
     25 C16       10.7265    0.2745    2.8060 C.3       1 RES1    0.0000
     26 C17        9.5012   -0.3998    3.4105 C.3       1 RES1    0.0000
     27 N3        11.8513    0.1065    3.7165 N.3       1 RES1    0.0000
     28 C18       12.4317    1.1116    4.4338 C.2       1 RES1    0.0000
     29 C19       13.0985    0.6368    5.6924 C.3       1 RES1    0.0000
     30 C20       12.3858    2.3636    3.9384 C.2       1 RES1    0.0000
     31 C21       12.7059    3.5855    4.6786 C.2       1 RES1    0.0000
     32 C22       13.3840    4.4863    6.7578 C.3       1 RES1    0.0000
     33 C23        9.4056    2.4843    3.0184 C.2       1 RES1    0.0000
     34 C24        7.0674    2.8819    3.0356 C.3       1 RES1    0.0000
     35 H1        11.9040   -0.8874    4.0761 H         1 RES1    0.0000
     36 H2        10.3551    2.9359   -3.4889 H         1 RES1    0.0000
     37 H3        10.4562    4.1346    1.1094 H         1 RES1    0.0000
     38 H4        10.6453    5.9820   -0.5949 H         1 RES1    0.0000
     39 H5        10.5393    5.3812   -3.1083 H         1 RES1    0.0000
     40 H6         9.3066    0.9654    0.8053 H         1 RES1    0.0000
     41 H7        13.3657   -0.3525   -0.8454 H         1 RES1    0.0000
     42 H8        15.4421    0.5641   -0.9717 H         1 RES1    0.0000
     43 H9        16.2915    2.5241    0.7173 H         1 RES1    0.0000
     44 H10       14.4516    3.4212    2.2590 H         1 RES1    0.0000
     45 H11       11.6529    3.5577    2.3298 H         1 RES1    0.0000
     46 H12        8.7561   -0.4036    2.6664 H         1 RES1    0.0000
     47 H13        9.7753   -1.5340    3.7318 H         1 RES1    0.0000
     48 H14        9.4239    0.1080    4.4223 H         1 RES1    0.0000
     49 H15       13.1686   -0.3360    5.7211 H         1 RES1    0.0000
     50 H16       13.8272    1.1597    5.8512 H         1 RES1    0.0000
     51 H17       12.6967    0.8191    6.3179 H         1 RES1    0.0000
     52 H18       12.6228    5.0137    6.8133 H         1 RES1    0.0000
     53 H19       14.2397    4.9424    6.5704 H         1 RES1    0.0000
     54 H20       13.5144    4.2853    7.6434 H         1 RES1    0.0000
     55 H21        6.8372    2.1895    3.8332 H         1 RES1    0.0000
     56 H22        6.3044    2.9014    2.4770 H         1 RES1    0.0000
     57 H23        7.2346    3.7460    2.9686 H         1 RES1    0.0000
@<TRIPOS>BOND
     1    1    2 2
     2    3    1 2
     3    4   31 2
     4    5   31 1
     5    6   33 2
     6    7   33 1
     7    8   16 1
     8    9   10 ar
     9   10    1 1
    10   11   10 ar
    11   12   11 ar
    12   13   12 ar
    13   14    9 ar
    14   15   11 1
    15   16   15 1
    16   17   16 1
    17   18   17 ar
    18   19   18 ar
    19   20   19 ar
    20   21   20 ar
    21   22   17 ar
    22   23   22 1
    23   24   15 1
    24   25    8 1
    25   26   25 1
    26   27   25 1
    27   28   27 1
    28   29   28 1
    29   30   23 1
    30   31   30 1
    31   32    5 1
    32   33   24 1
    33   34    7 1
    34   35   27 1
    35   36    9 1
    36   37   12 1
    37   38   13 1
    38   39   14 1
    39   40   15 1
    40   41   18 1
    41   42   19 1
    42   43   20 1
    43   44   21 1
    44   45   23 1
    45   46   26 1
    46   47   26 1
    47   48   26 1
    48   49   29 1
    49   50   29 1
    50   51   29 1
    51   52   32 1
    52   53   32 1
    53   54   32 1
    54   55   34 1
    55   56   34 1
    56   57   34 1
    57   13   14 ar
    58   21   22 ar
    59   23   24 1
    60   24   25 1
    61   28   30 2
@<TRIPOS>SUBSTRUCTURE
     1 RES1 1

@<TRIPOS>CRYSIN
  15.9860    7.5010   19.1646  90.0000  93.5560  90.0000   9 1

