# MOL2 file generated by ConQuest
# Please check atom types

@<TRIPOS>MOLECULE
KESNEB
    19    19     1
SMALL
NO_CHARGES
****
Generated from CSD

@<TRIPOS>ATOM
      1 O1         1.0560    4.6823   18.5943 O.2       1 RES1    0.0000
      2 O2         0.9198    6.5351   17.5334 O.2       1 RES1    0.0000
      3 O3         4.1216    9.7319   19.3725 O.2       1 RES1    0.0000
      4 O4         3.9033   10.2698   21.4243 O.2       1 RES1    0.0000
      5 O5        -0.5362    5.5457   23.3359 O.2       1 RES1    0.0000
      6 N1         1.1243    5.8951   18.5436 N.pl3     1 RES1    0.0000
      7 N2         3.6561    9.5560   20.4794 N.pl3     1 RES1    0.0000
      8 N3        -0.7373    4.9837   22.2097 N.pl3     1 RES1    0.0000
      9 C1         0.9763    6.2836   21.0207 C.ar      1 RES1    0.0000
     10 C2         1.4958    6.6428   19.7592 C.ar      1 RES1    0.0000
     11 C3         2.3571    7.6855   19.5658 C.ar      1 RES1    0.0000
     12 C4         2.7585    8.4102   20.6679 C.ar      1 RES1    0.0000
     13 C5         2.3217    8.0945   21.9342 C.ar      1 RES1    0.0000
     14 C6         1.4512    7.0484   22.1034 C.ar      1 RES1    0.0000
     15 C7        -0.0448    5.2684   21.1391 C.2       1 RES1    0.0000
     16 C8        -1.9196    4.0195   22.1807 C.3       1 RES1    0.0000
     17 C9        -3.1420    4.8960   22.2291 C.3       1 RES1    0.0000
     18 C10       -1.8212    3.1429   23.4109 C.3       1 RES1    0.0000
     19 C11       -1.8899    3.1361   20.9434 C.3       1 RES1    0.0000
@<TRIPOS>BOND
     1    1    6 2
     2    2    6 2
     3    3    7 2
     4    4    7 2
     5    5    8 1
     6    6   10 1
     7    7   12 1
     8    8   15 2
     9    9   10 ar
    10   10   11 ar
    11   11   12 ar
    12   12   13 ar
    13   13   14 ar
    14   14    9 ar
    15   15    9 1
    16   16    8 1
    17   17   16 1
    18   18   16 1
    19   19   16 1
@<TRIPOS>SUBSTRUCTURE
     1 RES1 1

@<TRIPOS>CRYSIN
  18.5460    5.7290   27.4790  90.0000 118.4200  90.0000  15 1

