# MOL2 file generated by ConQuest
# Please check atom types

@<TRIPOS>MOLECULE
KESWUD
    51    55     1
SMALL
NO_CHARGES
****
Generated from CSD

@<TRIPOS>ATOM
      1 O1        -5.0225    1.6699   -5.3040 O.3       1 RES1    0.0000
      2 O2         0.7522   -2.8240   -2.5961 O.3       1 RES1    0.0000
      3 N1         1.9191   -0.7322   -2.4415 N.3       1 RES1    0.0000
      4 N2        -0.6638   -2.3997   -2.5765 N.3       1 RES1    0.0000
      5 C1        -5.3023    2.7698   -4.4234 C.3       1 RES1    0.0000
      6 H1        -5.9668    3.3373   -4.8217 H         1 RES1    0.0000
      7 H2        -4.4995    3.2742   -4.2754 H         1 RES1    0.0000
      8 H3        -5.6282    2.4344   -3.5856 H         1 RES1    0.0000
      9 C2         4.3713    0.5699   -0.1595 C.ar      1 RES1    0.0000
     10 H4         4.3906    1.2248    0.4998 H         1 RES1    0.0000
     11 C3        -3.8144   -0.3075   -5.7282 C.ar      1 RES1    0.0000
     12 H5        -4.3018   -0.4077   -6.5142 H         1 RES1    0.0000
     13 C4         5.5047   -0.1572   -0.4588 C.ar      1 RES1    0.0000
     14 H6         6.2850   -0.0050    0.0239 H         1 RES1    0.0000
     15 C5         3.1988   -0.6834   -1.8893 C.ar      1 RES1    0.0000
     16 C6        -1.4227   -3.4926   -2.0515 C.ar      1 RES1    0.0000
     17 C7         1.4231   -1.7790   -3.3125 C.3       1 RES1    0.0000
     18 H7         2.1839   -2.1705   -3.7891 H         1 RES1    0.0000
     19 C8        -3.6011   -4.3695   -1.4643 C.ar      1 RES1    0.0000
     20 H8        -4.5278   -4.2863   -1.4680 H         1 RES1    0.0000
     21 C9         1.8505    0.8253   -0.8078 C.2       1 RES1    0.0000
     22 H9         1.5428    1.4854   -0.2305 H         1 RES1    0.0000
     23 C10       -2.0974   -1.1138   -4.2228 C.ar      1 RES1    0.0000
     24 C11        3.1832    0.3027   -0.8708 C.ar      1 RES1    0.0000
     25 C12       -2.8219   -3.3911   -2.0648 C.ar      1 RES1    0.0000
     26 H10       -3.2286   -2.6639   -2.4782 H         1 RES1    0.0000
     27 C13       -4.0754    0.7675   -4.8757 C.ar      1 RES1    0.0000
     28 C14       -3.0127   -5.4699   -0.8597 C.ar      1 RES1    0.0000
     29 H11       -3.5390   -6.1273   -0.4654 H         1 RES1    0.0000
     30 C15        1.1244    0.1742   -1.7498 C.2       1 RES1    0.0000
     31 H12        0.2194    0.3144   -1.9110 H         1 RES1    0.0000
     32 C16       -2.8299   -1.2223   -5.3996 C.ar      1 RES1    0.0000
     33 H13       -2.6534   -1.9267   -5.9799 H         1 RES1    0.0000
     34 C17        0.4098   -1.3176   -4.3308 C.2       1 RES1    0.0000
     35 C18       -3.3840    0.8726   -3.6718 C.ar      1 RES1    0.0000
     36 H14       -3.5768    1.5652   -3.0813 H         1 RES1    0.0000
     37 C19        4.3611   -1.3869   -2.2215 C.ar      1 RES1    0.0000
     38 H15        4.3676   -2.0074   -2.9151 H         1 RES1    0.0000
     39 C20        0.6345   -0.4849   -5.3320 C.2       1 RES1    0.0000
     40 H16        1.4824   -0.1261   -5.4562 H         1 RES1    0.0000
     41 H17       -0.0559   -0.2572   -5.9111 H         1 RES1    0.0000
     42 C21       -0.9024   -2.0197   -3.9977 C.3       1 RES1    0.0000
     43 H18       -0.9925   -2.8278   -4.5448 H         1 RES1    0.0000
     44 C22       -1.6306   -5.5800   -0.8500 C.ar      1 RES1    0.0000
     45 H19       -1.2280   -6.3131   -0.4415 H         1 RES1    0.0000
     46 C23        5.5017   -1.1264   -1.4814 C.ar      1 RES1    0.0000
     47 H20        6.2813   -1.6005   -1.6626 H         1 RES1    0.0000
     48 C24       -2.4072   -0.0588   -3.3566 C.ar      1 RES1    0.0000
     49 H21       -1.9478    0.0193   -2.5515 H         1 RES1    0.0000
     50 C25       -0.8392   -4.6018   -1.4480 C.ar      1 RES1    0.0000
     51 H22        0.0872   -4.6907   -1.4441 H         1 RES1    0.0000
@<TRIPOS>BOND
     1    1    5 1
     2    2    4 1
     3    3   15 1
     4    4   16 1
     5    5    6 1
     6    7    5 1
     7    8    5 1
     8    9   10 1
     9   11   12 1
    10   13    9 ar
    11   14   13 1
    12   15   24 ar
    13   16   25 ar
    14   17    2 1
    15   18   17 1
    16   19   20 1
    17   21   22 1
    18   23   32 ar
    19   24    9 ar
    20   25   19 ar
    21   26   25 1
    22   27    1 1
    23   28   19 ar
    24   29   28 1
    25   30    3 1
    26   31   30 1
    27   32   11 ar
    28   33   32 1
    29   34   17 1
    30   35   27 ar
    31   36   35 1
    32   37   15 ar
    33   38   37 1
    34   39   34 2
    35   40   39 1
    36   41   39 1
    37   42    4 1
    38   43   42 1
    39   44   28 ar
    40   45   44 1
    41   46   13 ar
    42   47   46 1
    43   48   23 ar
    44   49   48 1
    45   50   16 ar
    46   51   50 1
    47    3   17 1
    48   11   27 ar
    49   21   24 1
    50   21   30 2
    51   23   42 1
    52   34   42 1
    53   35   48 ar
    54   37   46 ar
    55   44   50 ar
@<TRIPOS>SUBSTRUCTURE
     1 RES1 1

@<TRIPOS>CRYSIN
  15.5784    8.4062   17.1270  90.0000 119.1020  90.0000  14 1

