# MOL2 file generated by ConQuest
# Please check atom types

@<TRIPOS>MOLECULE
KESXAK
    44    47     1
SMALL
NO_CHARGES
****
Generated from CSD

@<TRIPOS>ATOM
      1 O1        14.0187    3.9206    5.1882 O.3       1 RES1    0.0000
      2 O2        10.8924    3.3722    8.5993 O.2       1 RES1    0.0000
      3 N1        12.5001    5.6416    4.4957 N.3       1 RES1    0.0000
      4 N2        13.0225    2.9516    5.7054 N.3       1 RES1    0.0000
      5 N3        10.4748    2.5491    6.5026 N.am      1 RES1    0.0000
      6 H1        10.7912    2.5285    5.7025 H         1 RES1    0.0000
      7 C1        12.8388    6.2480    3.2929 C.ar      1 RES1    0.0000
      8 C2         9.1860    1.9894    6.7072 C.ar      1 RES1    0.0000
      9 C3        11.6406    6.4704    2.5770 C.ar      1 RES1    0.0000
     10 C4        11.2487    3.1117    7.4572 C.2       1 RES1    0.0000
     11 C5        13.4431    5.1904    5.4919 C.3       1 RES1    0.0000
     12 H2        14.1625    5.8521    5.5701 H         1 RES1    0.0000
     13 C6        12.6705    3.4850    7.0301 C.3       1 RES1    0.0000
     14 H3        13.3120    3.1641    7.6979 H         1 RES1    0.0000
     15 C7        11.1237    5.4833    4.5223 C.2       1 RES1    0.0000
     16 H4        10.6490    5.0873    5.2161 H         1 RES1    0.0000
     17 C8        12.8159    4.9843    6.8596 C.2       1 RES1    0.0000
     18 C9         8.7907    0.9546    5.8649 C.ar      1 RES1    0.0000
     19 H5         9.3437    0.6888    5.1670 H         1 RES1    0.0000
     20 C10       14.0849    6.6309    2.8056 C.ar      1 RES1    0.0000
     21 H6        14.8615    6.4964    3.3000 H         1 RES1    0.0000
     22 C11       10.5689    5.9855    3.3902 C.2       1 RES1    0.0000
     23 H7         9.6623    6.0093    3.1816 H         1 RES1    0.0000
     24 C12       11.7145    7.0615    1.3055 C.ar      1 RES1    0.0000
     25 H8        10.9428    7.2101    0.8082 H         1 RES1    0.0000
     26 C13       12.9461    7.4195    0.8072 C.ar      1 RES1    0.0000
     27 H9        13.0027    7.7991   -0.0401 H         1 RES1    0.0000
     28 C14       13.7258    1.6759    5.7847 C.3       1 RES1    0.0000
     29 H10       13.9429    1.3743    4.9003 H         1 RES1    0.0000
     30 H11       13.1635    1.0272    6.2159 H         1 RES1    0.0000
     31 H12       14.5337    1.7876    6.2921 H         1 RES1    0.0000
     32 C15       14.1180    7.2232    1.5502 C.ar      1 RES1    0.0000
     33 H13       14.9327    7.4954    1.1952 H         1 RES1    0.0000
     34 C16       12.5050    5.9117    7.7390 C.2       1 RES1    0.0000
     35 H14       12.1552    5.6698    8.5662 H         1 RES1    0.0000
     36 H15       12.6346    6.8099    7.5324 H         1 RES1    0.0000
     37 C17        7.5755    0.3200    6.0614 C.ar      1 RES1    0.0000
     38 H16        7.3179   -0.3764    5.5019 H         1 RES1    0.0000
     39 C18        8.3351    2.4211    7.7219 C.ar      1 RES1    0.0000
     40 H17        8.5767    3.1338    8.2694 H         1 RES1    0.0000
     41 C19        7.1181    1.7746    7.9085 C.ar      1 RES1    0.0000
     42 H18        6.5508    2.0545    8.5893 H         1 RES1    0.0000
     43 C20        6.7420    0.7268    7.0983 C.ar      1 RES1    0.0000
     44 H19        5.9322    0.2907    7.2447 H         1 RES1    0.0000
@<TRIPOS>BOND
     1    1    4 1
     2    2   10 2
     3    3    7 1
     4    4   13 1
     5    5    6 1
     6    7    9 ar
     7    8    5 1
     8    9   22 1
     9   10    5 1
    10   11    1 1
    11   12   11 1
    12   13   10 1
    13   14   13 1
    14   15    3 1
    15   16   15 1
    16   17   11 1
    17   18    8 ar
    18   19   18 1
    19   20    7 ar
    20   21   20 1
    21   22   15 2
    22   23   22 1
    23   24    9 ar
    24   25   24 1
    25   26   24 ar
    26   27   26 1
    27   28    4 1
    28   29   28 1
    29   30   28 1
    30   31   28 1
    31   32   20 ar
    32   33   32 1
    33   34   17 2
    34   35   34 1
    35   36   34 1
    36   37   18 ar
    37   38   37 1
    38   39    8 ar
    39   40   39 1
    40   41   39 ar
    41   42   41 1
    42   43   37 ar
    43   44   43 1
    44    3   11 1
    45   13   17 1
    46   26   32 ar
    47   41   43 ar
@<TRIPOS>SUBSTRUCTURE
     1 RES1 1

@<TRIPOS>CRYSIN
  30.9293   10.8472   10.0272  90.0000  90.0000  90.0000  61 1

