# MOL2 file generated by ConQuest
# Please check atom types

@<TRIPOS>MOLECULE
KESYAJ01
    46    46     1
SMALL
NO_CHARGES
****
Generated from CSD

@<TRIPOS>ATOM
      1 N1         6.5015    6.8313    1.6001 N.3       1 RES1    0.0000
      2 N2         7.7302    7.1172    2.1670 N.pl3     1 RES1    0.0000
      3 O1         8.8370    6.7072    1.6144 O.2       1 RES1    0.0000
      4 C1         7.5209    7.8293    3.2697 C.2       1 RES1    0.0000
      5 C2         6.1299    7.9829    3.4201 C.2       1 RES1    0.0000
      6 C3         5.5155    7.3491    2.3726 C.2       1 RES1    0.0000
      7 C4         8.6689    8.2871    4.1066 C.3       1 RES1    0.0000
      8 H1         8.3755    9.0267    4.6625 H         1 RES1    0.0000
      9 H2         9.3699    8.6171    3.5228 H         1 RES1    0.0000
     10 O2         4.7124    7.9783    5.3045 O.2       1 RES1    0.0000
     11 C5         9.2383    7.2137    4.9887 C.3       1 RES1    0.0000
     12 H3         8.5681    6.9206    5.6110 H         1 RES1    0.0000
     13 H4         9.9920    7.5618    5.4717 H         1 RES1    0.0000
     14 H5         9.5196    6.4719    4.4491 H         1 RES1    0.0000
     15 C6         5.3839    8.6469    4.5365 C.2       1 RES1    0.0000
     16 N3         5.4624    9.9778    4.6302 N.am      1 RES1    0.0000
     17 C7         6.0791   10.8379    3.6421 C.3       1 RES1    0.0000
     18 H6         6.5091   10.3006    2.9730 H         1 RES1    0.0000
     19 H7         6.7299   11.3992    4.0682 H         1 RES1    0.0000
     20 H8         5.4059   11.3847    3.2293 H         1 RES1    0.0000
     21 C8         4.7353   10.6522    5.6962 C.3       1 RES1    0.0000
     22 H9         3.8663   10.9085    5.3783 H         1 RES1    0.0000
     23 H10        5.2200   11.4340    5.9696 H         1 RES1    0.0000
     24 H11        4.6390   10.0574    6.4439 H         1 RES1    0.0000
     25 C9         4.0803    7.1890    2.0279 C.3       1 RES1    0.0000
     26 H12        3.8570    7.7790    1.3042 H         1 RES1    0.0000
     27 H13        3.5416    7.4041    2.7936 H         1 RES1    0.0000
     28 H14        3.9137    6.2808    1.7636 H         1 RES1    0.0000
     29 N4         6.3967    6.1796    0.4089 N.am      1 RES1    0.0000
     30 H15        6.6836    6.6557   -0.3335 H         1 RES1    0.0000
     31 C10        6.3632    4.8055    0.4510 C.2       1 RES1    0.0000
     32 O3         6.2951    4.1648    1.4634 O.2       1 RES1    0.0000
     33 O4         6.3624    4.3659   -0.8079 O.3       1 RES1    0.0000
     34 C11        6.1768    2.9240   -1.1001 C.3       1 RES1    0.0000
     35 C12        7.3710    2.1510   -0.6005 C.3       1 RES1    0.0000
     36 H16        8.1733    2.5259   -0.9722 H         1 RES1    0.0000
     37 H17        7.2936    1.2333   -0.8700 H         1 RES1    0.0000
     38 H18        7.4079    2.2017    0.3572 H         1 RES1    0.0000
     39 C13        4.8821    2.4328   -0.5080 C.3       1 RES1    0.0000
     40 H19        4.9421    2.4463    0.4505 H         1 RES1    0.0000
     41 H20        4.7140    1.5358   -0.8062 H         1 RES1    0.0000
     42 H21        4.1638    3.0036   -0.7914 H         1 RES1    0.0000
     43 C14        6.1054    2.9005   -2.6147 C.3       1 RES1    0.0000
     44 H22        5.3900    3.4683   -2.9107 H         1 RES1    0.0000
     45 H23        5.9454    2.0019   -2.9137 H         1 RES1    0.0000
     46 H24        6.9353    3.2164   -2.9789 H         1 RES1    0.0000
@<TRIPOS>BOND
     1    1    2 1
     2    2    3 1
     3    4    2 2
     4    5    4 1
     5    6    1 1
     6    7    4 1
     7    8    7 1
     8    9    7 1
     9   10   15 2
    10   11    7 1
    11   12   11 1
    12   13   11 1
    13   14   11 1
    14   15    5 1
    15   16   15 1
    16   17   16 1
    17   18   17 1
    18   19   17 1
    19   20   17 1
    20   21   16 1
    21   22   21 1
    22   23   21 1
    23   24   21 1
    24   25    6 1
    25   26   25 1
    26   27   25 1
    27   28   25 1
    28   29    1 1
    29   30   29 1
    30   31   29 1
    31   32   31 2
    32   33   31 1
    33   34   33 1
    34   35   34 1
    35   36   35 1
    36   37   35 1
    37   38   35 1
    38   39   34 1
    39   40   39 1
    40   41   39 1
    41   42   39 1
    42   43   34 1
    43   44   43 1
    44   45   43 1
    45   46   43 1
    46    5    6 2
@<TRIPOS>SUBSTRUCTURE
     1 RES1 1

@<TRIPOS>CRYSIN
   8.0302   14.4752   15.0295  90.0000  99.5710  90.0000  14 1

