# MOL2 file generated by ConQuest
# Please check atom types

@<TRIPOS>MOLECULE
KETYEO
    25    26     1
SMALL
NO_CHARGES
****
Generated from CSD

@<TRIPOS>ATOM
      1 O1         1.1843   -0.9705   -0.9017 O.2       1 RES1    0.0000
      2 C1         3.4003    3.1033    0.4513 C.3       1 RES1    0.0000
      3 H1         3.7926    3.4729    1.2457 H         1 RES1    0.0000
      4 H2         2.6843    3.6696    0.1541 H         1 RES1    0.0000
      5 H3         4.0672    3.0423   -0.2367 H         1 RES1    0.0000
      6 H4         2.2320   -1.7829    3.3665 H         1 RES1    0.0000
      7 H5         2.1518    1.3691   -1.0916 H         1 RES1    0.0000
      8 H6         3.9957    1.0153    6.2284 H         1 RES1    0.0000
      9 O2         4.0426    1.7260    5.5047 O.3       1 RES1    0.0000
     10 O3         1.9052   -0.8939    1.1613 O.3       1 RES1    0.0000
     11 C2         3.4867    1.6559    3.2390 C.ar      1 RES1    0.0000
     12 C3         3.0726   -0.3088    4.5076 C.ar      1 RES1    0.0000
     13 C4         2.9676    1.0992    2.0703 C.ar      1 RES1    0.0000
     14 C5         3.5438    1.0217    4.4865 C.ar      1 RES1    0.0000
     15 N1         3.0588   -1.0639    5.7652 N.pl3     1 RES1    0.0000
     16 C6         2.5658   -0.9194    3.3967 C.ar      1 RES1    0.0000
     17 C7         2.2639    1.0281   -0.2321 C.2       1 RES1    0.0000
     18 C8         2.8626    1.7317    0.7503 C.2       1 RES1    0.0000
     19 C9         2.4890   -0.2215    2.2043 C.ar      1 RES1    0.0000
     20 N2         4.0059    3.0385    3.2747 N.pl3     1 RES1    0.0000
     21 O4         3.0557   -0.4132    6.8036 O.2       1 RES1    0.0000
     22 O5         3.0311   -2.2795    5.7074 O.2       1 RES1    0.0000
     23 O6         3.2134    3.9290    3.5160 O.2       1 RES1    0.0000
     24 O7         5.1967    3.2124    3.0986 O.2       1 RES1    0.0000
     25 C10        1.7411   -0.3027   -0.0660 C.2       1 RES1    0.0000
@<TRIPOS>BOND
     1    1   25 2
     2    2    3 1
     3    4    2 1
     4    5    2 1
     5    6   16 1
     6    7   17 1
     7    8    9 1
     8    9   14 1
     9   10   19 1
    10   11   13 ar
    11   12   14 ar
    12   13   18 1
    13   14   11 ar
    14   15   12 1
    15   16   12 ar
    16   17   18 2
    17   18    2 1
    18   19   13 ar
    19   20   11 1
    20   21   15 2
    21   22   15 2
    22   23   20 2
    23   24   20 2
    24   25   10 1
    25   16   19 ar
    26   17   25 1
@<TRIPOS>SUBSTRUCTURE
     1 RES1 1

@<TRIPOS>CRYSIN
   7.6830    8.0700   10.1010  69.5580  70.3660  70.1040   2 1

