# MOL2 file generated by ConQuest
# Please check atom types

@<TRIPOS>MOLECULE
KEVYOZ
    47    50     1
SMALL
NO_CHARGES
****
Generated from CSD

@<TRIPOS>ATOM
      1 O1         6.7385   -2.3242    0.4664 O.3       1 RES1    0.0000
      2 N1         7.6995   -1.3601    1.1462 N.3       1 RES1    0.0000
      3 C1         6.2647   -1.2318    1.2474 C.3       1 RES1    0.0000
      4 C2         5.7285   -0.0178    0.5447 C.3       1 RES1    0.0000
      5 C3         5.8198    1.1524    1.5221 C.3       1 RES1    0.0000
      6 C4         5.0628    0.9329    2.8469 C.3       1 RES1    0.0000
      7 C5         5.4850   -0.4212    3.4682 C.3       1 RES1    0.0000
      8 C6         5.4596   -1.5974    2.4675 C.3       1 RES1    0.0000
      9 C7         8.4316   -1.9942    2.2513 C.3       1 RES1    0.0000
     10 C8         9.2434   -0.8966    2.8861 C.ar      1 RES1    0.0000
     11 C9         9.9420    0.0208    2.1224 C.ar      1 RES1    0.0000
     12 C10       10.7001    1.0160    2.7125 C.ar      1 RES1    0.0000
     13 C11       10.7526    1.1028    4.1010 C.ar      1 RES1    0.0000
     14 C12       10.0899    0.2106    4.8622 C.ar      1 RES1    0.0000
     15 C13        9.3194   -0.7905    4.2641 C.ar      1 RES1    0.0000
     16 C14        9.3169   -3.1043    1.7083 C.3       1 RES1    0.0000
     17 C15        5.4040    2.0357    3.8518 C.ar      1 RES1    0.0000
     18 C16        6.7341    2.2634    4.1878 C.ar      1 RES1    0.0000
     19 C17        7.0852    3.2334    5.1076 C.ar      1 RES1    0.0000
     20 C18        6.0985    3.9928    5.7324 C.ar      1 RES1    0.0000
     21 C19        4.8011    3.7755    5.4076 C.ar      1 RES1    0.0000
     22 C20        4.4474    2.8055    4.4754 C.ar      1 RES1    0.0000
     23 C21        3.5421    0.8966    2.5489 C.3       1 RES1    0.0000
     24 H1         4.7254   -0.1780    0.2727 H         1 RES1    0.0000
     25 H2         6.2147    0.1928   -0.2479 H         1 RES1    0.0000
     26 H3         5.4749    1.9133    1.0538 H         1 RES1    0.0000
     27 H4         6.7527    1.3126    1.7852 H         1 RES1    0.0000
     28 H5         4.9295   -0.6378    4.2621 H         1 RES1    0.0000
     29 H6         6.4530   -0.3486    3.7762 H         1 RES1    0.0000
     30 H7         5.8260   -2.3731    2.8861 H         1 RES1    0.0000
     31 H8         7.8588   -2.4250    2.9505 H         1 RES1    0.0000
     32 H9         9.9068    0.0297    1.2645 H         1 RES1    0.0000
     33 H10       11.1648    1.6538    2.2067 H         1 RES1    0.0000
     34 H11       11.1534    1.8837    4.5126 H         1 RES1    0.0000
     35 H12       10.1225    0.2373    5.9258 H         1 RES1    0.0000
     36 H13        8.8294   -1.4832    4.7605 H         1 RES1    0.0000
     37 H14        9.7082   -3.4410    2.5786 H         1 RES1    0.0000
     38 H15        9.9676   -2.6920    1.0166 H         1 RES1    0.0000
     39 H16        8.8009   -3.8044    1.2893 H         1 RES1    0.0000
     40 H17        7.3843    1.7279    3.8183 H         1 RES1    0.0000
     41 H18        8.0719    3.4114    5.2564 H         1 RES1    0.0000
     42 H19        6.2857    4.6795    6.3473 H         1 RES1    0.0000
     43 H20        4.0644    4.3087    5.9010 H         1 RES1    0.0000
     44 H21        3.5966    2.6698    4.3142 H         1 RES1    0.0000
     45 H22        2.9488    0.7045    3.4464 H         1 RES1    0.0000
     46 H23        3.2339    0.2076    1.8100 H         1 RES1    0.0000
     47 H24        3.0702    1.7873    2.1571 H         1 RES1    0.0000
@<TRIPOS>BOND
     1    1    2 1
     2    2    3 1
     3    3    1 1
     4    4    3 1
     5    5    4 1
     6    6    5 1
     7    7    6 1
     8    8    3 1
     9    9    2 1
    10   10    9 1
    11   11   10 ar
    12   12   11 ar
    13   13   12 ar
    14   14   13 ar
    15   15   10 ar
    16   16    9 1
    17   17    6 1
    18   18   17 ar
    19   19   18 ar
    20   20   19 ar
    21   21   20 ar
    22   22   17 ar
    23   23    6 1
    24   24    4 1
    25   25    4 1
    26   26    5 1
    27   27    5 1
    28   28    7 1
    29   29    7 1
    30   30    8 1
    31   31    9 1
    32   32   11 1
    33   33   12 1
    34   34   13 1
    35   35   14 1
    36   36   15 1
    37   37   16 1
    38   38   16 1
    39   39   16 1
    40   40   18 1
    41   41   19 1
    42   42   20 1
    43   43   21 1
    44   44   22 1
    45   45   23 1
    46   46   23 1
    47   47   23 1
    48    7    8 1
    49   14   15 ar
    50   21   22 ar
@<TRIPOS>SUBSTRUCTURE
     1 RES1 1

@<TRIPOS>CRYSIN
  18.7050    7.4160   24.9040  90.0000  95.3800  90.0000  15 1

