# MOL2 file generated by ConQuest
# Please check atom types

@<TRIPOS>MOLECULE
KEWYAP
    53    56     1
SMALL
NO_CHARGES
****
Generated from CSD

@<TRIPOS>ATOM
      1 O1        -2.7389    2.0253    4.8636 O.3       1 RES1    0.0000
      2 O2        -0.4537    1.8669    8.0740 O.3       1 RES1    0.0000
      3 N1        -0.6364    3.2103    7.5439 N.3       1 RES1    0.0000
      4 N2        -1.6114    2.1594    5.6893 N.am      1 RES1    0.0000
      5 C1        -1.8596    3.1509    6.7486 C.3       1 RES1    0.0000
      6 H1        -2.6145    2.8701    7.3064 H         1 RES1    0.0000
      7 C2        -0.8675    1.0296    5.8474 C.2       1 RES1    0.0000
      8 O3        -0.9247    0.0845    5.0810 O.2       1 RES1    0.0000
      9 C3         0.0962    1.0761    7.0159 C.3       1 RES1    0.0000
     10 H2         0.1606    0.1600    7.3593 H         1 RES1    0.0000
     11 C4         1.5021    1.4916    6.6352 C.ar      1 RES1    0.0000
     12 C5        -3.6377    2.1628    2.6887 C.ar      1 RES1    0.0000
     13 C6        -2.1364    4.4993    6.1310 C.ar      1 RES1    0.0000
     14 C7         2.5113    1.3046    7.5733 C.ar      1 RES1    0.0000
     15 H3         2.3082    0.9567    8.4114 H         1 RES1    0.0000
     16 C8         1.8273    2.0129    5.4011 C.ar      1 RES1    0.0000
     17 H4         1.1613    2.1493    4.7664 H         1 RES1    0.0000
     18 C9         4.1349    2.1506    6.0351 C.ar      1 RES1    0.0000
     19 H5         5.0150    2.3720    5.8348 H         1 RES1    0.0000
     20 C10       -3.3705    5.1006    6.2569 C.ar      1 RES1    0.0000
     21 H6        -4.0403    4.6813    6.7457 H         1 RES1    0.0000
     22 C11        3.8186    1.6373    7.2604 C.ar      1 RES1    0.0000
     23 H7         4.4893    1.5093    7.8923 H         1 RES1    0.0000
     24 C12       -2.4100    2.4000    3.5069 C.3       1 RES1    0.0000
     25 H8        -1.6735    1.8623    3.1763 H         1 RES1    0.0000
     26 H9        -2.1520    3.3336    3.4674 H         1 RES1    0.0000
     27 C13       -1.1463    5.1629    5.4126 C.ar      1 RES1    0.0000
     28 H10       -0.3018    4.7819    5.3333 H         1 RES1    0.0000
     29 C14       -1.4032    6.3780    4.8176 C.ar      1 RES1    0.0000
     30 H11       -0.7311    6.7992    4.3317 H         1 RES1    0.0000
     31 C15       -3.6199    6.3212    5.6624 C.ar      1 RES1    0.0000
     32 H12       -4.4612    6.7069    5.7554 H         1 RES1    0.0000
     33 C16       -0.8237    4.0296    8.7387 C.3       1 RES1    0.0000
     34 H13       -1.6150    3.7444    9.2014 H         1 RES1    0.0000
     35 H14       -0.9164    4.9501    8.4845 H         1 RES1    0.0000
     36 H15       -0.0627    3.9324    9.3160 H         1 RES1    0.0000
     37 C17        3.1452    2.3375    5.0985 C.ar      1 RES1    0.0000
     38 H16        3.3581    2.6821    4.2611 H         1 RES1    0.0000
     39 C18       -4.0447    0.8815    2.3912 C.ar      1 RES1    0.0000
     40 H17       -3.5587    0.1518    2.7013 H         1 RES1    0.0000
     41 C19       -2.6467    6.9865    4.9289 C.ar      1 RES1    0.0000
     42 C20       -4.3804    3.2269    2.2181 C.ar      1 RES1    0.0000
     43 H18       -4.1252    4.0957    2.4329 H         1 RES1    0.0000
     44 C21       -2.9088    8.3247    4.2904 C.3       1 RES1    0.0000
     45 H19       -3.8498    8.4223    4.1263 H         1 RES1    0.0000
     46 H20       -2.4319    8.3811    3.4598 H         1 RES1    0.0000
     47 H21       -2.6126    9.0228    4.8785 H         1 RES1    0.0000
     48 C22       -5.4918    3.0212    1.4377 C.ar      1 RES1    0.0000
     49 H22       -5.9726    3.7460    1.1087 H         1 RES1    0.0000
     50 C23       -5.1875    0.6862    1.6231 C.ar      1 RES1    0.0000
     51 H23       -5.4780   -0.1765    1.4326 H         1 RES1    0.0000
     52 C24       -5.8819    1.7617    1.1498 C.ar      1 RES1    0.0000
     53 H24       -6.6339    1.6248    0.6212 H         1 RES1    0.0000
@<TRIPOS>BOND
     1    1    4 1
     2    2    3 1
     3    3    5 1
     4    4    5 1
     5    5    6 1
     6    7    4 1
     7    8    7 2
     8    9    2 1
     9   10    9 1
    10   11    9 1
    11   12   24 1
    12   13    5 1
    13   14   11 ar
    14   15   14 1
    15   16   11 ar
    16   17   16 1
    17   18   19 1
    18   20   13 ar
    19   21   20 1
    20   22   14 ar
    21   23   22 1
    22   24    1 1
    23   25   24 1
    24   26   24 1
    25   27   13 ar
    26   28   27 1
    27   29   27 ar
    28   30   29 1
    29   31   20 ar
    30   32   31 1
    31   33    3 1
    32   34   33 1
    33   35   33 1
    34   36   33 1
    35   37   16 ar
    36   38   37 1
    37   39   12 ar
    38   40   39 1
    39   41   29 ar
    40   42   12 ar
    41   43   42 1
    42   44   41 1
    43   45   44 1
    44   46   44 1
    45   47   44 1
    46   48   42 ar
    47   49   48 1
    48   50   39 ar
    49   51   50 1
    50   52   48 ar
    51   53   52 1
    52    7    9 1
    53   18   22 ar
    54   18   37 ar
    55   31   41 ar
    56   50   52 ar
@<TRIPOS>SUBSTRUCTURE
     1 RES1 1

@<TRIPOS>CRYSIN
  10.1218   16.4950   13.2650  90.0000 108.2270  90.0000  14 1

