# MOL2 file generated by ConQuest
# Please check atom types

@<TRIPOS>MOLECULE
KEXKED01
    41    43     1
SMALL
NO_CHARGES
****
Generated from CSD

@<TRIPOS>ATOM
      1 O1         3.6919    2.0822    8.3688 O.3       1 RES1    0.0000
      2 O2        -0.7567    3.0213    6.4253 O.2       1 RES1    0.0000
      3 O3        -2.1653    1.3949    6.2317 O.2       1 RES1    0.0000
      4 N1         1.8675    1.9029    6.2218 N.3       1 RES1    0.0000
      5 N2        -1.0604    1.9039    5.9793 N.pl3     1 RES1    0.0000
      6 C1         1.1839    1.4322    5.1464 C.2       1 RES1    0.0000
      7 C2        -0.1656    1.2017    5.1094 C.2       1 RES1    0.0000
      8 C3        -0.8082    0.2113    4.2137 C.ar      1 RES1    0.0000
      9 C4        -0.4865   -1.1323    4.3091 C.ar      1 RES1    0.0000
     10 C5        -1.0947   -2.0566    3.4746 C.ar      1 RES1    0.0000
     11 C6        -2.0080   -1.6489    2.5362 C.ar      1 RES1    0.0000
     12 C7        -2.3393   -0.3244    2.4322 C.ar      1 RES1    0.0000
     13 C8        -1.7470    0.6062    3.2681 C.ar      1 RES1    0.0000
     14 C9         2.0257    1.0459    3.9730 C.ar      1 RES1    0.0000
     15 C10        1.8184    1.6275    2.7313 C.ar      1 RES1    0.0000
     16 C11        2.6580    1.3063    1.6690 C.ar      1 RES1    0.0000
     17 C12        3.6550    0.3735    1.8327 C.ar      1 RES1    0.0000
     18 C13        3.8393   -0.2412    3.0531 C.ar      1 RES1    0.0000
     19 C14        3.0407    0.1089    4.1254 C.ar      1 RES1    0.0000
     20 C15        1.4045    1.7865    7.5971 C.3       1 RES1    0.0000
     21 C16        2.5383    1.2604    8.4359 C.3       1 RES1    0.0000
     22 C17        4.1431    2.1889    7.0261 C.3       1 RES1    0.0000
     23 C18        3.0730    2.7236    6.1105 C.3       1 RES1    0.0000
     24 H1         0.1214   -1.4194    4.9271 H         1 RES1    0.0000
     25 H2        -0.8565   -2.9242    3.5458 H         1 RES1    0.0000
     26 H3        -2.4644   -2.2732    1.9651 H         1 RES1    0.0000
     27 H4        -3.0089   -0.0320    1.7515 H         1 RES1    0.0000
     28 H5        -1.9560    1.5155    3.2183 H         1 RES1    0.0000
     29 H6         1.1204    2.2839    2.6202 H         1 RES1    0.0000
     30 H7         2.5618    1.7609    0.7975 H         1 RES1    0.0000
     31 H8         4.1997    0.1494    1.0965 H         1 RES1    0.0000
     32 H9         4.5057   -0.9071    3.1756 H         1 RES1    0.0000
     33 H10        3.1992   -0.3415    5.0125 H         1 RES1    0.0000
     34 H11        0.6868    1.1846    7.6327 H         1 RES1    0.0000
     35 H12        1.1623    2.6574    7.9033 H         1 RES1    0.0000
     36 H13        2.7537    0.3629    8.1454 H         1 RES1    0.0000
     37 H14        2.2782    1.2700    9.3700 H         1 RES1    0.0000
     38 H15        4.8551    2.7855    7.0347 H         1 RES1    0.0000
     39 H16        4.4291    1.2913    6.6929 H         1 RES1    0.0000
     40 H17        3.4017    2.7641    5.1834 H         1 RES1    0.0000
     41 H18        2.8542    3.6606    6.3938 H         1 RES1    0.0000
@<TRIPOS>BOND
     1    1   21 1
     2    2    5 2
     3    3    5 2
     4    4    6 1
     5    5    7 1
     6    6    7 2
     7    7    8 1
     8    8    9 ar
     9    9   10 ar
    10   10   11 ar
    11   11   12 ar
    12   12   13 ar
    13   13    8 ar
    14   14    6 1
    15   15   14 ar
    16   16   15 ar
    17   17   16 ar
    18   18   17 ar
    19   19   14 ar
    20   20    4 1
    21   21   20 1
    22   22    1 1
    23   23    4 1
    24   24    9 1
    25   25   10 1
    26   26   11 1
    27   27   12 1
    28   28   13 1
    29   29   15 1
    30   30   16 1
    31   31   17 1
    32   32   18 1
    33   33   19 1
    34   34   20 1
    35   35   20 1
    36   36   21 1
    37   37   21 1
    38   38   22 1
    39   39   22 1
    40   40   23 1
    41   41   23 1
    42   18   19 ar
    43   22   23 1
@<TRIPOS>SUBSTRUCTURE
     1 RES1 1

@<TRIPOS>CRYSIN
  10.4994   10.6723   14.3190  90.0000  96.0140  90.0000 231 1

