# MOL2 file generated by ConQuest
# Please check atom types

@<TRIPOS>MOLECULE
KEXKED
    41    43     1
SMALL
NO_CHARGES
****
Generated from CSD

@<TRIPOS>ATOM
      1 O1         9.0063    3.0235   14.9821 O.2       1 RES1    0.0000
      2 O2        10.4135    1.3991   15.1721 O.2       1 RES1    0.0000
      3 N1         9.3118    1.9064   15.4220 N.pl3     1 RES1    0.0000
      4 C1         8.4268    1.2036   16.2917 C.2       1 RES1    0.0000
      5 C2         7.0686    1.4365   16.2560 C.2       1 RES1    0.0000
      6 N2         6.3885    1.9032   15.1835 N.3       1 RES1    0.0000
      7 C3         5.1839    2.7287   15.2935 C.3       1 RES1    0.0000
      8 C4         4.1128    2.1830   14.3752 C.3       1 RES1    0.0000
      9 O3         4.5633    2.0783   13.0371 O.3       1 RES1    0.0000
     10 C5         5.7178    1.2538   12.9657 C.3       1 RES1    0.0000
     11 C6         6.8528    1.7825   13.8025 C.3       1 RES1    0.0000
     12 C7         9.0637    0.2179   17.1943 C.ar      1 RES1    0.0000
     13 C8         8.7399   -1.1246   17.1043 C.ar      1 RES1    0.0000
     14 C9         9.3442   -2.0452   17.9369 C.ar      1 RES1    0.0000
     15 C10       10.2631   -1.6372   18.8780 C.ar      1 RES1    0.0000
     16 C11       10.6006   -0.3151   18.9780 C.ar      1 RES1    0.0000
     17 C12        9.9970    0.6248   18.1382 C.ar      1 RES1    0.0000
     18 C13        6.2322    1.0530   17.4356 C.ar      1 RES1    0.0000
     19 C14        5.2121    0.1153   17.2814 C.ar      1 RES1    0.0000
     20 C15        4.4186   -0.2360   18.3610 C.ar      1 RES1    0.0000
     21 C16        4.6044    0.3813   19.5835 C.ar      1 RES1    0.0000
     22 C17        5.6042    1.3083   19.7420 C.ar      1 RES1    0.0000
     23 C18        6.4433    1.6362   18.6781 C.ar      1 RES1    0.0000
     24 H1         4.8271    2.7106   16.3131 H         1 RES1    0.0000
     25 H2         5.4162    3.7444   15.0121 H         1 RES1    0.0000
     26 H3         3.2580    2.8430   14.4052 H         1 RES1    0.0000
     27 H4         3.8235    1.2026   14.7222 H         1 RES1    0.0000
     28 H5         5.4606    0.2649   13.3156 H         1 RES1    0.0000
     29 H6         6.0420    1.1994   11.9374 H         1 RES1    0.0000
     30 H7         7.1580    2.7512   13.4341 H         1 RES1    0.0000
     31 H8         7.6883    1.1000   13.7568 H         1 RES1    0.0000
     32 H9         8.0101   -1.4535   16.3802 H         1 RES1    0.0000
     33 H10        9.0944   -3.0929   17.8498 H         1 RES1    0.0000
     34 H11       10.7189   -2.3624   19.5363 H         1 RES1    0.0000
     35 H12       11.3320    0.0021   19.7063 H         1 RES1    0.0000
     36 H13       10.2565    1.6693   18.2225 H         1 RES1    0.0000
     37 H14        5.0404   -0.3396   16.3174 H         1 RES1    0.0000
     38 H15        3.6551   -0.9911   18.2468 H         1 RES1    0.0000
     39 H16        3.9612    0.1335   20.4146 H         1 RES1    0.0000
     40 H17        5.7430    1.7878   20.7002 H         1 RES1    0.0000
     41 H18        7.2510    2.3389   18.8194 H         1 RES1    0.0000
@<TRIPOS>BOND
     1    1    3 2
     2    2    3 2
     3    3    4 1
     4    4    5 2
     5    5    6 1
     6    6    7 1
     7    7    8 1
     8    8    9 1
     9    9   10 1
    10   10   11 1
    11   11    6 1
    12   12    4 1
    13   13   12 ar
    14   14   13 ar
    15   15   14 ar
    16   16   15 ar
    17   17   12 ar
    18   18    5 1
    19   19   18 ar
    20   20   19 ar
    21   21   20 ar
    22   22   21 ar
    23   23   18 ar
    24   24    7 1
    25   25    7 1
    26   26    8 1
    27   27    8 1
    28   28   10 1
    29   29   10 1
    30   30   11 1
    31   31   11 1
    32   32   13 1
    33   33   14 1
    34   34   15 1
    35   35   16 1
    36   36   17 1
    37   37   19 1
    38   38   20 1
    39   39   21 1
    40   40   22 1
    41   41   23 1
    42   16   17 ar
    43   22   23 ar
@<TRIPOS>SUBSTRUCTURE
     1 RES1 1

@<TRIPOS>CRYSIN
  10.4760   10.6800   14.3570  90.0000  95.9000  90.0000 231 1

