# MOL2 file generated by ConQuest
# Please check atom types

@<TRIPOS>MOLECULE
KEXTIQ
    65    71     1
SMALL
NO_CHARGES
****
Generated from CSD

@<TRIPOS>ATOM
      1 O1        -3.6170   11.6720   -0.8021 O.3       1 RES1    0.0000
      2 O2        -1.1739    7.6904   -3.6774 O.2       1 RES1    0.0000
      3 O3         1.8855   13.5332   -2.5815 O.2       1 RES1    0.0000
      4 O4        -5.5212    8.4298    1.7753 O.2       1 RES1    0.0000
      5 O5         0.2234   14.3061   -1.4621 O.2       1 RES1    0.0000
      6 O6        -5.7203    6.4204    2.4933 O.2       1 RES1    0.0000
      7 O7        -5.7034    2.6497   -0.3186 O.2       1 RES1    0.0000
      8 O8        -6.2013    2.8937   -2.4017 O.2       1 RES1    0.0000
      9 O9        -5.7155   11.0796   -1.5395 O.3       1 RES1    0.0000
     10 N1         0.8276   13.3939   -1.9951 N.pl3     1 RES1    0.0000
     11 N2        -5.4259    8.9069   -0.8117 N.3       1 RES1    0.0000
     12 N3        -3.0172   10.4074   -1.2366 N.3       1 RES1    0.0000
     13 N4        -1.2950    8.2107   -1.4747 N.am      1 RES1    0.0000
     14 N5        -5.6213    7.2177    1.5756 N.pl3     1 RES1    0.0000
     15 N6        -5.8988    3.3526   -1.3067 N.pl3     1 RES1    0.0000
     16 C1        -2.0704    5.6190   -0.8308 C.ar      1 RES1    0.0000
     17 C2        -4.2058   12.1265   -3.0835 C.ar      1 RES1    0.0000
     18 C3        -1.3827    7.3029   -2.5303 C.2       1 RES1    0.0000
     19 C4        -0.8038    9.5491   -1.7223 C.ar      1 RES1    0.0000
     20 C5        -5.5081    7.5622   -0.9065 C.ar      1 RES1    0.0000
     21 C6        -1.7390    5.9370   -2.1572 C.ar      1 RES1    0.0000
     22 C7        -3.7446   10.9045   -3.5163 C.ar      1 RES1    0.0000
     23 C8        -1.6400   10.6458   -1.5443 C.ar      1 RES1    0.0000
     24 C9        -5.6303    6.7113    0.2168 C.ar      1 RES1    0.0000
     25 C10       -3.7986    9.8992   -2.4117 C.3       1 RES1    0.0000
     26 C11       -3.2357   10.7409   -4.7921 C.ar      1 RES1    0.0000
     27 C12       -1.5965    7.8676   -0.1502 C.2       1 RES1    0.0000
     28 C13       -1.0892   11.9194   -1.6203 C.ar      1 RES1    0.0000
     29 C14       -5.7475    5.3414    0.0846 C.ar      1 RES1    0.0000
     30 C15       -5.2608    9.7893   -1.9430 C.3       1 RES1    0.0000
     31 C16       -3.1923   11.8489   -5.6212 C.ar      1 RES1    0.0000
     32 C17       -1.9789    6.6331    0.1737 C.2       1 RES1    0.0000
     33 C18        0.2473   12.0392   -1.9292 C.ar      1 RES1    0.0000
     34 C19       -5.7648    4.7890   -1.1674 C.ar      1 RES1    0.0000
     35 C20       -3.6244   13.0784   -5.1864 C.ar      1 RES1    0.0000
     36 C21       -2.4498    4.2919   -0.5438 C.ar      1 RES1    0.0000
     37 C22        1.0618   10.9700   -2.1918 C.ar      1 RES1    0.0000
     38 C23       -5.6257    5.5715   -2.2966 C.ar      1 RES1    0.0000
     39 C24       -4.6919   12.0559   -1.6695 C.3       1 RES1    0.0000
     40 C25       -4.1416   13.2418   -3.9043 C.ar      1 RES1    0.0000
     41 C26       -2.4753    3.3566   -1.5272 C.ar      1 RES1    0.0000
     42 C27        0.5129    9.7055   -2.0745 C.ar      1 RES1    0.0000
     43 C28       -5.4801    6.9213   -2.1673 C.ar      1 RES1    0.0000
     44 C29       -2.1146    3.6696   -2.8188 C.ar      1 RES1    0.0000
     45 C30       -1.7627    4.9592   -3.1421 C.ar      1 RES1    0.0000
     46 H1        -2.9243    9.8845   -5.0953 H         1 RES1    0.0000
     47 H2        -5.4720    9.2761    0.0076 H         1 RES1    0.0000
     48 H3        -2.8519   11.7588   -6.5138 H         1 RES1    0.0000
     49 H4        -4.4387   14.1038   -3.6013 H         1 RES1    0.0000
     50 H5        -3.4672    9.0482   -2.7055 H         1 RES1    0.0000
     51 H6        -1.5129    8.5274    0.5408 H         1 RES1    0.0000
     52 H7        -5.8041    9.4739   -2.6677 H         1 RES1    0.0000
     53 H8        -2.1978    6.4215    1.0846 H         1 RES1    0.0000
     54 H9        -3.5711   13.8308   -5.7796 H         1 RES1    0.0000
     55 H10       -2.6876    4.0377    0.3520 H         1 RES1    0.0000
     56 H11       -5.0296   12.9144   -1.4019 H         1 RES1    0.0000
     57 H12       -2.7583    2.4627   -1.3218 H         1 RES1    0.0000
     58 H13       -2.1061    2.9785   -3.4865 H         1 RES1    0.0000
     59 H14       -1.6319   12.6965   -1.4668 H         1 RES1    0.0000
     60 H15       -1.5368    5.1808   -4.0485 H         1 RES1    0.0000
     61 H16        1.9801   11.0940   -2.4412 H         1 RES1    0.0000
     62 H17        1.0574    8.9343   -2.2493 H         1 RES1    0.0000
     63 H18       -5.8150    4.7864    0.8641 H         1 RES1    0.0000
     64 H19       -5.6299    5.1695   -3.1678 H         1 RES1    0.0000
     65 H20       -5.3591    7.4557   -2.9563 H         1 RES1    0.0000
@<TRIPOS>BOND
     1    1   12 1
     2    2   18 2
     3    3   10 2
     4    4   14 2
     5    5   10 2
     6    6   14 2
     7    7   15 2
     8    8   15 2
     9    9   30 1
    10   10   33 1
    11   11   20 1
    12   12   23 1
    13   13   18 1
    14   14   24 1
    15   15   34 1
    16   16   21 ar
    17   17   22 ar
    18   18   21 1
    19   19   13 1
    20   20   24 ar
    21   21   45 ar
    22   22   25 1
    23   23   19 ar
    24   24   29 ar
    25   25   12 1
    26   26   22 ar
    27   27   13 1
    28   28   23 ar
    29   29   34 ar
    30   30   11 1
    31   31   26 ar
    32   32   16 1
    33   33   28 ar
    34   34   38 ar
    35   35   31 ar
    36   36   16 ar
    37   37   33 ar
    38   38   43 ar
    39   39    1 1
    40   40   17 ar
    41   41   36 ar
    42   42   19 ar
    43   43   20 ar
    44   44   41 ar
    45   45   44 ar
    46   46   26 1
    47   47   11 1
    48   48   31 1
    49   49   40 1
    50   50   25 1
    51   51   27 1
    52   52   30 1
    53   53   32 1
    54   54   35 1
    55   55   36 1
    56   56   39 1
    57   57   41 1
    58   58   44 1
    59   59   28 1
    60   60   45 1
    61   61   37 1
    62   62   42 1
    63   63   29 1
    64   64   38 1
    65   65   43 1
    66    9   39 1
    67   17   39 1
    68   25   30 1
    69   27   32 2
    70   35   40 ar
    71   37   42 ar
@<TRIPOS>SUBSTRUCTURE
     1 RES1 1

@<TRIPOS>CRYSIN
  28.3740   12.5200   15.3910  90.0000 101.0400  90.0000  15 1

