# MOL2 file generated by ConQuest
# Please check atom types

@<TRIPOS>MOLECULE
KEYXOE
    54    55     1
SMALL
NO_CHARGES
****
Generated from CSD

@<TRIPOS>ATOM
      1 O1         3.3588    0.7096    9.5044 O.3       1 RES1    0.0000
      2 O2         5.4947   -0.0435    9.5060 O.2       1 RES1    0.0000
      3 O3         6.3856    2.3004   10.6109 O.3       1 RES1    0.0000
      4 O4         5.0258    2.5023    7.8207 O.3       1 RES1    0.0000
      5 N1         4.4079    3.5648    8.4923 N.2       1 RES1    0.0000
      6 C1         1.4684   -0.7688    9.2702 C.3       1 RES1    0.0000
      7 C2         3.0765   -0.3989    7.3533 C.3       1 RES1    0.0000
      8 C3         4.3821    3.3690    9.7585 C.2       1 RES1    0.0000
      9 C4         1.2486   -0.7640   10.7901 C.3       1 RES1    0.0000
     10 C5         3.7873    4.4472   10.5872 C.ar      1 RES1    0.0000
     11 C6         2.4779    6.4732   10.7729 C.ar      1 RES1    0.0000
     12 C7         2.6021   -1.6948    6.6604 C.3       1 RES1    0.0000
     13 C8         4.9734    2.1299   10.4239 C.3       1 RES1    0.0000
     14 C9         1.1677   -1.9958    7.0421 C.3       1 RES1    0.0000
     15 C10        3.0324    5.4602   10.0095 C.ar      1 RES1    0.0000
     16 C11        0.9700   -2.0429    8.5619 C.3       1 RES1    0.0000
     17 C12        2.6894    6.4950   12.1552 C.ar      1 RES1    0.0000
     18 C13        4.6801    0.8172    9.7241 C.2       1 RES1    0.0000
     19 C14        2.8991   -0.5464    8.8645 C.3       1 RES1    0.0000
     20 C15        4.0236    4.4883   11.9764 C.ar      1 RES1    0.0000
     21 C16       -0.2299   -0.6830   11.1614 C.3       1 RES1    0.0000
     22 C17        3.4489    5.5086   12.7380 C.ar      1 RES1    0.0000
     23 C18        1.8748   -1.9474   11.5018 C.3       1 RES1    0.0000
     24 C19        5.0377    2.7779    6.4180 C.3       1 RES1    0.0000
     25 C20        2.7676   -1.5775    5.1440 C.3       1 RES1    0.0000
     26 H1         2.8853    5.4203    9.0158 H         1 RES1    0.0000
     27 H2         1.9263    7.2336   10.3706 H         1 RES1    0.0000
     28 H3         2.3694    7.2989   12.6091 H         1 RES1    0.0000
     29 H4         3.6650    5.3925   13.8435 H         1 RES1    0.0000
     30 H5         4.3224    3.5938   12.4027 H         1 RES1    0.0000
     31 H6         4.5385    2.0804   11.4039 H         1 RES1    0.0000
     32 H7         6.8868    2.1783    9.7602 H         1 RES1    0.0000
     33 H8         3.4342   -1.3599    9.1929 H         1 RES1    0.0000
     34 H9         0.8358    0.0024    9.0657 H         1 RES1    0.0000
     35 H10        1.7470    0.1499   11.1494 H         1 RES1    0.0000
     36 H11        2.8209   -1.9897   11.3437 H         1 RES1    0.0000
     37 H12        1.2578   -2.7150   11.2577 H         1 RES1    0.0000
     38 H13        1.8922   -1.8676   12.3752 H         1 RES1    0.0000
     39 H14       -0.3430   -0.5790   12.2188 H         1 RES1    0.0000
     40 H15       -0.7751    0.0858   10.6904 H         1 RES1    0.0000
     41 H16       -0.7935   -1.4856   10.7247 H         1 RES1    0.0000
     42 H17        1.5134   -2.7742    8.8955 H         1 RES1    0.0000
     43 H18        0.0395   -2.2073    8.7768 H         1 RES1    0.0000
     44 H19        0.8018   -2.9797    6.6828 H         1 RES1    0.0000
     45 H20        0.6822   -1.2270    6.6828 H         1 RES1    0.0000
     46 H21        3.2273   -2.5421    7.0799 H         1 RES1    0.0000
     47 H22        3.8433   -1.3333    5.0632 H         1 RES1    0.0000
     48 H23        2.8227   -2.4696    4.8053 H         1 RES1    0.0000
     49 H24        2.2711   -0.7168    4.8397 H         1 RES1    0.0000
     50 H25        2.6039    0.4823    7.0507 H         1 RES1    0.0000
     51 H26        4.1394   -0.5935    7.2742 H         1 RES1    0.0000
     52 H27        5.4864    2.0598    5.9641 H         1 RES1    0.0000
     53 H28        4.1367    2.8480    6.0913 H         1 RES1    0.0000
     54 H29        5.5020    3.6011    6.2529 H         1 RES1    0.0000
@<TRIPOS>BOND
     1    1   18 1
     2    2   18 2
     3    3   13 1
     4    4    5 1
     5    5    8 2
     6    6    9 1
     7    7   12 1
     8    8   10 1
     9    9   21 1
    10   10   15 ar
    11   11   15 ar
    12   12   14 1
    13   13    8 1
    14   14   16 1
    15   15   26 1
    16   16    6 1
    17   17   11 ar
    18   18   13 1
    19   19    1 1
    20   20   10 ar
    21   21   39 1
    22   22   17 ar
    23   23    9 1
    24   24    4 1
    25   25   12 1
    26   27   11 1
    27   28   17 1
    28   29   22 1
    29   30   20 1
    30   31   13 1
    31   32    3 1
    32   33   19 1
    33   34    6 1
    34   35    9 1
    35   36   23 1
    36   37   23 1
    37   38   23 1
    38   40   21 1
    39   41   21 1
    40   42   16 1
    41   43   16 1
    42   44   14 1
    43   45   14 1
    44   46   12 1
    45   47   25 1
    46   48   25 1
    47   49   25 1
    48   50    7 1
    49   51    7 1
    50   52   24 1
    51   53   24 1
    52   54   24 1
    53    6   19 1
    54    7   19 1
    55   20   22 ar
@<TRIPOS>SUBSTRUCTURE
     1 RES1 1

@<TRIPOS>CRYSIN
   9.1946   12.0882   17.1926  90.0000  90.0000  90.0000  19 1

