# MOL2 file generated by ConQuest
# Please check atom types

@<TRIPOS>MOLECULE
KEZSOZ
    58    60     1
SMALL
NO_CHARGES
****
Generated from CSD

@<TRIPOS>ATOM
      1 N1         6.9945    0.1247    7.6443 N.pl3     1 RES1    0.0000
      2 O1         8.1354   12.6599   10.3326 O.3       1 RES1    0.0000
      3 O2         5.9447   16.5880    8.8339 O.3       1 RES1    0.0000
      4 O3         5.2113   12.3003    6.6970 O.3       1 RES1    0.0000
      5 O4         6.0431    6.2456    8.8178 O.3       1 RES1    0.0000
      6 O5         5.0970    6.1963    6.7777 O.2       1 RES1    0.0000
      7 O6         7.8057   -0.2997    8.4475 O.2       1 RES1    0.0000
      8 O7         6.3770   -0.5832    6.8715 O.2       1 RES1    0.0000
      9 C1         6.6961   12.5115    8.4939 C.ar      1 RES1    0.0000
     10 C2         7.2734   13.3148    9.4813 C.ar      1 RES1    0.0000
     11 C3         7.0137   14.6679    9.5683 C.ar      1 RES1    0.0000
     12 H1         7.4161   15.1848   10.2281 H         1 RES1    0.0000
     13 C4         6.1454   15.2416    8.6611 C.ar      1 RES1    0.0000
     14 C5         5.5242   14.4887    7.6827 C.ar      1 RES1    0.0000
     15 H2         4.9354   14.8838    7.0816 H         1 RES1    0.0000
     16 C6         5.7977   13.1352    7.6194 C.ar      1 RES1    0.0000
     17 C7         8.6722   13.3839   11.4280 C.3       1 RES1    0.0000
     18 H3         9.2085   14.1091   11.1003 H         1 RES1    0.0000
     19 H4         9.2152   12.7989   11.9624 H         1 RES1    0.0000
     20 H5         7.9552   13.7323   11.9635 H         1 RES1    0.0000
     21 C8         5.1407   17.2560    7.8826 C.3       1 RES1    0.0000
     22 H6         5.5025   17.1175    7.0037 H         1 RES1    0.0000
     23 H7         5.1281   18.1966    8.0781 H         1 RES1    0.0000
     24 H8         4.2462   16.9094    7.9188 H         1 RES1    0.0000
     25 C9         4.4212   12.8788    5.6727 C.3       1 RES1    0.0000
     26 H9         3.7142   13.3951    6.0659 H         1 RES1    0.0000
     27 H10        4.0457   12.1847    5.1271 H         1 RES1    0.0000
     28 H11        4.9696   13.4504    5.1293 H         1 RES1    0.0000
     29 C10        7.0627   11.0563    8.3075 C.3       1 RES1    0.0000
     30 H12        7.9346   10.9061    8.7040 H         1 RES1    0.0000
     31 H13        7.1410   10.8799    7.3562 H         1 RES1    0.0000
     32 C11        6.0863   10.0534    8.9029 C.3       1 RES1    0.0000
     33 H14        5.2100   10.2154    8.4950 H         1 RES1    0.0000
     34 C12        6.5165    8.6187    8.5266 C.3       1 RES1    0.0000
     35 H15        6.5594    8.5355    7.5607 H         1 RES1    0.0000
     36 H16        7.4004    8.4405    8.8837 H         1 RES1    0.0000
     37 C13        5.5367    7.6063    9.0769 C.3       1 RES1    0.0000
     38 H17        4.6675    7.7208    8.6396 H         1 RES1    0.0000
     39 C14        5.3691    7.7181   10.5580 C.3       1 RES1    0.0000
     40 H18        6.2054    7.4991   10.9986 H         1 RES1    0.0000
     41 H19        4.6959    7.0872   10.8586 H         1 RES1    0.0000
     42 C15        4.9477    9.1338   10.9354 C.3       1 RES1    0.0000
     43 H20        4.0641    9.3108   10.5761 H         1 RES1    0.0000
     44 H21        4.8981    9.2065   11.9014 H         1 RES1    0.0000
     45 C16        5.9213   10.1675   10.4032 C.3       1 RES1    0.0000
     46 H22        5.5991   11.0560   10.6247 H         1 RES1    0.0000
     47 H23        6.7833   10.0471   10.8314 H         1 RES1    0.0000
     48 C17        5.7085    5.6688    7.6646 C.2       1 RES1    0.0000
     49 C18        6.1455    4.2378    7.6296 C.ar      1 RES1    0.0000
     50 C19        7.0472    3.7217    8.5436 C.ar      1 RES1    0.0000
     51 H24        7.4471    4.2857    9.1661 H         1 RES1    0.0000
     52 C20        7.3581    2.3784    8.5368 C.ar      1 RES1    0.0000
     53 H25        7.9732    2.0268    9.1390 H         1 RES1    0.0000
     54 C21        6.7322    1.5742    7.6115 C.ar      1 RES1    0.0000
     55 C22        5.8620    2.0702    6.6817 C.ar      1 RES1    0.0000
     56 H26        5.4684    1.5059    6.0558 H         1 RES1    0.0000
     57 C23        5.5783    3.4078    6.6828 C.ar      1 RES1    0.0000
     58 H27        5.0017    3.7600    6.0433 H         1 RES1    0.0000
@<TRIPOS>BOND
     1    1    7 2
     2    2   10 1
     3    3   13 1
     4    4   16 1
     5    5   37 1
     6    6   48 2
     7    8    1 2
     8    9   10 ar
     9   10   11 ar
    10   11   12 1
    11   13   11 ar
    12   14   13 ar
    13   15   14 1
    14   16    9 ar
    15   17    2 1
    16   18   17 1
    17   19   17 1
    18   20   17 1
    19   21    3 1
    20   22   21 1
    21   23   21 1
    22   24   21 1
    23   25    4 1
    24   26   25 1
    25   27   25 1
    26   28   25 1
    27   29    9 1
    28   30   29 1
    29   31   29 1
    30   32   29 1
    31   33   32 1
    32   34   32 1
    33   35   34 1
    34   36   34 1
    35   37   34 1
    36   38   37 1
    37   39   37 1
    38   40   39 1
    39   41   39 1
    40   42   39 1
    41   43   42 1
    42   44   42 1
    43   45   32 1
    44   46   45 1
    45   47   45 1
    46   48    5 1
    47   49   48 1
    48   50   49 ar
    49   51   50 1
    50   52   50 ar
    51   53   52 1
    52   54    1 1
    53   55   54 ar
    54   56   55 1
    55   57   49 ar
    56   58   57 1
    57   14   16 ar
    58   42   45 1
    59   52   54 ar
    60   55   57 ar
@<TRIPOS>SUBSTRUCTURE
     1 RES1 1

@<TRIPOS>CRYSIN
   9.2230   11.2770   11.3500  84.9600  86.2340  69.7740   2 1

