# MOL2 file generated by ConQuest
# Please check atom types

@<TRIPOS>MOLECULE
KEZTAM
    58    60     1
SMALL
NO_CHARGES
****
Generated from CSD

@<TRIPOS>ATOM
      1 N1        -0.4444    8.7610   -2.7731 N.pl3     1 RES1    0.0000
      2 O1        -1.3854    8.5445   -3.5096 O.2       1 RES1    0.0000
      3 O2        -0.0662    9.8703   -2.4961 O.2       1 RES1    0.0000
      4 O3         1.6440    3.1625   -0.4600 O.2       1 RES1    0.0000
      5 O4         3.1343    4.5764    0.4236 O.3       1 RES1    0.0000
      6 O5         4.8375    2.1053    5.4930 O.3       1 RES1    0.0000
      7 O6         7.8560    4.9696    7.7496 O.3       1 RES1    0.0000
      8 O7         7.3939    5.0825    2.9232 O.3       1 RES1    0.0000
      9 C1         1.9185    6.7552   -0.7138 C.ar      1 RES1    0.0000
     10 H1         2.6323    6.8917   -0.1164 H         1 RES1    0.0000
     11 C2         1.3038    7.8429   -1.3140 C.ar      1 RES1    0.0000
     12 H2         1.5943    8.7202   -1.1397 H         1 RES1    0.0000
     13 C3         0.2525    7.6000   -2.1748 C.ar      1 RES1    0.0000
     14 C4        -0.1821    6.3502   -2.4826 C.ar      1 RES1    0.0000
     15 H3        -0.8877    6.2230   -3.0913 H         1 RES1    0.0000
     16 C5         0.4351    5.2722   -1.8806 C.ar      1 RES1    0.0000
     17 H4         0.1439    4.3993   -2.0720 H         1 RES1    0.0000
     18 C6         1.4883    5.4745   -0.9881 C.ar      1 RES1    0.0000
     19 C7         2.0851    4.2754   -0.3301 C.2       1 RES1    0.0000
     20 C8         3.8446    3.4758    1.0795 C.3       1 RES1    0.0000
     21 H5         3.1958    2.8001    1.3952 H         1 RES1    0.0000
     22 C9         4.8032    2.8424    0.0979 C.3       1 RES1    0.0000
     23 H6         5.3815    3.5315   -0.2889 H         1 RES1    0.0000
     24 H7         4.2999    2.4223   -0.6300 H         1 RES1    0.0000
     25 C10        5.6567    1.7911    0.8070 C.3       1 RES1    0.0000
     26 H8         5.0784    1.0682    1.1263 H         1 RES1    0.0000
     27 H9         6.2923    1.4085    0.1685 H         1 RES1    0.0000
     28 C11        6.4227    2.3820    1.9883 C.3       1 RES1    0.0000
     29 H10        7.0358    3.0801    1.6440 H         1 RES1    0.0000
     30 C12        5.4363    3.0427    2.9711 C.3       1 RES1    0.0000
     31 H11        4.8270    2.3270    3.2799 H         1 RES1    0.0000
     32 C13        4.5635    4.0834    2.2600 C.3       1 RES1    0.0000
     33 H12        3.9055    4.4428    2.8920 H         1 RES1    0.0000
     34 H13        5.1266    4.8242    1.9530 H         1 RES1    0.0000
     35 C14        7.2604    1.3087    2.6847 C.3       1 RES1    0.0000
     36 H14        6.6732    0.6300    3.0539 H         1 RES1    0.0000
     37 H15        7.7754    1.7139    3.3990 H         1 RES1    0.0000
     38 H16        7.8612    0.9016    2.0426 H         1 RES1    0.0000
     39 C15        6.1021    3.6059    4.2092 C.ar      1 RES1    0.0000
     40 C16        5.7805    3.1025    5.4792 C.ar      1 RES1    0.0000
     41 C17        6.3715    3.5764    6.6403 C.ar      1 RES1    0.0000
     42 H17        6.1268    3.2262    7.4775 H         1 RES1    0.0000
     43 C18        7.3307    4.5739    6.5488 C.ar      1 RES1    0.0000
     44 C19        7.7034    5.0967    5.3250 C.ar      1 RES1    0.0000
     45 H18        8.3617    5.7644    5.2690 H         1 RES1    0.0000
     46 C20        7.0794    4.6110    4.1724 C.ar      1 RES1    0.0000
     47 C21        4.6010    1.4220    6.7196 C.3       1 RES1    0.0000
     48 H19        5.4305    1.0319    7.0374 H         1 RES1    0.0000
     49 H20        3.9468    0.7205    6.5773 H         1 RES1    0.0000
     50 H21        4.2650    2.0494    7.3799 H         1 RES1    0.0000
     51 C22        8.8629    5.9732    7.7333 C.3       1 RES1    0.0000
     52 H22        9.6128    5.6690    7.1993 H         1 RES1    0.0000
     53 H23        9.1606    6.1470    8.6400 H         1 RES1    0.0000
     54 H24        8.5022    6.7879    7.3491 H         1 RES1    0.0000
     55 C23        8.4328    6.0474    2.8051 C.3       1 RES1    0.0000
     56 H25        8.1839    6.8506    3.2880 H         1 RES1    0.0000
     57 H26        8.5684    6.2629    1.8687 H         1 RES1    0.0000
     58 H27        9.2517    5.6871    3.1769 H         1 RES1    0.0000
@<TRIPOS>BOND
     1    1    2 2
     2    3    1 2
     3    4   19 2
     4    5   19 1
     5    6   40 1
     6    7   43 1
     7    8   46 1
     8    9   10 1
     9   11    9 ar
    10   12   11 1
    11   13    1 1
    12   14   13 ar
    13   15   14 1
    14   16   14 ar
    15   17   16 1
    16   18    9 ar
    17   19   18 1
    18   20    5 1
    19   21   20 1
    20   22   20 1
    21   23   22 1
    22   24   22 1
    23   25   22 1
    24   26   25 1
    25   27   25 1
    26   28   25 1
    27   29   28 1
    28   30   28 1
    29   31   30 1
    30   32   20 1
    31   33   32 1
    32   34   32 1
    33   35   28 1
    34   36   35 1
    35   37   35 1
    36   38   35 1
    37   39   30 1
    38   40   39 ar
    39   41   40 ar
    40   42   41 1
    41   43   41 ar
    42   44   43 ar
    43   45   44 1
    44   46   39 ar
    45   47    6 1
    46   48   47 1
    47   49   47 1
    48   50   47 1
    49   51    7 1
    50   52   51 1
    51   53   51 1
    52   54   51 1
    53   55    8 1
    54   56   55 1
    55   57   55 1
    56   58   55 1
    57   11   13 ar
    58   16   18 ar
    59   30   32 1
    60   44   46 ar
@<TRIPOS>SUBSTRUCTURE
     1 RES1 1

@<TRIPOS>CRYSIN
  28.2924   12.0695   15.0774  90.0000 117.4770  90.0000  15 1

