# MOL2 file generated by ConQuest
# Please check atom types

@<TRIPOS>MOLECULE
KEZVES
    58    63     1
SMALL
NO_CHARGES
****
Generated from CSD

@<TRIPOS>ATOM
      1 C1        -0.4520    5.6554    1.1861 C.2       1 RES1    0.0000
      2 C2        -1.4812    4.9511    1.7117 C.2       1 RES1    0.0000
      3 H1        -1.9833    4.2942    1.2845 H         1 RES1    0.0000
      4 C3        -1.6418    5.4142    3.0463 C.2       1 RES1    0.0000
      5 C4        -2.4978    5.2494    4.2767 C.3       1 RES1    0.0000
      6 H2        -3.3087    5.7901    4.1762 H         1 RES1    0.0000
      7 C5        -1.5724    5.9183    5.3231 C.3       1 RES1    0.0000
      8 H3        -0.9797    5.2589    5.7151 H         1 RES1    0.0000
      9 H4        -2.1028    6.3151    6.0320 H         1 RES1    0.0000
     10 C6        -0.7355    7.0307    4.5832 C.3       1 RES1    0.0000
     11 C7        -0.7264    6.3544    3.2378 C.2       1 RES1    0.0000
     12 C8        -1.5217    8.3498    4.5680 C.ar      1 RES1    0.0000
     13 C9        -2.0180    8.9088    3.4043 C.ar      1 RES1    0.0000
     14 H5        -1.8676    8.4883    2.5890 H         1 RES1    0.0000
     15 C10       -2.7418   10.1002    3.4487 C.ar      1 RES1    0.0000
     16 H6        -3.0605   10.4771    2.6615 H         1 RES1    0.0000
     17 C11       -2.9838   10.7140    4.6366 C.ar      1 RES1    0.0000
     18 H7        -3.4777   11.5021    4.6593 H         1 RES1    0.0000
     19 C12       -2.5056   10.1789    5.7961 C.ar      1 RES1    0.0000
     20 H8        -2.6726   10.5996    6.6089 H         1 RES1    0.0000
     21 C13       -1.7709    9.0104    5.7596 C.ar      1 RES1    0.0000
     22 H9        -1.4364    8.6576    6.5535 H         1 RES1    0.0000
     23 C14        0.6734    7.2613    5.1453 C.ar      1 RES1    0.0000
     24 C15        1.4970    8.1924    4.5431 C.ar      1 RES1    0.0000
     25 H10        1.1760    8.6804    3.8195 H         1 RES1    0.0000
     26 C16        2.7890    8.4193    4.9890 C.ar      1 RES1    0.0000
     27 H11        3.3288    9.0398    4.5556 H         1 RES1    0.0000
     28 C17        3.2763    7.7242    6.0774 C.ar      1 RES1    0.0000
     29 H12        4.1401    7.8776    6.3858 H         1 RES1    0.0000
     30 C18        2.4786    6.8142    6.6870 C.ar      1 RES1    0.0000
     31 H13        2.8077    6.3377    7.4146 H         1 RES1    0.0000
     32 C19        1.1758    6.5756    6.2502 C.ar      1 RES1    0.0000
     33 H14        0.6422    5.9591    6.6970 H         1 RES1    0.0000
     34 C20       -2.8927    3.8245    4.5911 C.ar      1 RES1    0.0000
     35 C21       -1.9954    2.7827    4.5060 C.ar      1 RES1    0.0000
     36 H15       -1.1049    2.9645    4.3069 H         1 RES1    0.0000
     37 C22       -2.3836    1.4812    4.7091 C.ar      1 RES1    0.0000
     38 H16       -1.7564    0.7964    4.6664 H         1 RES1    0.0000
     39 C23       -3.6982    1.1934    4.9753 C.ar      1 RES1    0.0000
     40 H17       -3.9714    0.3117    5.0899 H         1 RES1    0.0000
     41 C24       -4.6024    2.2116    5.0704 C.ar      1 RES1    0.0000
     42 H18       -5.4928    2.0214    5.2561 H         1 RES1    0.0000
     43 C25       -4.2047    3.5203    4.8921 C.ar      1 RES1    0.0000
     44 H19       -4.8281    4.2052    4.9762 H         1 RES1    0.0000
     45 C26        0.2287    5.5599   -0.0949 C.ar      1 RES1    0.0000
     46 C27        0.0561    4.4140   -0.8702 C.ar      1 RES1    0.0000
     47 H20       -0.5031    3.7390   -0.5599 H         1 RES1    0.0000
     48 C28        0.6855    4.2545   -2.0712 C.ar      1 RES1    0.0000
     49 H21        0.5618    3.4708   -2.5563 H         1 RES1    0.0000
     50 C29        1.4992    5.2436   -2.5671 C.ar      1 RES1    0.0000
     51 H22        1.9170    5.1521   -3.3932 H         1 RES1    0.0000
     52 C30        1.6779    6.3704   -1.8046 C.ar      1 RES1    0.0000
     53 C31        1.0649    6.5584   -0.5759 C.ar      1 RES1    0.0000
     54 H23        1.2116    7.3340   -0.0853 H         1 RES1    0.0000
     55 N1         2.5780    7.4170   -2.3037 N.pl3     1 RES1    0.0000
     56 O1         2.8360    8.3564   -1.5764 O.2       1 RES1    0.0000
     57 O2         0.0152    6.5823    2.1098 O.3       1 RES1    0.0000
     58 O3         3.0522    7.2947   -3.4248 O.2       1 RES1    0.0000
@<TRIPOS>BOND
     1    1    2 2
     2    2    3 1
     3    4    2 1
     4    5    4 1
     5    6    5 1
     6    7    5 1
     7    8    7 1
     8    9    7 1
     9   10    7 1
    10   11    4 2
    11   12   10 1
    12   13   12 ar
    13   14   13 1
    14   15   13 ar
    15   16   15 1
    16   17   15 ar
    17   18   17 1
    18   19   17 ar
    19   20   19 1
    20   21   12 ar
    21   22   21 1
    22   23   10 1
    23   24   23 ar
    24   25   24 1
    25   26   24 ar
    26   27   26 1
    27   28   26 ar
    28   29   28 1
    29   30   28 ar
    30   31   30 1
    31   32   23 ar
    32   33   32 1
    33   34    5 1
    34   35   34 ar
    35   36   35 1
    36   37   35 ar
    37   38   37 1
    38   39   37 ar
    39   40   39 1
    40   41   39 ar
    41   42   41 1
    42   43   34 ar
    43   44   43 1
    44   45    1 1
    45   46   45 ar
    46   47   46 1
    47   48   46 ar
    48   49   48 1
    49   50   48 ar
    50   51   50 1
    51   52   50 ar
    52   53   45 ar
    53   54   53 1
    54   55   52 1
    55   56   55 2
    56   57    1 1
    57   58   55 2
    58   10   11 1
    59   11   57 1
    60   19   21 ar
    61   30   32 ar
    62   41   43 ar
    63   52   53 ar
@<TRIPOS>SUBSTRUCTURE
     1 RES1 1

@<TRIPOS>CRYSIN
   8.9060   11.6550   14.3580  93.0380  95.9230 112.2950   2 1

