# MOL2 file generated by ConQuest
# Please check atom types

@<TRIPOS>MOLECULE
KEZXES
    48    49     1
SMALL
NO_CHARGES
****
Generated from CSD

@<TRIPOS>ATOM
      1 O1         3.8927   -0.0809    1.4986 O.3       1 RES1    0.0000
      2 N1         4.6697    0.0338    0.3463 N.2       1 RES1    0.0000
      3 C1         5.9313   -0.0515    0.5931 C.2       1 RES1    0.0000
      4 C2         6.5062   -0.2665    1.9529 C.ar      1 RES1    0.0000
      5 C3         6.9838    0.8156    2.6975 C.ar      1 RES1    0.0000
      6 C4         7.4576    0.5766    3.9831 C.ar      1 RES1    0.0000
      7 C5         7.4602   -0.6797    4.5494 C.ar      1 RES1    0.0000
      8 C6         7.0169   -1.7415    3.7733 C.ar      1 RES1    0.0000
      9 C7         6.5329   -1.5646    2.4813 C.ar      1 RES1    0.0000
     10 C8         6.9942    2.2106    2.1359 C.3       1 RES1    0.0000
     11 C9         7.8938   -0.8965    5.9786 C.3       1 RES1    0.0000
     12 C10        6.0587   -2.7321    1.6690 C.3       1 RES1    0.0000
     13 H1         3.1028   -0.0444    1.1673 H         1 RES1    0.0000
     14 H2         7.7950    1.3683    4.5115 H         1 RES1    0.0000
     15 H3         7.0334   -2.6655    4.1172 H         1 RES1    0.0000
     16 H4         7.1362    2.8876    2.8394 H         1 RES1    0.0000
     17 H5         7.7067    2.3279    1.4513 H         1 RES1    0.0000
     18 H6         6.1981    2.3812    1.6721 H         1 RES1    0.0000
     19 H7         8.5971   -0.3732    6.1679 H         1 RES1    0.0000
     20 H8         8.1545   -1.8214    6.1521 H         1 RES1    0.0000
     21 H9         7.2957   -0.3554    6.5622 H         1 RES1    0.0000
     22 H10        5.1375   -2.5500    1.3724 H         1 RES1    0.0000
     23 H11        6.1514   -3.5895    2.2242 H         1 RES1    0.0000
     24 H12        6.5660   -2.7988    0.9149 H         1 RES1    0.0000
     25 C1D        6.8027    0.0515   -0.5931 C.2       1 RES1    0.0000
     26 N1D        8.0643   -0.0338   -0.3463 N.2       1 RES1    0.0000
     27 C2D        6.2278    0.2665   -1.9529 C.ar      1 RES1    0.0000
     28 O1D        8.8413    0.0809   -1.4986 O.3       1 RES1    0.0000
     29 C3D        5.7502   -0.8156   -2.6975 C.ar      1 RES1    0.0000
     30 C7D        6.2011    1.5646   -2.4813 C.ar      1 RES1    0.0000
     31 H1D        9.6312    0.0444   -1.1673 H         1 RES1    0.0000
     32 C4D        5.2764   -0.5766   -3.9831 C.ar      1 RES1    0.0000
     33 C8D        5.7398   -2.2106   -2.1359 C.3       1 RES1    0.0000
     34 C6D        5.7171    1.7415   -3.7733 C.ar      1 RES1    0.0000
     35 C10D       6.6753    2.7321   -1.6690 C.3       1 RES1    0.0000
     36 C5D        5.2738    0.6797   -4.5494 C.ar      1 RES1    0.0000
     37 H2D        4.9390   -1.3683   -4.5115 H         1 RES1    0.0000
     38 H4D        5.5978   -2.8876   -2.8394 H         1 RES1    0.0000
     39 H5D        5.0273   -2.3279   -1.4513 H         1 RES1    0.0000
     40 H6D        6.5359   -2.3812   -1.6721 H         1 RES1    0.0000
     41 H3D        5.7006    2.6655   -4.1172 H         1 RES1    0.0000
     42 H10D       7.5965    2.5500   -1.3724 H         1 RES1    0.0000
     43 H11D       6.5826    3.5895   -2.2242 H         1 RES1    0.0000
     44 H12D       6.1680    2.7988   -0.9149 H         1 RES1    0.0000
     45 C9D        4.8402    0.8965   -5.9786 C.3       1 RES1    0.0000
     46 H7D        4.1369    0.3732   -6.1679 H         1 RES1    0.0000
     47 H8D        4.5795    1.8214   -6.1521 H         1 RES1    0.0000
     48 H9D        5.4383    0.3554   -6.5622 H         1 RES1    0.0000
@<TRIPOS>BOND
     1    1    2 1
     2    2    3 2
     3    3    4 1
     4    4    5 ar
     5    5    6 ar
     6    6    7 ar
     7    7    8 ar
     8    8    9 ar
     9    9    4 ar
    10   10    5 1
    11   11    7 1
    12   12    9 1
    13   13    1 1
    14   14    6 1
    15   15    8 1
    16   16   10 1
    17   17   10 1
    18   18   10 1
    19   19   11 1
    20   20   11 1
    21   21   11 1
    22   22   12 1
    23   23   12 1
    24   24   12 1
    25   25    3 1
    26   26   25 2
    27   27   25 1
    28   28   26 1
    29   29   27 ar
    30   30   27 ar
    31   31   28 1
    32   32   29 ar
    33   33   29 1
    34   34   30 ar
    35   35   30 1
    36   36   32 ar
    37   37   32 1
    38   38   33 1
    39   39   33 1
    40   40   33 1
    41   41   34 1
    42   42   35 1
    43   43   35 1
    44   44   35 1
    45   45   36 1
    46   46   45 1
    47   47   45 1
    48   48   45 1
    49   34   36 ar
@<TRIPOS>SUBSTRUCTURE
     1 RES1 1

