# MOL2 file generated by ConQuest
# Please check atom types

@<TRIPOS>MOLECULE
KEZYEW
    14    21     1
SMALL
NO_CHARGES
****
Generated from CSD

@<TRIPOS>ATOM
      1 N1         1.7037    7.7792    4.8778 N.2       1 RES1    0.0000
      2 N2         2.0351    6.6291    4.3435 N.2       1 RES1    0.0000
      3 N3         4.0166    7.5510    1.4530 N.2       1 RES1    0.0000
      4 C1         3.1774    7.7792    2.6619 C.3       1 RES1    0.0000
      5 O1         4.3472    6.4381    1.1248 O.3       1 RES1    0.0000
      6 C2         2.7718    6.6117    3.2302 C.2       1 RES1    0.0000
      7 H1         3.0136    5.7826    2.8347 H         1 RES1    0.0000
      8 O2         4.3217    8.6059    0.8841 O.3       1 RES1    0.0000
      9 N2F        2.0351    8.9293    4.3435 N.2       1 RES1    0.0000
     10 N3F        4.0166    8.0074    1.4530 N.2       1 RES1    0.0000
     11 O1F        4.3472    9.1204    1.1248 O.3       1 RES1    0.0000
     12 C2F        2.7718    8.9467    3.2302 C.2       1 RES1    0.0000
     13 H1F        3.0136    9.7759    2.8347 H         1 RES1    0.0000
     14 O2F        4.3217    6.9526    0.8841 O.3       1 RES1    0.0000
@<TRIPOS>BOND
     1    1    2 1
     2    2    6 1
     3    3    4 1
     4    4    6 1
     5    5    3 1
     6    6    7 1
     7    8    3 1
     8    9    1 1
     9   10    4 1
    10   11    3 1
    11   12    4 1
    12   13   12 1
    13   14    3 1
    14    5   10 1
    15    5   14 1
    16    8   10 1
    17    8   11 1
    18    8   14 1
    19    9   12 1
    20   10   11 1
    21   10   14 1
@<TRIPOS>SUBSTRUCTURE
     1 RES1 1

@<TRIPOS>CRYSIN
   8.7680   10.3723    5.6099  90.0000  90.0000  90.0000  62 1

