# MOL2 file generated by ConQuest
# Please check atom types

@<TRIPOS>MOLECULE
KIBGIO
    32    32     1
SMALL
USER_CHARGES
****
Generated from CSD

@<TRIPOS>ATOM
      1 O1         2.4649    5.2347    4.1324 O.2       1 RES1   -1.0000
      2 O2         2.5932    9.3534    6.5698 O.2       1 RES1    0.0000
      3 N1         3.4131    6.1430    3.9964 N.pl3     1 RES1    1.0000
      4 N2         2.2976    7.2802    5.6273 N.am      1 RES1    0.0000
      5 H1         1.7596    6.6106    5.5894 H         1 RES1    0.0000
      6 O3         7.3913    7.4458    2.0007 O.2       1 RES1    0.0000
      7 N3         1.0443    7.9264    7.4205 N.am      1 RES1    0.0000
      8 H2         0.6613    7.1686    7.2815 H         1 RES1    0.0000
      9 O4         6.4483    5.5974    1.4096 O.2       1 RES1    0.0000
     10 N4         6.4871    6.6244    2.0671 N.pl3     1 RES1    0.0000
     11 C1         3.3508    7.2736    4.7768 C.ar      1 RES1    0.0000
     12 C2         2.0024    8.2899    6.5732 C.2       1 RES1    0.0000
     13 C3         5.3984    6.8937    2.9975 C.ar      1 RES1    0.0000
     14 C4         4.4117    5.9534    3.1204 C.ar      1 RES1    0.0000
     15 H3         4.4328    5.1852    2.5975 H         1 RES1    0.0000
     16 C5         5.3763    8.0568    3.7422 C.ar      1 RES1    0.0000
     17 H4         6.0405    8.7007    3.6423 H         1 RES1    0.0000
     18 C6         4.3485    8.2360    4.6309 C.ar      1 RES1    0.0000
     19 H5         4.3160    9.0112    5.1440 H         1 RES1    0.0000
     20 C7         0.5822    8.7181    8.5823 C.3       1 RES1    0.0000
     21 C8        -0.0908    9.9901    8.1109 C.3       1 RES1    0.0000
     22 H6         0.5126   10.4814    7.5489 H         1 RES1    0.0000
     23 H7        -0.3300   10.5265    8.8706 H         1 RES1    0.0000
     24 H8        -0.8821    9.7679    7.6135 H         1 RES1    0.0000
     25 C9        -0.4332    7.8405    9.2962 C.3       1 RES1    0.0000
     26 H9        -1.1815    7.6819    8.7166 H         1 RES1    0.0000
     27 H10       -0.7336    8.2832   10.0934 H         1 RES1    0.0000
     28 H11       -0.0251    7.0031    9.5283 H         1 RES1    0.0000
     29 C10        1.7565    9.0415    9.4919 C.3       1 RES1    0.0000
     30 H12        2.1983    8.2276    9.7468 H         1 RES1    0.0000
     31 H13        1.4380    9.4922   10.2776 H         1 RES1    0.0000
     32 H14        2.3755    9.6093    9.0267 H         1 RES1    0.0000
@<TRIPOS>BOND
     1    1    3 1
     2    2   12 2
     3    3   11 ar
     4    4    5 1
     5    6   10 2
     6    7    8 1
     7    9   10 2
     8   10   13 1
     9   11    4 1
    10   12    4 1
    11   13   14 ar
    12   14    3 ar
    13   15   14 1
    14   16   13 ar
    15   17   16 1
    16   18   11 ar
    17   19   18 1
    18   20    7 1
    19   21   20 1
    20   22   21 1
    21   23   21 1
    22   24   21 1
    23   25   20 1
    24   26   25 1
    25   27   25 1
    26   28   25 1
    27   29   20 1
    28   30   29 1
    29   31   29 1
    30   32   29 1
    31    7   12 1
    32   16   18 ar
@<TRIPOS>SUBSTRUCTURE
     1 RES1 1

@<TRIPOS>CRYSIN
   5.8686    9.8609   10.6814  85.2530  77.7530  88.2000   2 1

