# MOL2 file generated by ConQuest
# Please check atom types

@<TRIPOS>MOLECULE
KIBGAG
    62    66     2
SMALL
NO_CHARGES
****
Generated from CSD

@<TRIPOS>ATOM
      1 N1         2.4174    1.6465    0.1754 N.3       1 RES1    0.0000
      2 N2         2.5809    0.1186   -2.4409 N.ar      1 RES1    0.0000
      3 C1         3.2660    2.0389   -0.9632 C.3       1 RES1    0.0000
      4 N3         5.3687   -0.5669   -2.5067 N.ar      1 RES1    0.0000
      5 C2         2.4162    3.1123   -1.7895 C.3       1 RES1    0.0000
      6 C3         1.0462    3.1427   -1.1031 C.3       1 RES1    0.0000
      7 C4         3.0921    4.4686   -1.8875 C.2       1 RES1    0.0000
      8 O1         2.8157    5.3778   -1.1409 O.2       1 RES1    0.0000
      9 C5         3.4998    0.7998   -1.8183 C.ar      1 RES1    0.0000
     10 C6         4.7034    2.4052   -0.5789 C.ar      1 RES1    0.0000
     11 N4        -3.3388    3.6061   -4.7737 N.pl3     1 RES1    0.0000
     12 C7         6.5433    3.5928    0.3874 C.ar      1 RES1    0.0000
     13 H1         6.8667    4.3129    0.8785 H         1 RES1    0.0000
     14 C8        -0.1046    3.2571   -2.0776 C.ar      1 RES1    0.0000
     15 C9         4.8856    0.4685   -1.8570 C.ar      1 RES1    0.0000
     16 C10        1.0184    1.8677   -0.2281 C.3       1 RES1    0.0000
     17 C11        5.6145    1.4752   -1.0913 C.ar      1 RES1    0.0000
     18 C12        2.5769    2.3006    1.4742 C.3       1 RES1    0.0000
     19 H2         2.6277    3.2654    1.3836 H         1 RES1    0.0000
     20 H3         3.3651    1.9801    1.9401 H         1 RES1    0.0000
     21 C13        3.0438   -0.9945   -3.1191 C.ar      1 RES1    0.0000
     22 C14        4.4184   -1.3321   -3.1408 C.ar      1 RES1    0.0000
     23 C15       -2.2135    3.4809   -3.8379 C.ar      1 RES1    0.0000
     24 C16        4.1156    4.6221   -2.9635 C.3       1 RES1    0.0000
     25 H4         4.6971    3.8584   -2.9635 H         1 RES1    0.0000
     26 H5         4.6317    5.4157   -2.8035 H         1 RES1    0.0000
     27 H6         3.6776    4.6907   -3.8148 H         1 RES1    0.0000
     28 C17       -1.9598    4.5110   -2.9758 C.ar      1 RES1    0.0000
     29 H7        -2.4848    5.2783   -2.9856 H         1 RES1    0.0000
     30 C18        7.4259    2.6572   -0.1026 C.ar      1 RES1    0.0000
     31 H8         8.3347    2.7506    0.0704 H         1 RES1    0.0000
     32 C19        0.2394    1.9876    1.0894 C.3       1 RES1    0.0000
     33 H9        -0.2183    2.8408    1.1431 H         1 RES1    0.0000
     34 H10       -0.4134    1.2747    1.1703 H         1 RES1    0.0000
     35 C20        5.1783    3.4804    0.1606 C.ar      1 RES1    0.0000
     36 H11        4.5899    4.1163    0.4991 H         1 RES1    0.0000
     37 O2        -3.7790    4.7073   -4.9881 O.2       1 RES1    0.0000
     38 C21        4.8221   -2.4829   -3.8435 C.ar      1 RES1    0.0000
     39 H12        5.7216   -2.7166   -3.8681 H         1 RES1    0.0000
     40 C22       -1.4439    2.3422   -3.8597 C.ar      1 RES1    0.0000
     41 H13       -1.6323    1.6545   -4.4568 H         1 RES1    0.0000
     42 C23        6.9834    1.5834   -0.8473 C.ar      1 RES1    0.0000
     43 H14        7.5801    0.9506   -1.1763 H         1 RES1    0.0000
     44 C24        2.1259   -1.8017   -3.8088 C.ar      1 RES1    0.0000
     45 H15        1.2224   -1.5794   -3.8138 H         1 RES1    0.0000
     46 C25       -0.9042    4.3886   -2.0860 C.ar      1 RES1    0.0000
     47 H16       -0.7300    5.0763   -1.4853 H         1 RES1    0.0000
     48 C26       -0.3847    2.2376   -2.9777 C.ar      1 RES1    0.0000
     49 H17        0.1472    1.4747   -2.9876 H         1 RES1    0.0000
     50 O3        -3.7942    2.5133   -5.2055 O.2       1 RES1    0.0000
     51 C27        1.3037    1.8735    2.1760 C.3       1 RES1    0.0000
     52 H18        1.1038    2.4597    2.9222 H         1 RES1    0.0000
     53 H19        1.3737    0.9623    2.5006 H         1 RES1    0.0000
     54 C28        2.5607   -2.9187   -4.4759 C.ar      1 RES1    0.0000
     55 H20        1.9480   -3.4555   -4.9247 H         1 RES1    0.0000
     56 C29        3.9071   -3.2554   -4.4867 C.ar      1 RES1    0.0000
     57 H21        4.1874   -4.0187   -4.9388 H         1 RES1    0.0000
     58 H22        2.3342    2.7633   -2.7179 H         1 RES1    0.0000
     59 H23        0.7154    1.1079   -0.7507 H         1 RES1    0.0000
     60 H24        1.0426    3.9005   -0.5152 H         1 RES1    0.0000
     61 O4        -4.1031    4.5440   -4.6721 Du        2 SUP2    0.0000
     62 O5        -3.4562    2.8044   -5.6804 Du        2 SUP2    0.0000
@<TRIPOS>BOND
     1    1    3 1
     2    2    9 ar
     3    3    5 1
     4    4   15 ar
     5    5    6 1
     6    6   14 1
     7    7    5 1
     8    8    7 2
     9    9    3 1
    10   10    3 1
    11   11   23 1
    12   12   13 1
    13   14   46 ar
    14   15    9 ar
    15   16    1 1
    16   17   10 ar
    17   18    1 1
    18   19   18 1
    19   20   18 1
    20   21    2 ar
    21   22    4 ar
    22   23   28 ar
    23   24    7 1
    24   25   24 1
    25   26   24 1
    26   27   24 1
    27   28   29 1
    28   30   12 ar
    29   31   30 1
    30   32   16 1
    31   33   32 1
    32   34   32 1
    33   35   10 ar
    34   36   35 1
    35   37   11 2
    36   38   22 ar
    37   39   38 1
    38   40   23 ar
    39   41   40 1
    40   42   17 ar
    41   43   42 1
    42   44   21 ar
    43   45   44 1
    44   46   28 ar
    45   47   46 1
    46   48   14 ar
    47   49   48 1
    48   50   11 2
    49   51   18 1
    50   52   51 1
    51   53   51 1
    52   54   44 ar
    53   55   54 1
    54   56   38 ar
    55   57   56 1
    56   58    5 1
    57   59   16 1
    58   60    6 1
    59    6   16 1
    60   12   35 ar
    61   15   17 1
    62   21   22 ar
    63   30   42 ar
    64   32   51 1
    65   40   48 ar
    66   54   56 ar
@<TRIPOS>SUBSTRUCTURE
     1 RES1 1
     2 SUP2 61

@<TRIPOS>CRYSIN
  10.9366   11.0392   11.1003  77.9000  66.6910  80.6180   2 1

