# MOL2 file generated by ConQuest
# Please check atom types

@<TRIPOS>MOLECULE
KIBMIU
    24    24     1
SMALL
NO_CHARGES
****
Generated from CSD

@<TRIPOS>ATOM
      1 N1         5.4211    1.7791    0.4789 N.3       1 RES1    0.0000
      2 N2         7.6092    1.7791   -0.3597 N.2       1 RES1    0.0000
      3 C1         6.2613    1.7791   -0.5579 C.2       1 RES1    0.0000
      4 N3         4.2633    1.7791   -1.2632 N.2       1 RES1    0.0000
      5 N4         5.5524    1.7791   -1.6607 N.2       1 RES1    0.0000
      6 N5         4.1689    1.7791    0.0130 N.2       1 RES1    0.0000
      7 N6         8.1023    1.7791   -2.6610 N.pl3     1 RES1    0.0000
      8 H1         7.1922    1.7791   -2.9216 H         1 RES1    0.0000
      9 H2         8.7499    1.7791   -3.3628 H         1 RES1    0.0000
     10 C2         8.3954    1.7791   -1.3918 C.2       1 RES1    0.0000
     11 C3         5.7130    1.7791    1.9143 C.3       1 RES1    0.0000
     12 H3         4.8901    1.7791    2.4109 H         1 RES1    0.0000
     13 H4         6.2208    0.9949    2.1373 H         1 RES1    0.0000
     14 N7        10.0242    1.7791    0.4883 N.pl3     1 RES1    0.0000
     15 C4         9.8611    1.7791   -1.0344 C.3       1 RES1    0.0000
     16 N8        10.5966    0.5323   -1.5522 N.pl3     1 RES1    0.0000
     17 O1        10.0687    0.7010    1.0014 O.2       1 RES1    0.0000
     18 O2         9.9616   -0.2348   -2.1726 O.2       1 RES1    0.0000
     19 O3        11.7695    0.4939   -1.3187 O.2       1 RES1    0.0000
     20 H4F        6.2208    2.5633    2.1373 H         1 RES1    0.0000
     21 N8F       10.5966    3.0259   -1.5522 N.pl3     1 RES1    0.0000
     22 O1F       10.0687    2.8572    1.0014 O.2       1 RES1    0.0000
     23 O2F        9.9616    3.7930   -2.1726 O.2       1 RES1    0.0000
     24 O3F       11.7695    3.0643   -1.3187 O.2       1 RES1    0.0000
@<TRIPOS>BOND
     1    1    3 1
     2    2    3 1
     3    3    5 2
     4    4    5 1
     5    6    1 1
     6    7    8 1
     7    9    7 1
     8   10    2 2
     9   11    1 1
    10   12   11 1
    11   13   11 1
    12   14   15 1
    13   15   10 1
    14   16   15 1
    15   17   14 2
    16   18   16 2
    17   19   16 2
    18   20   11 1
    19   21   15 1
    20   22   14 2
    21   23   21 2
    22   24   21 2
    23    4    6 2
    24    7   10 1
@<TRIPOS>SUBSTRUCTURE
     1 RES1 1

@<TRIPOS>CRYSIN
  12.2650    7.1164   11.7950  90.0000  90.0000  90.0000  62 1

