# MOL2 file generated by ConQuest
# Please check atom types

@<TRIPOS>MOLECULE
KIBMUG
    30    30     1
SMALL
NO_CHARGES
****
Generated from CSD

@<TRIPOS>ATOM
      1 O1        -0.8342    4.0636    6.4873 O.2       1 RES1    0.0000
      2 O2         6.0007    1.5501    2.2761 O.2       1 RES1    0.0000
      3 N1         0.7937    3.4295    5.0581 N.am      1 RES1    0.0000
      4 N2         0.5765    2.3951    7.1447 N.am      1 RES1    0.0000
      5 N3         2.5324    1.8776    5.3169 N.ar      1 RES1    0.0000
      6 N4         5.4691    1.1353    3.3118 N.2       1 RES1    0.0000
      7 C1         0.1294    3.3108    6.2832 C.2       1 RES1    0.0000
      8 C2         1.9466    2.8470    4.5979 C.ar      1 RES1    0.0000
      9 C3         0.0808    2.2308    8.5317 C.3       1 RES1    0.0000
     10 C4         4.2432    1.7732    3.6441 C.ar      1 RES1    0.0000
     11 C5         3.6643    1.3591    4.8317 C.ar      1 RES1    0.0000
     12 H1         4.0842    0.6851    5.3162 H         1 RES1    0.0000
     13 C6         3.6185    2.7757    2.8835 C.ar      1 RES1    0.0000
     14 H2         3.9847    3.0626    2.0781 H         1 RES1    0.0000
     15 C7         2.4623    3.3157    3.3584 C.ar      1 RES1    0.0000
     16 H3         2.0182    3.9789    2.8810 H         1 RES1    0.0000
     17 C8         0.8768    1.0731    9.1248 C.3       1 RES1    0.0000
     18 H4         0.7141    0.2773    8.6131 H         1 RES1    0.0000
     19 H5         0.6046    0.9301   10.0342 H         1 RES1    0.0000
     20 H6         1.8134    1.2830    9.1005 H         1 RES1    0.0000
     21 C9        -1.4105    1.8971    8.5382 C.3       1 RES1    0.0000
     22 H7        -1.9047    2.6330    8.1693 H         1 RES1    0.0000
     23 H8        -1.6989    1.7382    9.4400 H         1 RES1    0.0000
     24 H9        -1.5649    1.1109    8.0096 H         1 RES1    0.0000
     25 C10        0.3609    3.5059    9.3283 C.3       1 RES1    0.0000
     26 H10        1.3038    3.6848    9.3246 H         1 RES1    0.0000
     27 H11        0.0604    3.3902   10.2328 H         1 RES1    0.0000
     28 H12       -0.1066    4.2424    8.9276 H         1 RES1    0.0000
     29 H13        0.4476    4.0027    4.5731 H         1 RES1    0.0000
     30 H14        1.2636    1.9595    6.8743 H         1 RES1    0.0000
@<TRIPOS>BOND
     1    1    7 2
     2    2    6 2
     3    3    7 1
     4    4    7 1
     5    5    8 ar
     6    6   10 1
     7    8    3 1
     8    9    4 1
     9   10   11 ar
    10   11    5 ar
    11   12   11 1
    12   13   10 ar
    13   14   13 1
    14   15    8 ar
    15   16   15 1
    16   17    9 1
    17   18   17 1
    18   19   17 1
    19   20   17 1
    20   21    9 1
    21   22   21 1
    22   23   21 1
    23   24   21 1
    24   25    9 1
    25   26   25 1
    26   27   25 1
    27   28   25 1
    28   29    3 1
    29   30    4 1
    30   13   15 ar
@<TRIPOS>SUBSTRUCTURE
     1 RES1 1

@<TRIPOS>CRYSIN
   6.0227    9.4827    9.8514  90.5540  96.2440  90.2210   2 1

