# MOL2 file generated by ConQuest
# Please check atom types

@<TRIPOS>MOLECULE
KICVUQ
    44    46     1
SMALL
NO_CHARGES
****
Generated from CSD

@<TRIPOS>ATOM
      1 C1         2.1125    8.8952   13.0046 C.ar      1 RES1    0.0000
      2 C2         1.0917    9.7327   12.6419 C.ar      1 RES1    0.0000
      3 H1         0.2336    9.3982   12.5122 H         1 RES1    0.0000
      4 C3         1.3491   11.0829   12.4665 C.ar      1 RES1    0.0000
      5 H2         0.6512   11.6433   12.2159 H         1 RES1    0.0000
      6 C4         2.6039   11.6236   12.6537 C.ar      1 RES1    0.0000
      7 C5         3.6216   10.7468   13.0164 C.ar      1 RES1    0.0000
      8 H3         4.4816   11.0756   13.1461 H         1 RES1    0.0000
      9 C6         3.3794    9.4021   13.1859 C.ar      1 RES1    0.0000
     10 H4         4.0755    8.8325   13.4233 H         1 RES1    0.0000
     11 C7         2.9081   13.0826   12.4650 C.3       1 RES1    0.0000
     12 H5         3.7389   13.2576   12.9559 H         1 RES1    0.0000
     13 C8         1.8765   14.0945   12.9899 C.3       1 RES1    0.0000
     14 H6         0.9720   13.7208   12.9338 H         1 RES1    0.0000
     15 C9         2.0097   15.2910   12.0847 C.2       1 RES1    0.0000
     16 C10        2.7170   14.9971   11.0187 C.2       1 RES1    0.0000
     17 H7         2.9227   15.6131   10.3524 H         1 RES1    0.0000
     18 C11        3.1628   13.5499   10.9834 C.3       1 RES1    0.0000
     19 C12        2.3261   12.8088   10.0192 C.1       1 RES1    0.0000
     20 C13        1.3590   16.5842   12.4326 C.ar      1 RES1    0.0000
     21 C14        0.1032   16.6006   13.0017 C.ar      1 RES1    0.0000
     22 H8        -0.3246   15.7984   13.2022 H         1 RES1    0.0000
     23 C15       -0.5253   17.8069   13.2773 C.ar      1 RES1    0.0000
     24 H9        -1.3724   17.8128   13.6607 H         1 RES1    0.0000
     25 C16        0.1141   19.0053   12.9825 C.ar      1 RES1    0.0000
     26 H10       -0.2990   19.8174   13.1682 H         1 RES1    0.0000
     27 C17        1.3592   18.9738   12.4149 C.ar      1 RES1    0.0000
     28 H11        1.7958   19.7721   12.2159 H         1 RES1    0.0000
     29 C18        1.9668   17.7793   12.1377 C.ar      1 RES1    0.0000
     30 H12        2.8084   17.7774   11.7426 H         1 RES1    0.0000
     31 C19        4.6664   13.3993   10.6384 C.2       1 RES1    0.0000
     32 C20        0.6566    7.0073   13.1653 C.3       1 RES1    0.0000
     33 H13        0.0730    7.5217   13.7299 H         1 RES1    0.0000
     34 H14        0.6729    6.0966   13.4660 H         1 RES1    0.0000
     35 H15        0.3382    7.0408   12.2616 H         1 RES1    0.0000
     36 N1         1.6847   12.2630    9.2526 N.1       1 RES1    0.0000
     37 N2         2.2084   14.4612   14.4118 N.pl3     1 RES1    0.0000
     38 O1         1.9679    7.5489   13.2265 O.3       1 RES1    0.0000
     39 O2         1.4087   14.1760   15.2658 O.2       1 RES1    0.0000
     40 O3         3.2537   15.0200   14.6284 O.2       1 RES1    0.0000
     41 O4         5.5014   13.5501   11.4887 O.2       1 RES1    0.0000
     42 N3         4.9624   13.0984    9.3735 N.am      1 RES1    0.0000
     43 H16        5.7831   13.0033    9.1346 H         1 RES1    0.0000
     44 H17        4.3324   12.9994    8.7955 H         1 RES1    0.0000
@<TRIPOS>BOND
     1    1    2 ar
     2    2    3 1
     3    4    2 ar
     4    5    4 1
     5    6    4 ar
     6    7    6 ar
     7    8    7 1
     8    9    1 ar
     9   10    9 1
    10   11    6 1
    11   12   11 1
    12   13   11 1
    13   14   13 1
    14   15   13 1
    15   16   15 2
    16   17   16 1
    17   18   11 1
    18   19   18 1
    19   20   15 1
    20   21   20 ar
    21   22   21 1
    22   23   21 ar
    23   24   23 1
    24   25   23 ar
    25   26   25 1
    26   27   25 ar
    27   28   27 1
    28   29   20 ar
    29   30   29 1
    30   31   18 1
    31   32   33 1
    32   34   32 1
    33   35   32 1
    34   36   19 3
    35   37   13 1
    36   38    1 1
    37   39   37 2
    38   40   37 2
    39   41   31 2
    40   42   31 1
    41   43   42 1
    42   44   42 1
    43    7    9 ar
    44   16   18 1
    45   27   29 ar
    46   32   38 1
@<TRIPOS>SUBSTRUCTURE
     1 RES1 1

@<TRIPOS>CRYSIN
   6.2990   19.7110   14.7440  90.0000  90.7390  90.0000  14 1

