# MOL2 file generated by ConQuest
# Please check atom types

@<TRIPOS>MOLECULE
KICWUR
    44    46     1
SMALL
NO_CHARGES
****
Generated from CSD

@<TRIPOS>ATOM
      1 C1         3.6006    7.0892    7.7435 C.3       1 RES1    0.0000
      2 C2         3.5581    7.4146    9.2189 C.2       1 RES1    0.0000
      3 H1         2.7840    7.3160    9.7609 H         1 RES1    0.0000
      4 C3         4.7290    7.8554    9.6723 C.2       1 RES1    0.0000
      5 C4         5.7339    7.9097    8.5460 C.3       1 RES1    0.0000
      6 H2         5.8059    8.8404    8.1865 H         1 RES1    0.0000
      7 C5         5.1547    6.9620    7.4775 C.3       1 RES1    0.0000
      8 H3         5.4225    6.0328    7.7320 H         1 RES1    0.0000
      9 C6         5.5658    7.1660    6.0326 C.ar      1 RES1    0.0000
     10 C7         6.5417    8.0775    5.6242 C.ar      1 RES1    0.0000
     11 H4         6.9754    8.6218    6.2719 H         1 RES1    0.0000
     12 C8         6.8881    8.1996    4.2822 C.ar      1 RES1    0.0000
     13 H5         7.5664    8.8123    4.0228 H         1 RES1    0.0000
     14 C9         6.2448    7.4268    3.3176 C.ar      1 RES1    0.0000
     15 C10        5.2556    6.5284    3.7017 C.ar      1 RES1    0.0000
     16 H6         4.7966    6.0122    3.0497 H         1 RES1    0.0000
     17 C11        4.9460    6.3935    5.0485 C.ar      1 RES1    0.0000
     18 H7         4.2923    5.7556    5.3081 H         1 RES1    0.0000
     19 C12        5.0238    8.3261   11.0402 C.ar      1 RES1    0.0000
     20 C13        4.4940    7.6596   12.1449 C.ar      1 RES1    0.0000
     21 H8         3.9557    6.8874   12.0182 H         1 RES1    0.0000
     22 C14        4.7513    8.1229   13.4310 C.ar      1 RES1    0.0000
     23 H9         4.3858    7.6670   14.1799 H         1 RES1    0.0000
     24 C15        5.5383    9.2451   13.6235 C.ar      1 RES1    0.0000
     25 H10        5.7148    9.5580   14.5027 H         1 RES1    0.0000
     26 C16        6.0648    9.9070   12.5344 C.ar      1 RES1    0.0000
     27 H11        6.6012   10.6792   12.6672 H         1 RES1    0.0000
     28 C17        5.8180    9.4537   11.2411 C.ar      1 RES1    0.0000
     29 H12        6.1899    9.9121   10.4974 H         1 RES1    0.0000
     30 C18        2.8944    5.8218    7.4687 C.1       1 RES1    0.0000
     31 C19        3.0835    8.2891    6.9059 C.2       1 RES1    0.0000
     32 C20        6.0937    6.7477    1.0323 C.3       1 RES1    0.0000
     33 H13        5.1240    6.8828    0.9859 H         1 RES1    0.0000
     34 H14        6.2831    5.8155    1.2702 H         1 RES1    0.0000
     35 H15        6.4936    6.9507    0.1608 H         1 RES1    0.0000
     36 N1         2.3607    4.8255    7.2774 N.1       1 RES1    0.0000
     37 N2         7.0967    7.4074    8.9999 N.pl3     1 RES1    0.0000
     38 N3         2.2136    8.0651    5.9282 N.am      1 RES1    0.0000
     39 H16        1.9370    8.7309    5.4235 H         1 RES1    0.0000
     40 H17        1.9130    7.2510    5.7847 H         1 RES1    0.0000
     41 O1         3.5543    9.3924    7.1767 O.2       1 RES1    0.0000
     42 O2         7.1419    6.3674    9.6418 O.2       1 RES1    0.0000
     43 O3         8.0772    8.0835    8.6983 O.2       1 RES1    0.0000
     44 O4         6.6498    7.6156    2.0251 O.3       1 RES1    0.0000
@<TRIPOS>BOND
     1    1    2 1
     2    2    3 1
     3    4    2 2
     4    5    4 1
     5    6    5 1
     6    7    1 1
     7    8    7 1
     8    9    7 1
     9   10    9 ar
    10   11   10 1
    11   12   10 ar
    12   13   12 1
    13   14   12 ar
    14   15   14 ar
    15   16   15 1
    16   17    9 ar
    17   18   17 1
    18   19    4 1
    19   20   19 ar
    20   21   20 1
    21   22   20 ar
    22   23   22 1
    23   24   22 ar
    24   25   24 1
    25   26   24 ar
    26   27   26 1
    27   28   19 ar
    28   29   28 1
    29   30    1 1
    30   31    1 1
    31   32   33 1
    32   34   32 1
    33   35   32 1
    34   36   30 3
    35   37    5 1
    36   38   31 1
    37   39   38 1
    38   40   38 1
    39   41   31 2
    40   42   37 2
    41   43   37 2
    42   44   14 1
    43    5    7 1
    44   15   17 ar
    45   26   28 ar
    46   32   44 1
@<TRIPOS>SUBSTRUCTURE
     1 RES1 1

@<TRIPOS>CRYSIN
   7.7378    9.8726   11.9093  86.5010  78.2460  81.6730   2 1

