# MOL2 file generated by ConQuest
# Please check atom types

@<TRIPOS>MOLECULE
KIFSEA
    74    76     1
SMALL
NO_CHARGES
****
Generated from CSD

@<TRIPOS>ATOM
      1 O1         4.8067    7.3195   14.5415 O.3       1 RES1    0.0000
      2 O2         4.7020    9.4663   10.7006 O.2       1 RES1    0.0000
      3 O3         3.4818    6.3590    7.6263 O.2       1 RES1    0.0000
      4 O4         3.6960   11.4021   13.6942 O.3       1 RES1    0.0000
      5 H1         3.0214   11.3534   14.1922 H         1 RES1    0.0000
      6 O5         5.1753    1.8912   12.2885 O.3       1 RES1    0.0000
      7 H2         4.6434    1.4585   12.7737 H         1 RES1    0.0000
      8 O6         1.6270    9.2378    9.1567 O.2       1 RES1    0.0000
      9 O7         2.0332   10.7139    7.4827 O.3       1 RES1    0.0000
     10 N1         5.4108    5.9748   14.3844 N.3       1 RES1    0.0000
     11 N2         4.1151    8.1667    8.9061 N.am      1 RES1    0.0000
     12 C1         5.4703    5.7438   12.8997 C.3       1 RES1    0.0000
     13 H3         5.0424    4.8700   12.6687 H         1 RES1    0.0000
     14 C2         4.6620    6.8899   12.3266 C.2       1 RES1    0.0000
     15 C3         4.3495    7.7298   13.3269 C.2       1 RES1    0.0000
     16 C4         4.3975    7.0488   10.9215 C.2       1 RES1    0.0000
     17 C5         4.4238    8.3908   10.2363 C.2       1 RES1    0.0000
     18 C6         3.8697    6.8214    8.6714 C.2       1 RES1    0.0000
     19 C7         4.1514    6.1143    9.9657 C.2       1 RES1    0.0000
     20 C8         4.0438    4.7082   10.0865 C.1       1 RES1    0.0000
     21 C9         3.9091    3.5273   10.1779 C.1       1 RES1    0.0000
     22 C10        3.8268    2.0617   10.2779 C.3       1 RES1    0.0000
     23 H4         3.7374    1.6787    9.3693 H         1 RES1    0.0000
     24 H5         3.0181    1.8157   10.7925 H         1 RES1    0.0000
     25 C11        5.0440    1.4641   10.9506 C.3       1 RES1    0.0000
     26 H6         4.9757    0.4767   10.9294 H         1 RES1    0.0000
     27 H7         5.8553    1.7235   10.4454 H         1 RES1    0.0000
     28 C12        3.5634    8.9958   13.4009 C.3       1 RES1    0.0000
     29 H8         2.8435    8.8930   14.0725 H         1 RES1    0.0000
     30 H9         3.1385    9.1666   12.5232 H         1 RES1    0.0000
     31 C13        4.4350   10.1921   13.7779 C.3       1 RES1    0.0000
     32 H10        4.7736   10.0756   14.7009 H         1 RES1    0.0000
     33 H11        5.2137   10.2381   13.1687 H         1 RES1    0.0000
     34 C14        4.5045    5.0385   15.1397 C.3       1 RES1    0.0000
     35 C15        4.4170    5.5477   16.5784 C.3       1 RES1    0.0000
     36 H12        5.3197    5.7147   16.9213 H         1 RES1    0.0000
     37 H13        3.9748    4.8745   17.1367 H         1 RES1    0.0000
     38 H14        3.9004    6.3801   16.5993 H         1 RES1    0.0000
     39 C16        3.1122    4.9308   14.5303 C.3       1 RES1    0.0000
     40 H15        2.7339    5.8280   14.4195 H         1 RES1    0.0000
     41 H16        2.5361    4.4043   15.1231 H         1 RES1    0.0000
     42 H17        3.1712    4.4908   13.6567 H         1 RES1    0.0000
     43 C17        5.2233    3.6878   15.1273 C.3       1 RES1    0.0000
     44 H18        5.3563    3.3969   14.2011 H         1 RES1    0.0000
     45 H19        4.6810    3.0248   15.6034 H         1 RES1    0.0000
     46 H20        6.0933    3.7766   15.5699 H         1 RES1    0.0000
     47 C18        6.9072    5.7663   12.4188 C.ar      1 RES1    0.0000
     48 C19        7.5395    4.5826   12.0907 C.ar      1 RES1    0.0000
     49 H21        7.0717    3.7584   12.1538 H         1 RES1    0.0000
     50 C20        8.8674    4.6027   11.6668 C.ar      1 RES1    0.0000
     51 H22        9.3039    3.7897   11.4399 H         1 RES1    0.0000
     52 C21        9.5468    5.7953   11.5760 C.ar      1 RES1    0.0000
     53 H23       10.4550    5.8012   11.2965 H         1 RES1    0.0000
     54 C22        8.9240    6.9720   11.8849 C.ar      1 RES1    0.0000
     55 H24        9.3967    7.7924   11.8119 H         1 RES1    0.0000
     56 C23        7.5961    6.9688   12.3071 C.ar      1 RES1    0.0000
     57 H25        7.1627    7.7871   12.5183 H         1 RES1    0.0000
     58 C24        3.7384    9.2374    8.0107 C.3       1 RES1    0.0000
     59 H26        3.7891    8.9192    7.0746 H         1 RES1    0.0000
     60 H27        4.3710    9.9923    8.1132 H         1 RES1    0.0000
     61 C25        2.3273    9.7122    8.3106 C.2       1 RES1    0.0000
     62 C26        0.6743   11.3077    7.4273 C.3       1 RES1    0.0000
     63 C27       -0.3165   10.2405    7.0343 C.3       1 RES1    0.0000
     64 H28        0.0100    9.7677    6.2409 H         1 RES1    0.0000
     65 H29       -1.1816   10.6563    6.8338 H         1 RES1    0.0000
     66 H30       -0.4230    9.6057    7.7729 H         1 RES1    0.0000
     67 C28        0.3457   11.9764    8.7372 C.3       1 RES1    0.0000
     68 H31        0.2735   11.2986    9.4410 H         1 RES1    0.0000
     69 H32       -0.5060   12.4545    8.6553 H         1 RES1    0.0000
     70 H33        1.0559   12.6116    8.9667 H         1 RES1    0.0000
     71 C29        0.8338   12.3272    6.3135 C.3       1 RES1    0.0000
     72 H34        1.5238   12.9769    6.5618 H         1 RES1    0.0000
     73 H35       -0.0174   12.7925    6.1724 H         1 RES1    0.0000
     74 H36        1.0968   11.8702    5.4876 H         1 RES1    0.0000
@<TRIPOS>BOND
     1    1   10 1
     2    2   17 2
     3    3   18 2
     4    4    5 1
     5    6    7 1
     6    8   61 2
     7    9   61 1
     8   10   12 1
     9   11   17 1
    10   12   13 1
    11   14   12 1
    12   15    1 1
    13   16   14 1
    14   17   16 1
    15   18   11 1
    16   19   16 2
    17   20   19 1
    18   21   20 3
    19   22   21 1
    20   23   22 1
    21   24   22 1
    22   25    6 1
    23   26   25 1
    24   27   25 1
    25   28   15 1
    26   29   28 1
    27   30   28 1
    28   31    4 1
    29   32   31 1
    30   33   31 1
    31   34   10 1
    32   35   34 1
    33   36   35 1
    34   37   35 1
    35   38   35 1
    36   39   34 1
    37   40   39 1
    38   41   39 1
    39   42   39 1
    40   43   34 1
    41   44   43 1
    42   45   43 1
    43   46   43 1
    44   47   12 1
    45   48   47 ar
    46   49   48 1
    47   50   48 ar
    48   51   50 1
    49   52   50 ar
    50   53   52 1
    51   54   52 ar
    52   55   54 1
    53   56   47 ar
    54   57   56 1
    55   58   11 1
    56   59   58 1
    57   60   58 1
    58   61   58 1
    59   62    9 1
    60   63   62 1
    61   64   63 1
    62   65   63 1
    63   66   63 1
    64   67   62 1
    65   68   67 1
    66   69   67 1
    67   70   67 1
    68   71   62 1
    69   72   71 1
    70   73   71 1
    71   74   71 1
    72   14   15 2
    73   18   19 1
    74   22   25 1
    75   28   31 1
    76   54   56 ar
@<TRIPOS>SUBSTRUCTURE
     1 RES1 1

@<TRIPOS>CRYSIN
   8.5783   11.4126   29.4816  90.0000  90.0000  90.0000  19 1

