# MOL2 file generated by ConQuest
# Please check atom types

@<TRIPOS>MOLECULE
KIGSEZ
    27    28     1
SMALL
NO_CHARGES
****
Generated from CSD

@<TRIPOS>ATOM
      1 C1        -0.3796   10.5423    6.0108 C.ar      1 RES1    0.0000
      2 C2         0.9045   10.6939    6.5341 C.ar      1 RES1    0.0000
      3 C3         1.9648   10.1437    5.8425 C.ar      1 RES1    0.0000
      4 H1         2.8281   10.2286    6.1768 H         1 RES1    0.0000
      5 C4         1.7475    9.4643    4.6505 C.ar      1 RES1    0.0000
      6 H2         2.4688    9.1146    4.1780 H         1 RES1    0.0000
      7 C5         0.4582    9.3063    4.1629 C.ar      1 RES1    0.0000
      8 H3         0.3163    8.8427    3.3698 H         1 RES1    0.0000
      9 C6        -0.6171    9.8370    4.8531 C.ar      1 RES1    0.0000
     10 H4        -1.4850    9.7186    4.5402 H         1 RES1    0.0000
     11 C7         0.7607   11.7590    9.8354 C.2       1 RES1    0.0000
     12 C8         1.6443   12.7394    9.3578 C.2       1 RES1    0.0000
     13 H5         2.0159   13.4389    9.8461 H         1 RES1    0.0000
     14 C9         1.8516   12.4640    8.0323 C.2       1 RES1    0.0000
     15 C10        0.2700   11.5831   11.2323 C.3       1 RES1    0.0000
     16 H6        -0.3240   10.8300   11.2702 H         1 RES1    0.0000
     17 H7        -0.1979   12.3738   11.5092 H         1 RES1    0.0000
     18 H8         1.0163   11.4315   11.8172 H         1 RES1    0.0000
     19 C11        2.6737   13.1587    7.0056 C.3       1 RES1    0.0000
     20 H9         2.5852   12.7046    6.1640 H         1 RES1    0.0000
     21 H10        3.5951   13.1544    7.2759 H         1 RES1    0.0000
     22 H11        2.3714   14.0654    6.9138 H         1 RES1    0.0000
     23 N1        -1.5242   11.2039    6.6427 N.pl3     1 RES1    0.0000
     24 N2         1.1057   11.3453    7.7760 N.pl3     1 RES1    0.0000
     25 N3         0.4106   10.9135    8.8771 N.2       1 RES1    0.0000
     26 O1        -1.4051   12.3739    6.9721 O.2       1 RES1    0.0000
     27 O2        -2.5662   10.5639    6.7502 O.2       1 RES1    0.0000
@<TRIPOS>BOND
     1    1    2 ar
     2    2    3 ar
     3    3    4 1
     4    5    3 ar
     5    6    5 1
     6    7    5 ar
     7    8    7 1
     8    9    1 ar
     9   10    9 1
    10   11   12 1
    11   12   13 1
    12   14   12 2
    13   15   11 1
    14   16   15 1
    15   17   15 1
    16   18   15 1
    17   19   14 1
    18   20   19 1
    19   21   19 1
    20   22   19 1
    21   23    1 1
    22   24    2 1
    23   25   11 2
    24   26   23 2
    25   27   23 2
    26    7    9 ar
    27   14   24 1
    28   24   25 1
@<TRIPOS>SUBSTRUCTURE
     1 RES1 1

@<TRIPOS>CRYSIN
   7.9312   12.5304   10.6766  90.0000  95.8880  90.0000 231 1

