# MOL2 file generated by ConQuest
# Please check atom types

@<TRIPOS>MOLECULE
KIGZEG
    58    60     1
SMALL
NO_CHARGES
****
Generated from CSD

@<TRIPOS>ATOM
      1 O1         0.4861    3.4625   12.0975 O.3       1 RES1    0.0000
      2 O2        -2.6464    4.5318    4.7295 O.2       1 RES1    0.0000
      3 O3         0.7737    5.1554    5.2732 O.3       1 RES1    0.0000
      4 O4         2.1969    1.1493    2.5787 O.2       1 RES1    0.0000
      5 O5         0.1780    1.2570    1.9167 O.2       1 RES1    0.0000
      6 N1        -1.4346    5.2403    6.4813 N.am      1 RES1    0.0000
      7 N2         1.1571    1.7500    2.4448 N.pl3     1 RES1    0.0000
      8 C1         1.5487    2.5353   11.9111 C.3       1 RES1    0.0000
      9 C2        -0.2669    3.7956   10.9659 C.ar      1 RES1    0.0000
     10 C3        -0.3841    3.0430    9.8893 C.ar      1 RES1    0.0000
     11 C4        -1.1417    3.4952    8.8067 C.ar      1 RES1    0.0000
     12 C5        -1.7807    4.6951    8.7959 C.ar      1 RES1    0.0000
     13 C6        -1.6581    5.4493    9.9490 C.ar      1 RES1    0.0000
     14 C7        -0.9110    4.9840   11.0472 C.ar      1 RES1    0.0000
     15 C8        -2.4597    5.1734    7.5341 C.3       1 RES1    0.0000
     16 C9        -1.5550    4.8665    5.2266 C.2       1 RES1    0.0000
     17 C10       -0.2656    4.7734    4.3866 C.3       1 RES1    0.0000
     18 C11       -0.1500    3.2944    3.9015 C.3       1 RES1    0.0000
     19 C12        1.0482    3.1589    2.9622 C.3       1 RES1    0.0000
     20 C13       -3.2149    6.4859    7.6739 C.3       1 RES1    0.0000
     21 C14       -0.3448    5.7448    3.2012 C.ar      1 RES1    0.0000
     22 C15        0.5973    6.7210    3.0292 C.ar      1 RES1    0.0000
     23 C16        0.5521    7.6172    1.9860 C.ar      1 RES1    0.0000
     24 C17       -0.4592    7.5487    1.0695 C.ar      1 RES1    0.0000
     25 C18       -1.4226    6.5627    1.1937 C.ar      1 RES1    0.0000
     26 C19       -1.3616    5.6697    2.2453 C.ar      1 RES1    0.0000
     27 C20       -0.1140    2.2904    5.0426 C.ar      1 RES1    0.0000
     28 C21       -1.2118    1.4676    5.2852 C.ar      1 RES1    0.0000
     29 C22       -1.2131    0.5551    6.3188 C.ar      1 RES1    0.0000
     30 C23       -0.1207    0.4310    7.1254 C.ar      1 RES1    0.0000
     31 C24        0.9946    1.2162    6.9079 C.ar      1 RES1    0.0000
     32 C25        0.9965    2.1353    5.8707 C.ar      1 RES1    0.0000
     33 H1         1.4942    4.8991    4.9757 H         1 RES1    0.0000
     34 H2        -0.6707    5.5603    6.7119 H         1 RES1    0.0000
     35 H3         2.1447    2.5777   12.6627 H         1 RES1    0.0000
     36 H4         2.0284    2.7557   11.1093 H         1 RES1    0.0000
     37 H5         1.1903    1.6488   11.8370 H         1 RES1    0.0000
     38 H6         0.0359    2.2137    9.8522 H         1 RES1    0.0000
     39 H7        -1.2116    2.9499    8.0574 H         1 RES1    0.0000
     40 H8        -2.0771    6.2770   10.0004 H         1 RES1    0.0000
     41 H9        -0.8596    5.4901   11.8263 H         1 RES1    0.0000
     42 H10       -3.1074    4.4877    7.2700 H         1 RES1    0.0000
     43 H11       -0.9522    3.1018    3.3733 H         1 RES1    0.0000
     44 H12        0.9473    3.7711    2.2166 H         1 RES1    0.0000
     45 H13        1.8607    3.3940    3.4366 H         1 RES1    0.0000
     46 H14       -3.6659    6.6851    6.8506 H         1 RES1    0.0000
     47 H15       -2.5966    7.1912    7.8794 H         1 RES1    0.0000
     48 H16       -3.8600    6.4092    8.3813 H         1 RES1    0.0000
     49 H17        1.2960    6.7798    3.6398 H         1 RES1    0.0000
     50 H18        1.2091    8.2702    1.9059 H         1 RES1    0.0000
     51 H19       -0.4998    8.1592    0.3692 H         1 RES1    0.0000
     52 H20       -2.1094    6.5006    0.5700 H         1 RES1    0.0000
     53 H21       -2.0098    5.0069    2.3194 H         1 RES1    0.0000
     54 H22       -1.9605    1.5346    4.7379 H         1 RES1    0.0000
     55 H23       -1.9615    0.0229    6.4670 H         1 RES1    0.0000
     56 H24       -0.1259   -0.1845    7.8220 H         1 RES1    0.0000
     57 H25        1.7407    1.1297    7.4564 H         1 RES1    0.0000
     58 H26        1.7525    2.6577    5.7237 H         1 RES1    0.0000
@<TRIPOS>BOND
     1    1    8 1
     2    2   16 2
     3    3   17 1
     4    4    7 2
     5    5    7 2
     6    6   15 1
     7    7   19 1
     8    8   35 1
     9    9    1 1
    10   10    9 ar
    11   11   10 ar
    12   12   11 ar
    13   13   12 ar
    14   14    9 ar
    15   15   12 1
    16   16    6 1
    17   17   16 1
    18   18   17 1
    19   19   18 1
    20   20   15 1
    21   21   17 1
    22   22   21 ar
    23   23   22 ar
    24   24   23 ar
    25   25   24 ar
    26   26   21 ar
    27   27   18 1
    28   28   27 ar
    29   29   28 ar
    30   30   29 ar
    31   31   30 ar
    32   32   27 ar
    33   33    3 1
    34   34    6 1
    35   36    8 1
    36   37    8 1
    37   38   10 1
    38   39   11 1
    39   40   13 1
    40   41   14 1
    41   42   15 1
    42   43   18 1
    43   44   19 1
    44   45   19 1
    45   46   20 1
    46   47   20 1
    47   48   20 1
    48   49   22 1
    49   50   23 1
    50   51   24 1
    51   52   25 1
    52   53   26 1
    53   54   28 1
    54   55   29 1
    55   56   30 1
    56   57   31 1
    57   58   32 1
    58   13   14 ar
    59   25   26 ar
    60   31   32 ar
@<TRIPOS>SUBSTRUCTURE
     1 RES1 1

@<TRIPOS>CRYSIN
   5.9560   16.3250   12.1400  90.0000 100.1680  90.0000   4 1

