# MOL2 file generated by ConQuest
# Please check atom types

@<TRIPOS>MOLECULE
KIHTEC
    71    70     2
SMALL
NO_CHARGES
****
Generated from CSD

@<TRIPOS>ATOM
      1 O1         4.5809    4.3104    6.1294 O.2       1 RES1    0.0000
      2 N1         3.5953    4.8451    6.7439 N.3       1 RES1    0.0000
      3 C1         3.5197    4.8778    8.2283 C.3       1 RES1    0.0000
      4 C2         2.0767    5.4121    8.4279 C.3       1 RES1    0.0000
      5 H1         1.9917    5.9162    9.2870 H         1 RES1    0.0000
      6 C3         1.8665    6.3449    7.2043 C.3       1 RES1    0.0000
      7 H2         0.8964    6.5280    7.0421 H         1 RES1    0.0000
      8 C4         2.5042    5.5554    6.0332 C.3       1 RES1    0.0000
      9 C5         3.8068    3.4907    8.8249 C.3       1 RES1    0.0000
     10 H3         2.9713    2.9676    8.9181 H         1 RES1    0.0000
     11 H4         4.4389    2.9868    8.2536 H         1 RES1    0.0000
     12 C6         4.4208    3.7767   10.1888 C.3       1 RES1    0.0000
     13 H5         4.9369    2.9988   10.5168 H         1 RES1    0.0000
     14 H6         3.7211    4.0031   10.8523 H         1 RES1    0.0000
     15 C7         5.3389    4.9773    9.9256 C.3       1 RES1    0.0000
     16 H7         6.2157    4.6774    9.5783 H         1 RES1    0.0000
     17 H8         5.4852    5.4935   10.7574 H         1 RES1    0.0000
     18 C8         4.6048    5.8309    8.8798 C.3       1 RES1    0.0000
     19 H9         4.1089    6.5431    9.3776 H         1 RES1    0.0000
     20 O2         6.5523    5.6773    7.3544 O.3       1 RES1    0.0000
     21 H10        6.0736    5.2429    6.8285 H         1 RES1    0.0000
     22 C9         5.5797    6.5362    7.9401 C.3       1 RES1    0.0000
     23 H11        5.0635    6.9718    7.2158 H         1 RES1    0.0000
     24 H12        6.0477    7.2485    8.4445 H         1 RES1    0.0000
     25 O3         1.1468    4.3391    8.3653 O.3       1 RES1    0.0000
     26 C10        0.1014    4.2304    9.3690 C.3       1 RES1    0.0000
     27 C11       -0.7422    5.4975    9.4413 C.3       1 RES1    0.0000
     28 H13       -1.0539    5.7350    8.5437 H         1 RES1    0.0000
     29 H14       -0.2002    6.2301    9.8037 H         1 RES1    0.0000
     30 H15       -1.5134    5.3436   10.0249 H         1 RES1    0.0000
     31 C12        0.7039    3.9106   10.7292 C.3       1 RES1    0.0000
     32 H16        1.2555    4.6633   11.0270 H         1 RES1    0.0000
     33 H17        1.2591    3.1055   10.6592 H         1 RES1    0.0000
     34 H18       -0.0162    3.7566   11.3766 H         1 RES1    0.0000
     35 C13       -0.7316    3.0713    8.8598 C.3       1 RES1    0.0000
     36 H19       -0.1721    2.2682    8.8005 H         1 RES1    0.0000
     37 H20       -1.0866    3.2887    7.9731 H         1 RES1    0.0000
     38 H21       -1.4739    2.9063    9.4779 H         1 RES1    0.0000
     39 O4         2.5964    7.5412    7.4199 O.3       1 RES1    0.0000
     40 C14        1.8837    8.8039    7.5040 C.3       1 RES1    0.0000
     41 C15        0.9208    8.7954    8.6952 C.3       1 RES1    0.0000
     42 H22        1.4023    8.5185    9.5028 H         1 RES1    0.0000
     43 H23        0.1889    8.1673    8.5189 H         1 RES1    0.0000
     44 H24        0.5554    9.6949    8.8253 H         1 RES1    0.0000
     45 C16        3.0013    9.8142    7.7114 C.3       1 RES1    0.0000
     46 H25        3.5732    9.8358    6.9159 H         1 RES1    0.0000
     47 H26        3.5354    9.5550    8.4909 H         1 RES1    0.0000
     48 H27        2.6155   10.7022    7.8598 H         1 RES1    0.0000
     49 C17        1.1254    9.1085    6.2161 C.3       1 RES1    0.0000
     50 H28        0.4196    8.4410    6.0863 H         1 RES1    0.0000
     51 H29        1.7450    9.0800    5.4574 H         1 RES1    0.0000
     52 H30        0.7238   10.0008    6.2762 H         1 RES1    0.0000
     53 C18        3.0840    6.4131    4.8882 C.3       1 RES1    0.0000
     54 H31        4.0653    6.5069    4.9806 H         1 RES1    0.0000
     55 H32        2.6754    7.3149    4.8814 H         1 RES1    0.0000
     56 C19        2.7219    5.6314    3.5901 C.3       1 RES1    0.0000
     57 H33        2.6636    6.2432    2.8134 H         1 RES1    0.0000
     58 H34        3.3968    4.9330    3.3981 H         1 RES1    0.0000
     59 C20        1.4068    5.0246    3.8808 C.3       1 RES1    0.0000
     60 H35        1.2327    4.2598    3.2773 H         1 RES1    0.0000
     61 H36        0.6826    5.6907    3.7692 H         1 RES1    0.0000
     62 C21        1.4933    4.5577    5.3382 C.3       1 RES1    0.0000
     63 H37        0.5947    4.6734    5.7616 H         1 RES1    0.0000
     64 O5         0.9525    2.2850    4.7382 O.3       1 RES1    0.0000
     65 H38        1.4392    1.8013    4.2611 H         1 RES1    0.0000
     66 C22        1.8930    3.1039    5.4531 C.3       1 RES1    0.0000
     67 H39        2.7998    2.9757    5.0777 H         1 RES1    0.0000
     68 H40        1.9122    2.8368    6.4067 H         1 RES1    0.0000
     69 C23        2.2484    6.3277    3.8123 Du        2 SUP2    0.0000
     70 H41        2.7804    6.3348    2.9774 Du        2 SUP2    0.0000
     71 H42        1.6446    7.1117    3.7994 Du        2 SUP2    0.0000
@<TRIPOS>BOND
     1    1    2 1
     2    2    3 1
     3    3    4 1
     4    4    5 1
     5    6    4 1
     6    7    6 1
     7    8    2 1
     8    9    3 1
     9   10    9 1
    10   11    9 1
    11   12    9 1
    12   13   12 1
    13   14   12 1
    14   15   12 1
    15   16   15 1
    16   17   15 1
    17   18    3 1
    18   19   18 1
    19   20   21 1
    20   22   18 1
    21   23   22 1
    22   24   22 1
    23   25    4 1
    24   26   25 1
    25   27   26 1
    26   28   27 1
    27   29   27 1
    28   30   27 1
    29   31   26 1
    30   32   31 1
    31   33   31 1
    32   34   31 1
    33   35   26 1
    34   36   35 1
    35   37   35 1
    36   38   35 1
    37   39    6 1
    38   40   39 1
    39   41   40 1
    40   42   41 1
    41   43   41 1
    42   44   41 1
    43   45   40 1
    44   46   45 1
    45   47   45 1
    46   48   45 1
    47   49   40 1
    48   50   49 1
    49   51   49 1
    50   52   49 1
    51   53    8 1
    52   54   53 1
    53   55   53 1
    54   56   53 1
    55   57   56 1
    56   58   56 1
    57   59   56 1
    58   60   59 1
    59   61   59 1
    60   62    8 1
    61   63   62 1
    62   64   65 1
    63   66   62 1
    64   67   66 1
    65   68   66 1
    66    6    8 1
    67   15   18 1
    68   20   22 1
    69   59   62 1
    70   64   66 1
@<TRIPOS>SUBSTRUCTURE
     1 RES1 1
     2 SUP2 69

@<TRIPOS>CRYSIN
  10.3054   10.0632   10.8269  90.0000  94.8860  90.0000   4 1

