# MOL2 file generated by ConQuest
# Please check atom types

@<TRIPOS>MOLECULE
KIHZUX
    29    29     1
SMALL
NO_CHARGES
****
Generated from CSD

@<TRIPOS>ATOM
      1 C1         1.5217    0.4546    3.6842 C.ar      1 RES1    0.0000
      2 C2         2.0454    1.2419    0.7505 C.2       1 RES1    0.0000
      3 C3         1.8628    0.0000    4.9572 C.ar      1 RES1    0.0000
      4 H1         2.4672    0.4756    5.4803 H         1 RES1    0.0000
      5 C4         2.4594    2.0487    1.9500 C.2       1 RES1    0.0000
      6 C5         3.2475    3.2681    1.6372 C.2       1 RES1    0.0000
      7 C6         2.1926    1.6679    3.2100 C.2       1 RES1    0.0000
      8 H2         2.4723    2.2557    3.8741 H         1 RES1    0.0000
      9 C7         1.2937   -1.1622    5.4313 C.ar      1 RES1    0.0000
     10 C8         0.0313   -1.4368    3.4558 C.ar      1 RES1    0.0000
     11 H3        -0.5846   -1.9124    2.9465 H         1 RES1    0.0000
     12 C9         0.3810   -1.8985    4.7066 C.ar      1 RES1    0.0000
     13 H4         0.0134   -2.6804    5.0507 H         1 RES1    0.0000
     14 C10        0.5822   -0.2777    2.9490 C.ar      1 RES1    0.0000
     15 H5         0.3259    0.0216    2.1064 H         1 RES1    0.0000
     16 C11        3.7080    4.1761    2.7377 C.3       1 RES1    0.0000
     17 H6         4.4335    3.7625    3.2112 H         1 RES1    0.0000
     18 H7         2.9813    4.3385    3.3436 H         1 RES1    0.0000
     19 H8         4.0034    5.0086    2.3633 H         1 RES1    0.0000
     20 C12        2.2909   -0.8208   -0.3552 C.3       1 RES1    0.0000
     21 H9         1.3593   -1.0312   -0.2613 H         1 RES1    0.0000
     22 H10        2.8089   -1.6263   -0.2972 H         1 RES1    0.0000
     23 H11        2.4402   -0.4056   -1.2080 H         1 RES1    0.0000
     24 O1         2.6903    0.0885    0.7025 O.3       1 RES1    0.0000
     25 O2         1.2237    1.6001   -0.0550 O.2       1 RES1    0.0000
     26 O3         3.5538    3.4979    0.4815 O.2       1 RES1    0.0000
     27 O4         2.5177   -0.9984    7.3894 O.2       1 RES1    0.0000
     28 O5         1.1258   -2.6052    7.2250 O.2       1 RES1    0.0000
     29 N1         1.6745   -1.6208    6.7767 N.pl3     1 RES1    0.0000
@<TRIPOS>BOND
     1    1    3 ar
     2    2    5 1
     3    3    4 1
     4    5    6 1
     5    6   16 1
     6    7    1 1
     7    8    7 1
     8    9    3 ar
     9   10   11 1
    10   12    9 ar
    11   13   12 1
    12   14    1 ar
    13   15   14 1
    14   16   17 1
    15   18   16 1
    16   19   16 1
    17   20   21 1
    18   22   20 1
    19   23   20 1
    20   24    2 1
    21   25    2 2
    22   26    6 2
    23   27   29 2
    24   28   29 2
    25   29    9 1
    26    5    7 2
    27   10   12 ar
    28   10   14 ar
    29   20   24 1
@<TRIPOS>SUBSTRUCTURE
     1 RES1 1

@<TRIPOS>CRYSIN
   8.1700   12.7153   11.2206  90.0000  91.5810  90.0000  14 1

