# MOL2 file generated by ConQuest
# Please check atom types

@<TRIPOS>MOLECULE
KIJCOY
    22    22     1
SMALL
NO_CHARGES
****
Generated from CSD

@<TRIPOS>ATOM
      1 O1        12.1066    3.4208    2.8319 O.2       1 RES1    0.0000
      2 N1         7.6845    4.4193    5.7332 N.1       1 RES1    0.0000
      3 N2         8.2358    2.0338    3.2119 N.pl3     1 RES1    0.0000
      4 N3        10.5727    0.2488    2.8469 N.pl3     1 RES1    0.0000
      5 O2        10.4585    0.1394    1.6526 O.2       1 RES1    0.0000
      6 O3        12.8344    1.4555    2.4003 O.2       1 RES1    0.0000
      7 N4         6.5370    0.7436    2.9651 N.2       1 RES1    0.0000
      8 C1         9.5569    2.5627    2.8853 C.3       1 RES1    0.0000
      9 C2         7.5320    3.5560    5.0122 C.1       1 RES1    0.0000
     10 O4        10.5667   -0.6313    3.6747 O.2       1 RES1    0.0000
     11 N5        12.0210    2.2269    2.8037 N.pl3     1 RES1    0.0000
     12 C3         7.3226    2.4804    4.1102 C.2       1 RES1    0.0000
     13 O5         9.8675    1.6854    5.5040 O.2       1 RES1    0.0000
     14 N6         7.7404    0.9867    2.5266 N.2       1 RES1    0.0000
     15 O6        11.9782    1.4974    5.2634 O.2       1 RES1    0.0000
     16 C4        10.6985    1.6761    3.3393 C.3       1 RES1    0.0000
     17 C5         6.2468    1.6536    3.9354 C.2       1 RES1    0.0000
     18 N7        10.8662    1.6190    4.8483 N.pl3     1 RES1    0.0000
     19 C6         4.9967    1.6686    4.6458 C.1       1 RES1    0.0000
     20 N8         4.0321    1.6892    5.2365 N.1       1 RES1    0.0000
     21 H1         9.6542    3.4045    3.2944 H         1 RES1    0.0000
     22 H2         9.6393    2.6095    1.9549 H         1 RES1    0.0000
@<TRIPOS>BOND
     1    1   11 2
     2    2    9 3
     3    3    8 1
     4    4    5 2
     5    6   11 2
     6    7   14 2
     7    8   16 1
     8    9   12 1
     9   10    4 2
    10   11   16 1
    11   12    3 1
    12   13   18 2
    13   14    3 1
    14   15   18 2
    15   16    4 1
    16   17    7 1
    17   18   16 1
    18   19   17 1
    19   20   19 3
    20   21    8 1
    21   22    8 1
    22   12   17 2
@<TRIPOS>SUBSTRUCTURE
     1 RES1 1

@<TRIPOS>CRYSIN
  10.9330    9.3530   11.2740  90.0000 108.6440  90.0000 231 1

