# MOL2 file generated by ConQuest
# Please check atom types

@<TRIPOS>MOLECULE
KIJDAJ
    56    59     1
SMALL
NO_CHARGES
****
Generated from CSD

@<TRIPOS>ATOM
      1 O1         7.2098   10.4108   22.7175 O.3       1 RES1    0.0000
      2 N1         6.5431   10.0611   23.9512 N.3       1 RES1    0.0000
      3 N2         8.7048    6.3325   21.7766 N.3       1 RES1    0.0000
      4 H1         9.5305    6.4127   22.1171 H         1 RES1    0.0000
      5 C1         5.1610   10.3747   23.8964 C.ar      1 RES1    0.0000
      6 C2         4.5259   10.8932   22.7687 C.ar      1 RES1    0.0000
      7 H2         5.0516   11.0311   21.9934 H         1 RES1    0.0000
      8 C3         3.1703   11.1680   22.8043 C.ar      1 RES1    0.0000
      9 H3         2.7352   11.5033   22.0010 H         1 RES1    0.0000
     10 C4         2.4249   10.9489   23.9487 C.ar      1 RES1    0.0000
     11 H4         1.5300   11.1349   23.9297 H         1 RES1    0.0000
     12 C5         3.0686   10.4795   25.0794 C.ar      1 RES1    0.0000
     13 H5         2.5301   10.3416   25.8837 H         1 RES1    0.0000
     14 C6         4.4097   10.1905   25.0630 C.ar      1 RES1    0.0000
     15 H6         4.8806    9.8411   25.8711 H         1 RES1    0.0000
     16 C7         6.8320    8.6171   24.2190 C.3       1 RES1    0.0000
     17 H7         6.0687    8.1316   24.1065 H         1 RES1    0.0000
     18 C8         7.3320    8.3687   25.6242 C.ar      1 RES1    0.0000
     19 C9         8.1193    9.2942   26.3086 C.ar      1 RES1    0.0000
     20 H8         8.2740   10.1150   25.8963 H         1 RES1    0.0000
     21 C10        8.6039    8.9920   27.5716 C.ar      1 RES1    0.0000
     22 H9         9.0945    9.6900   28.0699 H         1 RES1    0.0000
     23 C11        8.3167    7.7709   28.1754 C.ar      1 RES1    0.0000
     24 H10        8.6159    7.5650   29.1504 H         1 RES1    0.0000
     25 C12        7.5432    6.8491   27.4989 C.ar      1 RES1    0.0000
     26 H11        7.3679    5.9783   27.8932 H         1 RES1    0.0000
     27 C13        7.0389    7.1485   26.2359 C.ar      1 RES1    0.0000
     28 H12        6.4876    6.5166   25.7398 H         1 RES1    0.0000
     29 C14        7.8346    8.2261   23.1338 C.3       1 RES1    0.0000
     30 H13        8.7270    8.4150   23.4122 H         1 RES1    0.0000
     31 C15        7.4714    9.1771   22.0086 C.3       1 RES1    0.0000
     32 H14        6.6500    8.9250   21.5466 H         1 RES1    0.0000
     33 C16        8.5458    9.4869   20.9993 C.3       1 RES1    0.0000
     34 H15        9.3852    9.8316   21.3951 H         1 RES1    0.0000
     35 H16        8.7868    8.6983   20.5015 H         1 RES1    0.0000
     36 H17        8.1971   10.1244   20.3550 H         1 RES1    0.0000
     37 C17        7.7475    6.7433   22.7983 C.3       1 RES1    0.0000
     38 H18        6.8209    6.5639   22.4504 H         1 RES1    0.0000
     39 H19        7.8381    6.2144   23.6116 H         1 RES1    0.0000
     40 C18        8.5330    4.9498   21.3429 C.3       1 RES1    0.0000
     41 H20        8.4022    4.3539   22.1348 H         1 RES1    0.0000
     42 C19        9.8006    4.4927   20.6128 C.3       1 RES1    0.0000
     43 H21       10.5733    4.5050   21.1553 H         1 RES1    0.0000
     44 H22        9.6587    3.5417   20.2793 H         1 RES1    0.0000
     45 H23        9.9664    5.1378   19.8022 H         1 RES1    0.0000
     46 C20        7.3312    4.8053   20.4237 C.ar      1 RES1    0.0000
     47 C21        6.7483    3.5615   20.2551 C.ar      1 RES1    0.0000
     48 H24        7.0431    2.8522   20.7918 H         1 RES1    0.0000
     49 C22        5.7029    3.3802   19.3528 C.ar      1 RES1    0.0000
     50 H25        5.3080    2.5311   19.2468 H         1 RES1    0.0000
     51 C23        5.2259    4.4530   18.6255 C.ar      1 RES1    0.0000
     52 H26        4.4960    4.3444   18.0174 H         1 RES1    0.0000
     53 C24        5.7909    5.6959   18.8040 C.ar      1 RES1    0.0000
     54 H27        5.4960    6.4411   18.3304 H         1 RES1    0.0000
     55 C25        6.8380    5.8754   19.6828 C.ar      1 RES1    0.0000
     56 H28        7.2483    6.7811   19.7845 H         1 RES1    0.0000
@<TRIPOS>BOND
     1    1    2 1
     2    2    5 1
     3    3    4 1
     4    5    6 ar
     5    6    7 1
     6    8    6 ar
     7    9    8 1
     8   10    8 ar
     9   11   10 1
    10   12   10 ar
    11   13   12 1
    12   14    5 ar
    13   15   14 1
    14   16    2 1
    15   17   16 1
    16   18   16 1
    17   19   18 ar
    18   20   19 1
    19   21   19 ar
    20   22   21 1
    21   23   21 ar
    22   24   23 1
    23   25   23 ar
    24   26   25 1
    25   27   18 ar
    26   28   27 1
    27   29   16 1
    28   30   29 1
    29   31    1 1
    30   32   31 1
    31   33   31 1
    32   34   33 1
    33   35   33 1
    34   36   33 1
    35   37    3 1
    36   38   37 1
    37   39   37 1
    38   40    3 1
    39   41   40 1
    40   42   40 1
    41   43   42 1
    42   44   42 1
    43   45   42 1
    44   46   40 1
    45   47   46 ar
    46   48   47 1
    47   49   47 ar
    48   50   49 1
    49   51   49 ar
    50   52   51 1
    51   53   51 ar
    52   54   53 1
    53   55   46 ar
    54   56   55 1
    55   12   14 ar
    56   25   27 ar
    57   29   31 1
    58   29   37 1
    59   53   55 ar
@<TRIPOS>SUBSTRUCTURE
     1 RES1 1

@<TRIPOS>CRYSIN
   8.5475    9.4444   25.2450  90.0000  90.0000  90.0000  19 1

