# MOL2 file generated by ConQuest
# Please check atom types

@<TRIPOS>MOLECULE
KIJFOA
    70    74     1
SMALL
USER_CHARGES
****
Generated from CSD

@<TRIPOS>ATOM
      1 C1         9.2713    1.6103   -0.7979 C.3       1 RES1    0.0000
      2 H1         8.6017    0.9952   -0.4881 H         1 RES1    0.0000
      3 H2         9.5978    1.3245   -1.6533 H         1 RES1    0.0000
      4 H3         8.8876    2.4869   -0.8781 H         1 RES1    0.0000
      5 C2        10.4056    1.6502    0.1826 C.3       1 RES1    0.0000
      6 H4        10.9138    0.8269    0.1148 H         1 RES1    0.0000
      7 H5        10.9977    2.3852   -0.0455 H         1 RES1    0.0000
      8 C3        12.4779    2.7290    4.3737 C.3       1 RES1    0.0000
      9 H6        12.1348    3.3719    3.7492 H         1 RES1    0.0000
     10 H7        13.3236    2.3985    4.0603 H         1 RES1    0.0000
     11 H8        12.5941    3.1443    5.2302 H         1 RES1    0.0000
     12 C4        11.5464    1.6309    4.4938 C.3       1 RES1    0.0000
     13 H9        11.4939    1.1587    3.6487 H         1 RES1    0.0000
     14 H10       11.8655    1.0085    5.1656 H         1 RES1    0.0000
     15 C5         9.2777    2.9469    1.8782 C.ar      1 RES1    0.0000
     16 C6         9.4898    4.1758    1.2016 C.ar      1 RES1    0.0000
     17 H11       10.0995    4.2267    0.5024 H         1 RES1    0.0000
     18 C7         8.7982    5.2728    1.5832 C.ar      1 RES1    0.0000
     19 H12        8.9384    6.0719    1.1269 H         1 RES1    0.0000
     20 C8         7.8759    5.2510    2.6402 C.ar      1 RES1    0.0000
     21 C9         7.1206    6.3782    3.0159 C.ar      1 RES1    0.0000
     22 H13        7.2359    7.1773    2.5553 H         1 RES1    0.0000
     23 C10        6.2362    6.3237    4.0265 C.ar      1 RES1    0.0000
     24 H14        5.7456    7.0804    4.2541 H         1 RES1    0.0000
     25 C11        6.0490    5.1226    4.7431 C.ar      1 RES1    0.0000
     26 H15        5.4366    5.0887    5.4432 H         1 RES1    0.0000
     27 C12        6.7683    4.0112    4.4103 C.ar      1 RES1    0.0000
     28 H16        6.6447    3.2254    4.8905 H         1 RES1    0.0000
     29 C13        7.6924    4.0354    3.3520 C.ar      1 RES1    0.0000
     30 C14        8.4191    2.8743    2.9477 C.ar      1 RES1    0.0000
     31 C15        8.2725    1.5849    3.6853 C.ar      1 RES1    0.0000
     32 C16        9.2178    1.2241    4.6098 C.ar      1 RES1    0.0000
     33 C17        9.1145    0.0230    5.3279 C.ar      1 RES1    0.0000
     34 H17        9.7610   -0.1961    5.9600 H         1 RES1    0.0000
     35 C18        8.0797   -0.8160    5.1070 C.ar      1 RES1    0.0000
     36 H18        8.0235   -1.6091    5.5891 H         1 RES1    0.0000
     37 C19        7.0782   -0.5097    4.1545 C.ar      1 RES1    0.0000
     38 C20        7.1852    0.7168    3.4413 C.ar      1 RES1    0.0000
     39 C21        6.1689    0.9989    2.4991 C.ar      1 RES1    0.0000
     40 H19        6.2150    1.7955    2.0194 H         1 RES1    0.0000
     41 C22        5.1323    0.1598    2.2636 C.ar      1 RES1    0.0000
     42 H20        4.4849    0.3874    1.6342 H         1 RES1    0.0000
     43 C23        5.0299   -1.0727    2.9790 C.ar      1 RES1    0.0000
     44 C24        5.9890   -1.3766    3.8973 C.ar      1 RES1    0.0000
     45 H21        5.9263   -2.1769    4.3689 H         1 RES1    0.0000
     46 C25        3.9011   -1.9626    2.7381 C.2       1 RES1    0.0000
     47 C26        2.2853   -3.6722    3.0369 C.3       1 RES1    0.0000
     48 C27        1.9764   -2.9130    1.7354 C.3       1 RES1    0.0000
     49 C28        1.9072   -3.6891    0.4764 C.3       1 RES1    0.0000
     50 H22        1.9072   -3.0874   -0.2704 H         1 RES1    0.0000
     51 H23        1.1012   -4.2122    0.4666 H         1 RES1    0.0000
     52 H24        2.6671   -4.2727    0.4187 H         1 RES1    0.0000
     53 C29        0.7452   -2.0340    1.8495 C.3       1 RES1    0.0000
     54 H25        0.7664   -1.5594    2.6821 H         1 RES1    0.0000
     55 H26       -0.0424   -2.5813    1.8112 H         1 RES1    0.0000
     56 H27        0.7323   -1.4057    1.1221 H         1 RES1    0.0000
     57 C30        1.1878   -3.7206    4.0363 C.3       1 RES1    0.0000
     58 H28        0.4215   -4.1504    3.6511 H         1 RES1    0.0000
     59 H29        0.9545   -2.8259    4.2995 H         1 RES1    0.0000
     60 H30        1.4784   -4.2134    4.8068 H         1 RES1    0.0000
     61 C31        2.8414   -5.0682    2.8065 C.3       1 RES1    0.0000
     62 H31        3.2841   -5.3721    3.6033 H         1 RES1    0.0000
     63 H32        3.4685   -5.0476    2.0792 H         1 RES1    0.0000
     64 H33        2.1230   -5.6675    2.5912 H         1 RES1    0.0000
     65 N1         3.1292   -1.9820    1.6361 N.3       1 RES1    0.0000
     66 N2         3.4317   -2.8931    3.5863 N.pl3     1 RES1    1.0000
     67 O1         3.9168   -3.1764    4.7335 O.2       1 RES1   -1.0000
     68 O2         3.2786   -1.2773    0.5821 O.2       1 RES1    0.0000
     69 O3         9.9473    1.8141    1.5351 O.3       1 RES1    0.0000
     70 O4        10.2562    2.0932    4.8553 O.3       1 RES1    0.0000
@<TRIPOS>BOND
     1    1    2 1
     2    3    1 1
     3    4    1 1
     4    5    1 1
     5    6    5 1
     6    7    5 1
     7    8    9 1
     8   10    8 1
     9   11    8 1
    10   12    8 1
    11   13   12 1
    12   14   12 1
    13   15   16 ar
    14   16   17 1
    15   18   16 ar
    16   19   18 1
    17   20   18 ar
    18   21   20 ar
    19   22   21 1
    20   23   21 ar
    21   24   23 1
    22   25   23 ar
    23   26   25 1
    24   27   25 ar
    25   28   27 1
    26   29   20 ar
    27   30   15 ar
    28   31   30 1
    29   32   31 ar
    30   33   32 ar
    31   34   33 1
    32   35   33 ar
    33   36   35 1
    34   37   35 ar
    35   38   31 ar
    36   39   38 ar
    37   40   39 1
    38   41   39 ar
    39   42   41 1
    40   43   41 ar
    41   44   37 ar
    42   45   44 1
    43   46   43 1
    44   47   48 1
    45   48   49 1
    46   49   50 1
    47   51   49 1
    48   52   49 1
    49   53   48 1
    50   54   53 1
    51   55   53 1
    52   56   53 1
    53   57   47 1
    54   58   57 1
    55   59   57 1
    56   60   57 1
    57   61   47 1
    58   62   61 1
    59   63   61 1
    60   64   61 1
    61   65   46 1
    62   66   46 2
    63   67   66 1
    64   68   65 1
    65   69    5 1
    66   70   12 1
    67   15   69 1
    68   27   29 ar
    69   29   30 ar
    70   32   70 1
    71   37   38 ar
    72   43   44 ar
    73   47   66 1
    74   48   65 1
@<TRIPOS>SUBSTRUCTURE
     1 RES1 1

@<TRIPOS>CRYSIN
   9.2224   12.1074   23.9261  90.0000  90.0000  90.0000  19 1

