# MOL2 file generated by ConQuest
# Please check atom types

@<TRIPOS>MOLECULE
KIJNIA
    31    31     1
SMALL
NO_CHARGES
****
Generated from CSD

@<TRIPOS>ATOM
      1 N1         0.2545   13.7090    2.5356 N.pl3     1 RES1    0.0000
      2 N2        -2.5073   15.5787    1.1055 N.pl3     1 RES1    0.0000
      3 N3         0.1378   19.6248    1.3492 N.pl3     1 RES1    0.0000
      4 N4         1.6903   17.0256    1.7970 N.pl3     1 RES1    0.0000
      5 O1        -0.1171   14.8342    1.7257 O.3       1 RES1    0.0000
      6 O2         0.3872   12.7213    1.8596 O.2       1 RES1    0.0000
      7 O3         0.3629   13.8661    3.7152 O.2       1 RES1    0.0000
      8 O4        -2.2481   16.2644    0.1233 O.2       1 RES1    0.0000
      9 O5        -3.0562   14.4883    1.0747 O.2       1 RES1    0.0000
     10 O6         0.9704   20.4676    1.6207 O.2       1 RES1    0.0000
     11 O7        -0.4984   19.5871    0.3005 O.2       1 RES1    0.0000
     12 O8         2.3261   17.7339    1.0323 O.2       1 RES1    0.0000
     13 O9         2.1779   16.2644    2.6232 O.2       1 RES1    0.0000
     14 C1        -0.5010   16.0228    2.4508 C.3       1 RES1    0.0000
     15 C2        -2.0370   16.1315    2.4816 C.3       1 RES1    0.0000
     16 C3        -2.4964   17.5542    2.6001 C.2       1 RES1    0.0000
     17 C4        -1.6832   18.5888    2.5914 C.2       1 RES1    0.0000
     18 C5        -0.1848   18.5299    2.3940 C.3       1 RES1    0.0000
     19 C6         0.1858   17.1797    1.7382 C.3       1 RES1    0.0000
     20 C7        -2.6494   15.2706    3.5756 C.3       1 RES1    0.0000
     21 C8         0.5564   18.8365    3.6787 C.3       1 RES1    0.0000
     22 H1        -0.2292   16.0167    3.3743 H         1 RES1    0.0000
     23 H2        -3.4398   17.7203    2.6887 H         1 RES1    0.0000
     24 H3        -2.0752   19.4572    2.7214 H         1 RES1    0.0000
     25 H4        -0.1116   17.1676    0.8234 H         1 RES1    0.0000
     26 H5        -2.4030   15.6935    4.4038 H         1 RES1    0.0000
     27 H6        -2.3251   14.3645    3.5689 H         1 RES1    0.0000
     28 H7        -3.6074   15.2691    3.4889 H         1 RES1    0.0000
     29 H8         0.3817   18.1266    4.3027 H         1 RES1    0.0000
     30 H9         0.2365   19.6686    4.0417 H         1 RES1    0.0000
     31 H10        1.5032   18.8999    3.5217 H         1 RES1    0.0000
@<TRIPOS>BOND
     1    1    5 1
     2    2    8 2
     3    3   10 2
     4    4   12 2
     5    5   14 1
     6    6    1 2
     7    7    1 2
     8    9    2 2
     9   11    3 2
    10   13    4 2
    11   14   15 1
    12   15    2 1
    13   16   15 1
    14   17   16 2
    15   18    3 1
    16   19    4 1
    17   20   15 1
    18   21   18 1
    19   22   14 1
    20   23   16 1
    21   24   17 1
    22   25   19 1
    23   26   20 1
    24   27   20 1
    25   28   20 1
    26   29   21 1
    27   30   21 1
    28   31   21 1
    29   14   19 1
    30   17   18 1
    31   18   19 1
@<TRIPOS>SUBSTRUCTURE
     1 RES1 1

@<TRIPOS>CRYSIN
   8.2310   15.1030    9.6300  90.0000  90.0900  90.0000 231 1

