# MOL2 file generated by ConQuest
# Please check atom types

@<TRIPOS>MOLECULE
KIKFOZ01
    53    57     1
SMALL
NO_CHARGES
****
Generated from CSD

@<TRIPOS>ATOM
      1 N1         4.9963    2.9908    1.7517 N.pl3     1 RES1    0.0000
      2 N2         3.9003    3.7828    1.7661 N.2       1 RES1    0.0000
      3 C1         3.5020    4.1300    2.9998 C.2       1 RES1    0.0000
      4 N3         4.1517    3.9309    4.1419 N.2       1 RES1    0.0000
      5 N4         5.2353    3.1195    4.0503 N.pl3     1 RES1    0.0000
      6 C2         5.2655    2.1766    2.9265 C.3       1 RES1    0.0000
      7 N5        -1.2735    7.2072    3.3452 N.pl3     1 RES1    0.0000
      8 O1        -1.9978    7.2700    2.3901 O.2       1 RES1    0.0000
      9 O2        -1.5182    7.7458    4.4101 O.2       1 RES1    0.0000
     10 C3         5.7064    2.8563    0.5403 C.ar      1 RES1    0.0000
     11 C4         5.4159    3.6990   -0.5194 C.ar      1 RES1    0.0000
     12 C5         6.1405    3.6217   -1.6929 C.ar      1 RES1    0.0000
     13 C6         7.1606    2.7444   -1.8158 C.ar      1 RES1    0.0000
     14 C7         7.4463    1.8988   -0.8019 C.ar      1 RES1    0.0000
     15 C8         6.7215    1.9183    0.3859 C.ar      1 RES1    0.0000
     16 C9         2.2795    4.9234    3.0874 C.ar      1 RES1    0.0000
     17 C10        1.4341    5.0775    1.9964 C.ar      1 RES1    0.0000
     18 C11        0.2630    5.8147    2.0709 C.ar      1 RES1    0.0000
     19 C12       -0.0451    6.4288    3.2536 C.ar      1 RES1    0.0000
     20 C13        0.7626    6.3190    4.3433 C.ar      1 RES1    0.0000
     21 C14        1.9257    5.5682    4.2753 C.ar      1 RES1    0.0000
     22 C15        6.1479    3.0911    5.1113 C.ar      1 RES1    0.0000
     23 C16        7.2882    2.3007    5.1034 C.ar      1 RES1    0.0000
     24 C17        8.1924    2.3437    6.1422 C.ar      1 RES1    0.0000
     25 C18        7.9678    3.1805    7.2084 C.ar      1 RES1    0.0000
     26 C19        6.8303    3.9544    7.2489 C.ar      1 RES1    0.0000
     27 C20        5.9223    3.9168    6.2194 C.ar      1 RES1    0.0000
     28 C21        4.2625    1.0379    3.1005 C.ar      1 RES1    0.0000
     29 C22        3.3701    0.6878    2.1259 C.ar      1 RES1    0.0000
     30 C23        2.5118   -0.3814    2.2933 C.ar      1 RES1    0.0000
     31 C24        2.5638   -1.1302    3.4551 C.ar      1 RES1    0.0000
     32 C25        3.4361   -0.7822    4.4415 C.ar      1 RES1    0.0000
     33 C26        4.2989    0.2906    4.2688 C.ar      1 RES1    0.0000
     34 H1         6.2171    1.7189    2.8650 H         1 RES1    0.0000
     35 H2         4.7726    4.2944   -0.4710 H         1 RES1    0.0000
     36 H3         5.8570    4.3247   -2.3548 H         1 RES1    0.0000
     37 H4         7.7333    2.6812   -2.5511 H         1 RES1    0.0000
     38 H5         8.0558    1.1118   -0.7849 H         1 RES1    0.0000
     39 H6         6.9137    1.2332    1.0858 H         1 RES1    0.0000
     40 H7         1.6968    4.5518    1.3082 H         1 RES1    0.0000
     41 H8        -0.2394    6.0611    1.3082 H         1 RES1    0.0000
     42 H9         0.5673    6.7853    5.0367 H         1 RES1    0.0000
     43 H10        2.5540    5.3897    5.0236 H         1 RES1    0.0000
     44 H11        7.4354    1.6280    4.4873 H         1 RES1    0.0000
     45 H12        8.9974    1.7761    6.0571 H         1 RES1    0.0000
     46 H13        8.6185    3.0760    7.9018 H         1 RES1    0.0000
     47 H14        6.6762    4.7633    7.9148 H         1 RES1    0.0000
     48 H15        5.1113    4.5727    6.2272 H         1 RES1    0.0000
     49 H16        3.4270    1.0904    1.3344 H         1 RES1    0.0000
     50 H17        1.9585   -0.5094    1.6222 H         1 RES1    0.0000
     51 H18        1.8861   -1.8812    3.5846 H         1 RES1    0.0000
     52 H19        3.4479   -1.3750    5.2329 H         1 RES1    0.0000
     53 H20        4.9583    0.5936    4.9713 H         1 RES1    0.0000
@<TRIPOS>BOND
     1    1    2 1
     2    2    3 2
     3    3    4 1
     4    4    5 1
     5    5    6 1
     6    6    1 1
     7    7    8 2
     8    9    7 2
     9   10    1 1
    10   11   10 ar
    11   12   11 ar
    12   13   12 ar
    13   14   13 ar
    14   15   10 ar
    15   16    3 1
    16   17   16 ar
    17   18   17 ar
    18   19    7 1
    19   20   19 ar
    20   21   16 ar
    21   22    5 1
    22   23   22 ar
    23   24   23 ar
    24   25   24 ar
    25   26   25 ar
    26   27   22 ar
    27   28    6 1
    28   29   28 ar
    29   30   29 ar
    30   31   30 ar
    31   32   31 ar
    32   33   28 ar
    33   34    6 1
    34   35   11 1
    35   36   12 1
    36   37   13 1
    37   38   14 1
    38   39   15 1
    39   40   17 1
    40   41   18 1
    41   42   20 1
    42   43   21 1
    43   44   23 1
    44   45   24 1
    45   46   25 1
    46   47   26 1
    47   48   27 1
    48   49   29 1
    49   50   30 1
    50   51   31 1
    51   52   32 1
    52   53   33 1
    53   14   15 ar
    54   18   19 ar
    55   20   21 ar
    56   26   27 ar
    57   32   33 ar
@<TRIPOS>SUBSTRUCTURE
     1 RES1 1

@<TRIPOS>CRYSIN
   6.5960   12.7550   13.1600  87.2400  84.1600  83.9000   2 1

