# MOL2 file generated by ConQuest
# Please check atom types

@<TRIPOS>MOLECULE
KIKFIU
    33    34     1
SMALL
NO_CHARGES
****
Generated from CSD

@<TRIPOS>ATOM
      1 N1         0.3732    7.3318   10.0407 N.2       1 RES1    0.0000
      2 O1        -0.4621    7.5423   11.1490 O.3       1 RES1    0.0000
      3 H1        -0.6357    6.8221   11.4998 H         1 RES1    0.0000
      4 O2         4.1928   10.0694    6.5194 O.3       1 RES1    0.0000
      5 C1         0.8544    8.4075    9.5501 C.2       1 RES1    0.0000
      6 C2         1.6669    8.2379    8.3261 C.ar      1 RES1    0.0000
      7 C3         1.5163    7.1147    7.5270 C.ar      1 RES1    0.0000
      8 H2         0.9001    6.4579    7.7590 H         1 RES1    0.0000
      9 C4         2.2783    6.9715    6.3934 C.ar      1 RES1    0.0000
     10 H3         2.1724    6.2103    5.8692 H         1 RES1    0.0000
     11 C5         3.1968    7.9292    6.0116 C.ar      1 RES1    0.0000
     12 H4         3.7110    7.8163    5.2436 H         1 RES1    0.0000
     13 C6         3.3329    9.0461    6.7868 C.ar      1 RES1    0.0000
     14 C7         2.5787    9.1965    7.9361 C.ar      1 RES1    0.0000
     15 H5         2.6885    9.9588    8.4556 H         1 RES1    0.0000
     16 C8         4.9124   10.0353    5.2935 C.3       1 RES1    0.0000
     17 H6         5.4791    9.2608    5.2759 H         1 RES1    0.0000
     18 H7         5.4499   10.8280    5.2157 H         1 RES1    0.0000
     19 H8         4.2932    9.9953    4.5599 H         1 RES1    0.0000
     20 C9         0.6046    9.7709   10.1217 C.3       1 RES1    0.0000
     21 H9         1.4395   10.2647   10.1368 H         1 RES1    0.0000
     22 H10        0.2965    9.6784   11.0376 H         1 RES1    0.0000
     23 C10       -0.4170   10.5573    9.3366 C.ar      1 RES1    0.0000
     24 C11       -0.1526   11.8307    8.8982 C.ar      1 RES1    0.0000
     25 H11        0.6823   12.2082    9.0597 H         1 RES1    0.0000
     26 C12       -1.1110   12.5554    8.2206 C.ar      1 RES1    0.0000
     27 H12       -0.9185   13.4136    7.9181 H         1 RES1    0.0000
     28 C13       -2.3396   12.0103    7.9950 C.ar      1 RES1    0.0000
     29 H13       -2.9947   12.5044    7.5569 H         1 RES1    0.0000
     30 C14       -2.6078   10.7442    8.4115 C.ar      1 RES1    0.0000
     31 H14       -3.4418   10.3691    8.2470 H         1 RES1    0.0000
     32 C15       -1.6495   10.0207    9.0728 C.ar      1 RES1    0.0000
     33 H15       -1.8390    9.1528    9.3456 H         1 RES1    0.0000
@<TRIPOS>BOND
     1    1    2 1
     2    2    3 1
     3    4   13 1
     4    5    1 2
     5    6    5 1
     6    7    6 ar
     7    8    7 1
     8    9    7 ar
     9   10    9 1
    10   11    9 ar
    11   12   11 1
    12   13   11 ar
    13   14    6 ar
    14   15   14 1
    15   16    4 1
    16   17   16 1
    17   18   16 1
    18   19   16 1
    19   20    5 1
    20   21   20 1
    21   22   20 1
    22   23   20 1
    23   24   23 ar
    24   25   24 1
    25   26   24 ar
    26   27   26 1
    27   28   26 ar
    28   29   28 1
    29   30   28 ar
    30   31   30 1
    31   32   23 ar
    32   33   32 1
    33   13   14 ar
    34   30   32 ar
@<TRIPOS>SUBSTRUCTURE
     1 RES1 1

@<TRIPOS>CRYSIN
   9.7198   12.1390   21.4990  90.0000  90.0000  90.0000  61 1

