# MOL2 file generated by ConQuest
# Please check atom types

@<TRIPOS>MOLECULE
KIKNEY
    21    21     1
SMALL
NO_CHARGES
****
Generated from CSD

@<TRIPOS>ATOM
      1 O1         1.7890   12.5369    7.2163 O.2       1 RES1    0.0000
      2 N1         0.4386   10.4160   10.4105 N.3       1 RES1    0.0000
      3 O2         2.6704   13.8547    8.6976 O.2       1 RES1    0.0000
      4 N2         0.9407   11.2503   11.4035 N.2       1 RES1    0.0000
      5 N3         0.4295   10.2971    8.0143 N.pl3     1 RES1    0.0000
      6 H1         0.7232   10.6862    7.3173 H         1 RES1    0.0000
      7 C1         1.5736   12.2253   10.8012 C.2       1 RES1    0.0000
      8 N4        -0.3774    9.1535    7.9485 N.3       1 RES1    0.0000
      9 H2        -0.8978    9.2751    7.2980 H         1 RES1    0.0000
     10 H3         0.0831    8.4663    7.6957 H         1 RES1    0.0000
     11 C2         1.4925   12.0400    9.3968 C.2       1 RES1    0.0000
     12 N5         2.0086   12.8479    8.4033 N.pl3     1 RES1    0.0000
     13 C3         0.7476   10.8626    9.1807 C.2       1 RES1    0.0000
     14 C4        -0.2402    9.2066   10.8428 C.3       1 RES1    0.0000
     15 H4        -1.1389    9.2780   10.6813 H         1 RES1    0.0000
     16 C5         2.2287   13.3084   11.5723 C.3       1 RES1    0.0000
     17 H5         1.9868   14.1048   11.2874 H         1 RES1    0.0000
     18 H6         1.9452   13.3047   12.5087 H         1 RES1    0.0000
     19 H7         3.2254   13.2917   11.4277 H         1 RES1    0.0000
     20 H8        -0.0249    9.0485   11.6464 H         1 RES1    0.0000
     21 H9         0.0831    8.4893   10.4239 H         1 RES1    0.0000
@<TRIPOS>BOND
     1    1   12 2
     2    2    4 1
     3    3   12 2
     4    4    7 2
     5    5    6 1
     6    7   11 1
     7    8    5 1
     8    9    8 1
     9   10    8 1
    10   11   12 1
    11   13    2 1
    12   14    2 1
    13   15   14 1
    14   16    7 1
    15   17   16 1
    16   18   16 1
    17   19   16 1
    18   20   14 1
    19   21   14 1
    20    5   13 1
    21   11   13 2
@<TRIPOS>SUBSTRUCTURE
     1 RES1 1

@<TRIPOS>CRYSIN
   8.3129   14.3400   12.8690  90.0000  90.0000  90.0000  61 1

