# MOL2 file generated by ConQuest
# Please check atom types

@<TRIPOS>MOLECULE
KIKNAU
    52    53     1
SMALL
NO_CHARGES
****
Generated from CSD

@<TRIPOS>ATOM
      1 N1         3.3297    4.1799    0.3359 N.2       1 RES1    0.0000
      2 N2         0.8692    8.5531   -2.2670 N.pl3     1 RES1    0.0000
      3 O1         5.2565    2.4337    0.5431 O.3       1 RES1    0.0000
      4 O2         0.4081    9.4644   -1.5883 O.2       1 RES1    0.0000
      5 O3         0.8463    8.5635   -3.4670 O.2       1 RES1    0.0000
      6 C1         4.6563    1.9745    1.6863 C.ar      1 RES1    0.0000
      7 C2         5.2156    0.8789    2.3615 C.ar      1 RES1    0.0000
      8 C3         4.5211    0.4534    3.4862 C.ar      1 RES1    0.0000
      9 H1         4.8726   -0.2671    3.9568 H         1 RES1    0.0000
     10 C4         3.3337    1.0199    3.9690 C.ar      1 RES1    0.0000
     11 C5         2.8371    2.1038    3.2816 C.ar      1 RES1    0.0000
     12 H2         2.0618    2.5197    3.5824 H         1 RES1    0.0000
     13 C6         3.4830    2.5941    2.1323 C.ar      1 RES1    0.0000
     14 C7         2.8774    3.7071    1.4396 C.2       1 RES1    0.0000
     15 H3         2.1232    4.1010    1.8122 H         1 RES1    0.0000
     16 C8         2.6711    5.2981   -0.2711 C.ar      1 RES1    0.0000
     17 C9         2.1007    6.3322    0.4531 C.ar      1 RES1    0.0000
     18 H4         2.1159    6.3064    1.3836 H         1 RES1    0.0000
     19 C10        1.5043    7.4084   -0.1942 C.ar      1 RES1    0.0000
     20 H5         1.1136    8.0978    0.2921 H         1 RES1    0.0000
     21 C11        1.5046    7.4304   -1.5603 C.ar      1 RES1    0.0000
     22 C12        2.0796    6.4422   -2.3037 C.ar      1 RES1    0.0000
     23 H6         2.0673    6.4842   -3.2326 H         1 RES1    0.0000
     24 C13        2.6765    5.3848   -1.6618 C.ar      1 RES1    0.0000
     25 H7         3.0894    4.7180   -2.1621 H         1 RES1    0.0000
     26 C14        2.6633    0.4721    5.2337 C.3       1 RES1    0.0000
     27 C15        2.4411   -1.0283    5.1165 C.3       1 RES1    0.0000
     28 H8         3.2791   -1.4636    4.9451 H         1 RES1    0.0000
     29 H9         1.8340   -1.2062    4.3941 H         1 RES1    0.0000
     30 H10        2.0679   -1.3614    5.9369 H         1 RES1    0.0000
     31 C16        3.6035    0.7043    6.4319 C.3       1 RES1    0.0000
     32 H11        4.4390    0.2574    6.2745 H         1 RES1    0.0000
     33 H12        3.1988    0.3544    7.2296 H         1 RES1    0.0000
     34 H13        3.7602    1.6453    6.5386 H         1 RES1    0.0000
     35 C17        1.3396    1.1719    5.5416 C.3       1 RES1    0.0000
     36 H14        1.4892    2.1161    5.6273 H         1 RES1    0.0000
     37 H15        0.9771    0.8285    6.3620 H         1 RES1    0.0000
     38 H16        0.7187    1.0109    4.8261 H         1 RES1    0.0000
     39 C18        6.5141    0.2057    1.8997 C.3       1 RES1    0.0000
     40 C19        6.3658   -0.3337    0.4705 C.3       1 RES1    0.0000
     41 H17        5.6717   -0.9960    0.4496 H         1 RES1    0.0000
     42 H18        7.1949   -0.7295    0.1907 H         1 RES1    0.0000
     43 H19        6.1398    0.3868   -0.1207 H         1 RES1    0.0000
     44 C20        7.6669    1.2450    1.9259 C.3       1 RES1    0.0000
     45 H20        7.4445    1.9842    1.3557 H         1 RES1    0.0000
     46 H21        8.4766    0.8330    1.6163 H         1 RES1    0.0000
     47 H22        7.7933    1.5606    2.8233 H         1 RES1    0.0000
     48 C21        6.8996   -0.9695    2.8075 C.3       1 RES1    0.0000
     49 H23        6.2015   -1.6285    2.7918 H         1 RES1    0.0000
     50 H24        7.0206   -0.6532    3.7049 H         1 RES1    0.0000
     51 H25        7.7169   -1.3614    2.4927 H         1 RES1    0.0000
     52 H26        4.6223    3.1496    0.2624 H         1 RES1    0.0000
@<TRIPOS>BOND
     1    1   14 2
     2    2    4 2
     3    3    6 1
     4    5    2 2
     5    6    7 ar
     6    7    8 ar
     7    8    9 1
     8   10    8 ar
     9   11   10 ar
    10   12   11 1
    11   13    6 ar
    12   14   13 1
    13   15   14 1
    14   16    1 1
    15   17   16 ar
    16   18   17 1
    17   19   17 ar
    18   20   19 1
    19   21    2 1
    20   22   21 ar
    21   23   22 1
    22   24   16 ar
    23   25   24 1
    24   26   10 1
    25   27   26 1
    26   28   27 1
    27   29   27 1
    28   30   27 1
    29   31   26 1
    30   32   31 1
    31   33   31 1
    32   34   31 1
    33   35   26 1
    34   36   35 1
    35   37   35 1
    36   38   35 1
    37   39    7 1
    38   40   39 1
    39   41   40 1
    40   42   40 1
    41   43   40 1
    42   44   39 1
    43   45   44 1
    44   46   44 1
    45   47   44 1
    46   48   39 1
    47   49   48 1
    48   50   48 1
    49   51   48 1
    50   52    3 1
    51   11   13 ar
    52   19   21 ar
    53   22   24 ar
@<TRIPOS>SUBSTRUCTURE
     1 RES1 1

@<TRIPOS>CRYSIN
  17.9370    6.4674   19.0470  90.0000 113.3100  90.0000  14 1

