# MOL2 file generated by ConQuest
# Please check atom types

@<TRIPOS>MOLECULE
KINPII
    63    66     1
SMALL
USER_CHARGES
****
Generated from CSD

@<TRIPOS>ATOM
      1 N1         5.7300    8.3234    6.2174 N.pl3     1 RES1    0.0000
      2 O1        12.0452    6.1197    8.2398 O.2       1 RES1    0.0000
      3 N2         7.5352    6.8687    6.5694 N.pl3     1 RES1    0.0000
      4 N3         5.9417    9.0528    7.3583 N.2       1 RES1    0.0000
      5 N4         3.7776   11.4239    3.9050 N.pl3     1 RES1    1.0000
      6 N5        12.0107    7.2838    7.7228 N.pl3     1 RES1    1.0000
      7 N6         8.0171    5.6343    6.8913 N.2       1 RES1    0.0000
      8 C1         4.2111   11.4001    5.1617 C.2       1 RES1    0.0000
      9 N7        11.2486    9.0670    6.7311 N.3       1 RES1    0.0000
     10 C2         5.0533    9.0229    5.2816 C.2       1 RES1    0.0000
     11 H1         4.7957    8.7207    4.4411 H         1 RES1    0.0000
     12 C3         9.2918    5.8472    7.1541 C.2       1 RES1    0.0000
     13 H2         9.8834    5.1812    7.4221 H         1 RES1    0.0000
     14 C4        10.9408    7.8304    7.1419 C.2       1 RES1    0.0000
     15 N8         5.4768    6.1042    5.6286 N.2       1 RES1    0.0000
     16 H3         5.8902    5.3664    5.5960 H         1 RES1    0.0000
     17 C5         8.4969    7.8222    6.6020 C.2       1 RES1    0.0000
     18 H4         8.3897    8.7258    6.4054 H         1 RES1    0.0000
     19 C6         4.8201   10.2664    5.8139 C.2       1 RES1    0.0000
     20 N9         4.0466   12.6139    5.7038 N.3       1 RES1    0.0000
     21 O2         3.7865   10.4253    3.1047 O.2       1 RES1    0.0000
     22 O3        10.4568    9.8648    6.1199 O.2       1 RES1   -1.0000
     23 C7        12.7022    9.3812    6.8913 C.3       1 RES1    0.0000
     24 C8         5.3864   10.2180    7.1108 C.2       1 RES1    0.0000
     25 H5         5.3679   10.9256    7.7144 H         1 RES1    0.0000
     26 C9         9.6552    7.2031    6.9802 C.2       1 RES1    0.0000
     27 C10        6.2026    6.9913    6.1108 C.2       1 RES1    0.0000
     28 C11        3.2328   12.7634    3.4996 C.3       1 RES1    0.0000
     29 C12        3.4919   13.6182    4.7562 C.3       1 RES1    0.0000
     30 C13       13.3185    9.2713    5.5064 C.3       1 RES1    0.0000
     31 H6        13.0018    9.9919    4.9567 H         1 RES1    0.0000
     32 H7        13.0684    8.4340    5.1100 H         1 RES1    0.0000
     33 H8        14.2743    9.3195    5.5762 H         1 RES1    0.0000
     34 O4         4.3761   12.9397    6.8799 O.2       1 RES1   -1.0000
     35 C14       13.1324    8.2658    7.8921 C.3       1 RES1    0.0000
     36 C15       12.8608   10.8018    7.3955 C.3       1 RES1    0.0000
     37 H9        12.5719   11.4153    6.7159 H         1 RES1    0.0000
     38 H10       13.7821   10.9662    7.6043 H         1 RES1    0.0000
     39 H11       12.3261   10.9231    8.1837 H         1 RES1    0.0000
     40 C16        4.5764   14.6737    4.5945 C.3       1 RES1    0.0000
     41 H12        4.6729   15.1629    5.4160 H         1 RES1    0.0000
     42 H13        4.3328   15.2771    3.8899 H         1 RES1    0.0000
     43 H14        5.4083   14.2469    4.3766 H         1 RES1    0.0000
     44 C17        1.7580   12.5546    3.1936 C.3       1 RES1    0.0000
     45 H15        1.6685   12.0141    2.4047 H         1 RES1    0.0000
     46 H16        1.3372   13.4046    3.0478 H         1 RES1    0.0000
     47 H17        1.3370   12.1131    3.9339 H         1 RES1    0.0000
     48 C18       14.4575    7.5954    7.5694 C.3       1 RES1    0.0000
     49 H18       14.6470    6.9268    8.2315 H         1 RES1    0.0000
     50 H19       15.1573    8.2538    7.5694 H         1 RES1    0.0000
     51 H20       14.4055    7.1831    6.7038 H         1 RES1    0.0000
     52 C19       13.0956    8.6936    9.3492 C.3       1 RES1    0.0000
     53 H21       13.3724    7.9620    9.9050 H         1 RES1    0.0000
     54 H22       12.2015    8.9541    9.5838 H         1 RES1    0.0000
     55 H23       13.6893    9.4362    9.4798 H         1 RES1    0.0000
     56 C20        2.2764   14.2502    5.3826 C.3       1 RES1    0.0000
     57 H24        2.5413   14.7595    6.1525 H         1 RES1    0.0000
     58 H25        1.6606   13.5644    5.6491 H         1 RES1    0.0000
     59 H26        1.8533   14.8305    4.7456 H         1 RES1    0.0000
     60 C21        3.9669   13.2008    2.2657 C.3       1 RES1    0.0000
     61 H27        3.7490   12.6129    1.5383 H         1 RES1    0.0000
     62 H28        4.9130   13.1711    2.4290 H         1 RES1    0.0000
     63 H29        3.7088   14.0972    2.0410 H         1 RES1    0.0000
@<TRIPOS>BOND
     1    1    4 1
     2    2    6 1
     3    3    7 1
     4    4   24 2
     5    5    8 2
     6    6   14 2
     7    7   12 2
     8    8   19 1
     9    9   14 1
    10   10    1 1
    11   11   10 1
    12   12   13 1
    13   14   26 1
    14   15   16 1
    15   17    3 1
    16   18   17 1
    17   19   10 2
    18   20    8 1
    19   21    5 1
    20   22    9 1
    21   23    9 1
    22   24   19 1
    23   25   24 1
    24   26   12 1
    25   27    1 1
    26   28    5 1
    27   29   20 1
    28   30   23 1
    29   31   30 1
    30   32   30 1
    31   33   30 1
    32   34   20 1
    33   35    6 1
    34   36   23 1
    35   37   36 1
    36   38   36 1
    37   39   36 1
    38   40   29 1
    39   41   40 1
    40   42   40 1
    41   43   40 1
    42   44   28 1
    43   45   44 1
    44   46   44 1
    45   47   44 1
    46   48   35 1
    47   49   48 1
    48   50   48 1
    49   51   48 1
    50   52   35 1
    51   53   52 1
    52   54   52 1
    53   55   52 1
    54   56   29 1
    55   57   56 1
    56   58   56 1
    57   59   56 1
    58   60   28 1
    59   61   60 1
    60   62   60 1
    61   63   60 1
    62    3   27 1
    63   15   27 2
    64   17   26 2
    65   23   35 1
    66   28   29 1
@<TRIPOS>SUBSTRUCTURE
     1 RES1 1

@<TRIPOS>CRYSIN
  12.1665   25.3730    7.5933  90.0000  90.5690  90.0000  14 1

