# MOL2 file generated by ConQuest
# Please check atom types

@<TRIPOS>MOLECULE
KINWUC
    40    43     1
SMALL
USER_CHARGES
****
Generated from CSD

@<TRIPOS>ATOM
      1 O1         3.9836    2.7894   15.9400 O.2       1 RES1   -1.0000
      2 N1         3.5487    4.8054   13.1926 N.2       1 RES1    0.0000
      3 O2         3.3885    4.5183   14.5291 O.3       1 RES1    0.0000
      4 N2         4.0473    3.2208   14.7915 N.pl3     1 RES1    1.0000
      5 C1         4.5648    2.8245   13.6344 C.2       1 RES1    0.0000
      6 C2         5.3192    1.6210   13.3396 C.2       1 RES1    0.0000
      7 C3         5.6729    1.4581   12.0540 C.2       1 RES1    0.0000
      8 H1         6.2073    0.6990   11.8524 H         1 RES1    0.0000
      9 C4         5.3103    2.3533   10.9001 C.3       1 RES1    0.0000
     10 H2         6.1477    2.5480   10.3894 H         1 RES1    0.0000
     11 C5         4.2921    1.7381    9.9185 C.3       1 RES1    0.0000
     12 H3         4.7249    1.0901    9.3081 H         1 RES1    0.0000
     13 H4         3.5521    1.2897   10.3997 H         1 RES1    0.0000
     14 N3         3.8192    2.9225    9.1942 N.3       1 RES1    0.0000
     15 C6         3.4637    3.8496   10.2693 C.3       1 RES1    0.0000
     16 H5         2.6104    3.5875   10.6975 H         1 RES1    0.0000
     17 H6         3.3829    4.7756    9.9285 H         1 RES1    0.0000
     18 C7         4.6315    3.7240   11.2482 C.3       1 RES1    0.0000
     19 C8         4.2350    3.8160   12.6872 C.2       1 RES1    0.0000
     20 C9         5.6664    0.6545   14.4379 C.3       1 RES1    0.0000
     21 H7         6.1570    1.1248   15.1439 H         1 RES1    0.0000
     22 H8         6.2247   -0.0648   14.0755 H         1 RES1    0.0000
     23 H9         4.8436    0.2735   14.8099 H         1 RES1    0.0000
     24 C10        2.6852    2.6449    8.3018 C.3       1 RES1    0.0000
     25 H10        1.9096    2.3410    8.8365 H         1 RES1    0.0000
     26 H11        2.9284    1.9200    7.6729 H         1 RES1    0.0000
     27 C11        2.3085    3.8829    7.5240 C.ar      1 RES1    0.0000
     28 C12        3.0501    4.2525    6.4041 C.ar      1 RES1    0.0000
     29 H12        3.7738    3.7060    6.1210 H         1 RES1    0.0000
     30 C13        2.7467    5.4093    5.6940 C.ar      1 RES1    0.0000
     31 H13        3.2583    5.6469    4.9295 H         1 RES1    0.0000
     32 C14        1.6952    6.2158    6.1048 C.ar      1 RES1    0.0000
     33 H14        1.4837    7.0051    5.6200 H         1 RES1    0.0000
     34 C15        0.9560    5.8703    7.2200 C.ar      1 RES1    0.0000
     35 H15        0.2424    6.4278    7.5073 H         1 RES1    0.0000
     36 C16        1.2557    4.7041    7.9250 C.ar      1 RES1    0.0000
     37 H16        0.7374    4.4670    8.6850 H         1 RES1    0.0000
     38 N4         5.6782    4.8198   11.0257 N.pl3     1 RES1    0.0000
     39 O3         5.5497    5.5843   10.0849 O.2       1 RES1    0.0000
     40 O4         6.6097    4.8472   11.8250 O.2       1 RES1    0.0000
@<TRIPOS>BOND
     1    1    4 1
     2    2    3 1
     3    3    4 1
     4    4    5 2
     5    5    6 1
     6    6    7 2
     7    7    8 1
     8    9    7 1
     9   10    9 1
    10   11    9 1
    11   12   11 1
    12   13   11 1
    13   14   11 1
    14   15   14 1
    15   16   15 1
    16   17   15 1
    17   18    9 1
    18   19    2 2
    19   20    6 1
    20   21   20 1
    21   22   20 1
    22   23   20 1
    23   24   14 1
    24   25   24 1
    25   26   24 1
    26   27   24 1
    27   28   27 ar
    28   29   28 1
    29   30   28 ar
    30   31   30 1
    31   32   30 ar
    32   33   32 1
    33   34   32 ar
    34   35   34 1
    35   36   27 ar
    36   37   36 1
    37   38   18 1
    38   39   38 2
    39   40   38 2
    40    5   19 1
    41   15   18 1
    42   18   19 1
    43   34   36 ar
@<TRIPOS>SUBSTRUCTURE
     1 RES1 1

@<TRIPOS>CRYSIN
  12.9810    6.7490   18.0061  90.0000  92.6000  90.0000 231 1

