# MOL2 file generated by ConQuest
# Please check atom types

@<TRIPOS>MOLECULE
KIPMEB
    52    53     1
SMALL
NO_CHARGES
****
Generated from CSD

@<TRIPOS>ATOM
      1 C1        -1.9486    5.0316    4.3057 C.ar      1 RES1    0.0000
      2 C2        -1.5575    3.6797    4.1694 C.ar      1 RES1    0.0000
      3 C3        -0.5488    3.3139    3.2483 C.ar      1 RES1    0.0000
      4 C4         0.0203    4.3459    2.4953 C.ar      1 RES1    0.0000
      5 C5        -0.3559    5.7053    2.5904 C.ar      1 RES1    0.0000
      6 C6        -1.3340    6.0252    3.5147 C.ar      1 RES1    0.0000
      7 C7        -2.9733    5.4461    5.2506 C.2       1 RES1    0.0000
      8 C8        -4.5413    5.1141    6.9437 C.ar      1 RES1    0.0000
      9 C9        -5.7828    4.4695    7.0800 C.ar      1 RES1    0.0000
     10 C10       -6.7242    4.9411    7.9916 C.ar      1 RES1    0.0000
     11 C11       -6.4389    6.0348    8.8112 C.ar      1 RES1    0.0000
     12 C12       -5.1912    6.6301    8.6796 C.ar      1 RES1    0.0000
     13 C13       -4.2325    6.2039    7.7633 C.ar      1 RES1    0.0000
     14 C14       -0.1021    1.8466    3.0850 C.3       1 RES1    0.0000
     15 C15        0.4903    1.3193    4.4120 C.3       1 RES1    0.0000
     16 C16       -1.2920    0.9596    2.6602 C.3       1 RES1    0.0000
     17 C17        0.9880    1.7135    2.0102 C.3       1 RES1    0.0000
     18 C18        0.3246    6.7468    1.6884 C.3       1 RES1    0.0000
     19 C19        0.1744    6.3381    0.2124 C.3       1 RES1    0.0000
     20 C20       -0.2871    8.1459    1.8596 C.3       1 RES1    0.0000
     21 C21        1.8192    6.8351    2.0482 C.3       1 RES1    0.0000
     22 N1        -3.6107    4.6064    6.0020 N.2       1 RES1    0.0000
     23 N2        -4.8472    7.7523    9.5753 N.pl3     1 RES1    0.0000
     24 O1        -2.1364    2.7225    4.9462 O.3       1 RES1    0.0000
     25 O2        -5.7134    8.1737   10.3395 O.2       1 RES1    0.0000
     26 O3        -3.7023    8.2043    9.5199 O.2       1 RES1    0.0000
     27 H1        -2.7867    3.1434    5.4614 H         1 RES1    0.0000
     28 H2         0.7216    4.1163    1.8485 H         1 RES1    0.0000
     29 H3        -1.6296    6.9809    3.6526 H         1 RES1    0.0000
     30 H4        -3.1749    6.4245    5.2950 H         1 RES1    0.0000
     31 H5        -5.9887    3.6952    6.5077 H         1 RES1    0.0000
     32 H6        -7.5773    4.4680    8.0598 H         1 RES1    0.0000
     33 H7        -7.0790    6.3511    9.4564 H         1 RES1    0.0000
     34 H8        -3.3800    6.6204    7.7047 H         1 RES1    0.0000
     35 H9         0.7909    0.3906    4.2835 H         1 RES1    0.0000
     36 H10        1.2693    1.8500    4.6751 H         1 RES1    0.0000
     37 H11       -0.1738    1.3242    5.1523 H         1 RES1    0.0000
     38 H12       -2.0170    0.9403    3.3228 H         1 RES1    0.0000
     39 H13       -0.9526    0.0312    2.5651 H         1 RES1    0.0000
     40 H14       -1.6904    1.2600    1.7993 H         1 RES1    0.0000
     41 H15        1.2425    0.7771    1.9230 H         1 RES1    0.0000
     42 H16        1.8181    2.2079    2.2607 H         1 RES1    0.0000
     43 H17        0.6671    2.0062    1.1177 H         1 RES1    0.0000
     44 H18        0.5646    5.4449    0.0174 H         1 RES1    0.0000
     45 H19       -0.7975    6.2907   -0.0507 H         1 RES1    0.0000
     46 H20        0.6524    6.9885   -0.3773 H         1 RES1    0.0000
     47 H21       -1.2719    8.1701    1.6345 H         1 RES1    0.0000
     48 H22        0.1866    8.7781    1.2445 H         1 RES1    0.0000
     49 H23       -0.1632    8.5014    2.7775 H         1 RES1    0.0000
     50 H24        1.9476    7.1370    2.9804 H         1 RES1    0.0000
     51 H25        2.2819    5.9532    1.9690 H         1 RES1    0.0000
     52 H26        2.2976    7.4625    1.4537 H         1 RES1    0.0000
@<TRIPOS>BOND
     1    1    2 ar
     2    2    3 ar
     3    3    4 ar
     4    4    5 ar
     5    5    6 ar
     6    6    1 ar
     7    7    1 1
     8    8    9 ar
     9    9   10 ar
    10   10   11 ar
    11   11   12 ar
    12   12   13 ar
    13   13    8 ar
    14   14    3 1
    15   15   14 1
    16   16   14 1
    17   17   14 1
    18   18    5 1
    19   19   18 1
    20   20   18 1
    21   21   18 1
    22   22    7 2
    23   23   12 1
    24   24    2 1
    25   25   23 2
    26   26   23 2
    27   27   24 1
    28   28    4 1
    29   29    6 1
    30   30    7 1
    31   31    9 1
    32   32   10 1
    33   33   11 1
    34   34   13 1
    35   35   15 1
    36   36   15 1
    37   37   15 1
    38   38   16 1
    39   39   16 1
    40   40   16 1
    41   41   17 1
    42   42   17 1
    43   43   17 1
    44   44   19 1
    45   45   19 1
    46   46   19 1
    47   47   20 1
    48   48   20 1
    49   49   20 1
    50   50   21 1
    51   51   21 1
    52   52   21 1
    53    8   22 1
@<TRIPOS>SUBSTRUCTURE
     1 RES1 1

@<TRIPOS>CRYSIN
   6.1043   10.3155   16.2882 102.1932  92.2811 103.0796   2 1

