# MOL2 file generated by ConQuest
# Please check atom types

@<TRIPOS>MOLECULE
KIQREJ
    27    27     1
SMALL
NO_CHARGES
****
Generated from CSD

@<TRIPOS>ATOM
      1 O1        -2.6813    5.7271    3.0388 O.2       1 RES1    0.0000
      2 O2        -0.8477    8.2472    2.4853 O.2       1 RES1    0.0000
      3 O3         0.3335    9.2268    4.0082 O.2       1 RES1    0.0000
      4 O4         1.6906    6.8648    7.8814 O.2       1 RES1    0.0000
      5 O5         1.9272    4.7255    7.8181 O.2       1 RES1    0.0000
      6 N1        -2.6171    5.9152    0.7812 N.am      1 RES1    0.0000
      7 H1        -2.0896    5.8585    0.0081 H         1 RES1    0.0000
      8 N2        -0.1076    8.2276    3.4665 N.pl3     1 RES1    0.0000
      9 N3         1.5990    5.7979    7.3169 N.pl3     1 RES1    0.0000
     10 N4         0.0747    3.3769    0.7870 N.1       1 RES1    0.0000
     11 C1        -2.0707    5.7790    1.9887 C.2       1 RES1    0.0000
     12 C2        -0.5257    5.6547    1.9556 C.3       1 RES1    0.0000
     13 H2        -0.1479    6.4014    1.4073 H         1 RES1    0.0000
     14 C3         0.0480    5.7295    3.3644 C.ar      1 RES1    0.0000
     15 C4         0.2430    6.9231    4.0579 C.ar      1 RES1    0.0000
     16 C5         0.7547    6.9734    5.3482 C.ar      1 RES1    0.0000
     17 H3         0.8807    7.7995    5.7995 H         1 RES1    0.0000
     18 C6         1.0715    5.7665    5.9475 C.ar      1 RES1    0.0000
     19 C7         0.8863    4.5469    5.3263 C.ar      1 RES1    0.0000
     20 H4         1.0926    3.7342    5.7721 H         1 RES1    0.0000
     21 C8         0.3871    4.5446    4.0223 C.ar      1 RES1    0.0000
     22 H5         0.2755    3.7161    3.5705 H         1 RES1    0.0000
     23 C9        -4.0646    5.9687    0.5907 C.3       1 RES1    0.0000
     24 H6        -4.3319    5.2975   -0.0709 H         1 RES1    0.0000
     25 H7        -4.3189    6.8601    0.2736 H         1 RES1    0.0000
     26 H8        -4.5128    5.7846    1.4428 H         1 RES1    0.0000
     27 C10       -0.1821    4.3526    1.3121 C.1       1 RES1    0.0000
@<TRIPOS>BOND
     1    1   11 2
     2    2    8 2
     3    3    8 2
     4    4    9 2
     5    5    9 2
     6    6    7 1
     7    8   15 1
     8    9   18 1
     9   10   27 3
    10   11    6 1
    11   12   11 1
    12   13   12 1
    13   14   12 1
    14   15   14 ar
    15   16   15 ar
    16   17   16 1
    17   18   16 ar
    18   19   18 ar
    19   20   19 1
    20   21   14 ar
    21   22   21 1
    22   23    6 1
    23   24   23 1
    24   25   23 1
    25   26   23 1
    26   27   12 1
    27   19   21 ar
@<TRIPOS>SUBSTRUCTURE
     1 RES1 1

@<TRIPOS>CRYSIN
   6.8232    7.8680   10.3606  90.0000 102.0620  90.0000   4 1

