# MOL2 file generated by ConQuest
# Please check atom types

@<TRIPOS>MOLECULE
KIQTEL
    36    38     1
SMALL
NO_CHARGES
****
Generated from CSD

@<TRIPOS>ATOM
      1 O1         0.3673    8.3869   -0.5535 O.2       1 RES1    0.0000
      2 O2         2.1634    7.6127   -1.5055 O.2       1 RES1    0.0000
      3 N1         0.1821    5.3421    3.5731 N.ar      1 RES1    0.0000
      4 N2         1.7298    3.3703   -1.8797 N.3       1 RES1    0.0000
      5 N3         1.2664    7.5471   -0.6534 N.pl3     1 RES1    0.0000
      6 N4         0.8152    7.7078    2.2241 N.3       1 RES1    0.0000
      7 C1        -0.0996    4.2197    4.2121 C.ar      1 RES1    0.0000
      8 H1        -0.3965    4.2814    5.1122 H         1 RES1    0.0000
      9 C2         0.0138    2.9362    3.6395 C.ar      1 RES1    0.0000
     10 H2        -0.2280    2.1609    4.1329 H         1 RES1    0.0000
     11 C3         0.4808    2.8327    2.3558 C.ar      1 RES1    0.0000
     12 H3         0.6005    1.9786    1.9578 H         1 RES1    0.0000
     13 C4         1.6993    2.7902   -0.5299 C.3       1 RES1    0.0000
     14 H4         2.5877    2.4408   -0.2664 H         1 RES1    0.0000
     15 H5         1.0305    2.0629   -0.4647 H         1 RES1    0.0000
     16 C5         2.0506    4.8006   -1.7579 C.3       1 RES1    0.0000
     17 H6         1.5892    5.3331   -2.4535 H         1 RES1    0.0000
     18 H7         3.0262    4.9567   -1.8216 H         1 RES1    0.0000
     19 C6         1.2461    6.3812    0.2215 C.ar      1 RES1    0.0000
     20 C7         0.8371    6.5044    1.5552 C.ar      1 RES1    0.0000
     21 C8         0.7835    4.0086    1.6263 C.ar      1 RES1    0.0000
     22 C9         1.3049    3.9747    0.3086 C.ar      1 RES1    0.0000
     23 C10        1.5323    5.1318   -0.3824 C.ar      1 RES1    0.0000
     24 C11        0.5756    5.2607    2.2701 C.ar      1 RES1    0.0000
     25 C12        2.5665    2.6612   -2.8331 C.3       1 RES1    0.0000
     26 H8         2.3766    2.9846   -3.7380 H         1 RES1    0.0000
     27 H9         2.3772    1.7008   -2.7837 H         1 RES1    0.0000
     28 H10        3.5104    2.8191   -2.6208 H         1 RES1    0.0000
     29 C13        1.7050    8.8029    1.8695 C.3       1 RES1    0.0000
     30 H11        2.4917    8.4477    1.4069 H         1 RES1    0.0000
     31 H12        1.9885    9.2701    2.6828 H         1 RES1    0.0000
     32 H13        1.2339    9.4286    1.2802 H         1 RES1    0.0000
     33 C14       -0.3213    8.1336    3.0410 C.3       1 RES1    0.0000
     34 H14       -0.8892    7.3598    3.2397 H         1 RES1    0.0000
     35 H15       -0.8425    8.8041    2.5518 H         1 RES1    0.0000
     36 H16        0.0062    8.5219    3.8794 H         1 RES1    0.0000
@<TRIPOS>BOND
     1    1    5 2
     2    2    5 2
     3    3    7 ar
     4    4   13 1
     5    5   19 1
     6    6   20 1
     7    7    8 1
     8    9    7 ar
     9   10    9 1
    10   11    9 ar
    11   12   11 1
    12   13   14 1
    13   15   13 1
    14   16    4 1
    15   17   16 1
    16   18   16 1
    17   19   20 ar
    18   20   24 ar
    19   21   11 ar
    20   22   13 1
    21   23   16 1
    22   24    3 ar
    23   25    4 1
    24   26   25 1
    25   27   25 1
    26   28   25 1
    27   29    6 1
    28   30   29 1
    29   31   29 1
    30   32   29 1
    31   33    6 1
    32   34   33 1
    33   35   33 1
    34   36   33 1
    35   19   23 ar
    36   21   22 ar
    37   21   24 ar
    38   22   23 ar
@<TRIPOS>SUBSTRUCTURE
     1 RES1 1

@<TRIPOS>CRYSIN
   8.0409    9.3294    9.8592 103.4950 113.4790  96.0540   2 1

