# MOL2 file generated by ConQuest
# Please check atom types

@<TRIPOS>MOLECULE
KIQYUH
    27    28     1
SMALL
NO_CHARGES
****
Generated from CSD

@<TRIPOS>ATOM
      1 O1        -1.2298    5.6151    1.5642 O.2       1 RES1    0.0000
      2 O2        -0.7984    6.4260    3.5288 O.2       1 RES1    0.0000
      3 O3        -1.1293    4.3119    5.4537 O.2       1 RES1    0.0000
      4 O4         0.7565    3.7148    6.3546 O.2       1 RES1    0.0000
      5 O5         7.1691    4.7916    3.6115 O.2       1 RES1    0.0000
      6 O6         6.9091    6.5936    2.4625 O.2       1 RES1    0.0000
      7 O7         7.2613    5.9776   -0.2243 O.2       1 RES1    0.0000
      8 O8         5.4342    6.3594   -1.3205 O.2       1 RES1    0.0000
      9 N1         1.8875    3.2410    2.4554 N.3       1 RES1    0.0000
     10 N2         1.0358    4.1200    1.8827 N.2       1 RES1    0.0000
     11 N3        -0.6598    5.5957    2.6420 N.pl3     1 RES1    0.0000
     12 N4         0.0478    3.9922    5.3921 N.pl3     1 RES1    0.0000
     13 N5         4.0061    3.5989    1.4112 N.3       1 RES1    0.0000
     14 N6         4.8620    3.8937    2.4176 N.2       1 RES1    0.0000
     15 N7         6.6640    5.4304    2.7115 N.pl3     1 RES1    0.0000
     16 N8         6.0550    5.8736   -0.3897 N.pl3     1 RES1    0.0000
     17 C1         0.2864    4.5239    2.8883 C.2       1 RES1    0.0000
     18 C2         0.6569    3.9222    4.0945 C.2       1 RES1    0.0000
     19 C3         1.7059    3.0935    3.7725 C.2       1 RES1    0.0000
     20 C4         2.9383    2.6441    1.6390 C.3       1 RES1    0.0000
     21 C5         5.6656    4.7855    1.8801 C.2       1 RES1    0.0000
     22 C6         5.3303    5.0789    0.5578 C.2       1 RES1    0.0000
     23 C7         4.2442    4.2899    0.2859 C.2       1 RES1    0.0000
     24 H1         3.3084    1.9360    2.1027 H         1 RES1    0.0000
     25 H2         2.2029    2.5017    4.2757 H         1 RES1    0.0000
     26 H3         2.5803    2.4011    0.7742 H         1 RES1    0.0000
     27 H4         3.8138    4.1862   -0.4663 H         1 RES1    0.0000
@<TRIPOS>BOND
     1    1   11 2
     2    2   11 2
     3    3   12 2
     4    4   12 2
     5    5   15 2
     6    6   15 2
     7    7   16 2
     8    8   16 2
     9    9   10 1
    10   10   17 2
    11   11   17 1
    12   12   18 1
    13   13   14 1
    14   14   21 2
    15   15   21 1
    16   16   22 1
    17   17   18 1
    18   18   19 2
    19   19    9 1
    20   20    9 1
    21   21   22 1
    22   22   23 2
    23   23   13 1
    24   24   20 1
    25   25   19 1
    26   26   20 1
    27   27   23 1
    28   13   20 1
@<TRIPOS>SUBSTRUCTURE
     1 RES1 1

@<TRIPOS>CRYSIN
  10.9540   12.5712   10.3265  90.0000 121.5750  90.0000   9 1

