# MOL2 file generated by ConQuest
# Please check atom types

@<TRIPOS>MOLECULE
KIVYOD
    55    59     1
SMALL
NO_CHARGES
****
Generated from CSD

@<TRIPOS>ATOM
      1 O1         4.5160   -3.0672    2.3325 O.2       1 RES1    0.0000
      2 O2         6.7831    1.7780    4.9915 O.2       1 RES1    0.0000
      3 O3         6.8330    1.1957    7.0441 O.2       1 RES1    0.0000
      4 O4         3.1109    2.3744    3.6356 O.3       1 RES1    0.0000
      5 N1         3.4017   -1.1688    1.8085 N.am      1 RES1    0.0000
      6 N2         6.4415    1.0639    5.8981 N.pl3     1 RES1    0.0000
      7 C1         2.9741    0.2309    2.1008 C.3       1 RES1    0.0000
      8 C2         2.5965    0.8118    0.6904 C.3       1 RES1    0.0000
      9 C3         2.5480   -0.4165   -0.1788 C.ar      1 RES1    0.0000
     10 C4         2.1329   -0.5383   -1.4912 C.ar      1 RES1    0.0000
     11 C5         2.1429   -1.7794   -2.1039 C.ar      1 RES1    0.0000
     12 C6         2.5758   -2.8915   -1.4026 C.ar      1 RES1    0.0000
     13 C7         3.0346   -2.7923   -0.0980 C.ar      1 RES1    0.0000
     14 C8         3.0248   -1.5329    0.4852 C.ar      1 RES1    0.0000
     15 C9         1.2674    1.5754    0.6982 C.3       1 RES1    0.0000
     16 C10        3.7174    1.7425    0.2084 C.3       1 RES1    0.0000
     17 C11        4.1166   -1.9423    2.6513 C.2       1 RES1    0.0000
     18 C12        4.3821   -1.4153    4.0352 C.ar      1 RES1    0.0000
     19 C13        5.2699   -0.3811    4.2933 C.ar      1 RES1    0.0000
     20 C14        5.4850   -0.0312    5.6120 C.ar      1 RES1    0.0000
     21 C15        4.8562   -0.6488    6.6725 C.ar      1 RES1    0.0000
     22 C16        3.9693   -1.6745    6.3957 C.ar      1 RES1    0.0000
     23 C17        3.7462   -2.0655    5.0957 C.ar      1 RES1    0.0000
     24 C18        1.9653    0.3726    3.2282 C.ar      1 RES1    0.0000
     25 C19        2.1367    1.4932    4.0119 C.ar      1 RES1    0.0000
     26 C20        1.3314    1.7581    5.1408 C.ar      1 RES1    0.0000
     27 C21        0.3328    0.8982    5.4642 C.ar      1 RES1    0.0000
     28 C22        0.0753   -0.2479    4.6805 C.ar      1 RES1    0.0000
     29 C23       -0.9954   -1.1277    5.0055 C.ar      1 RES1    0.0000
     30 C24       -1.2550   -2.2313    4.2607 C.ar      1 RES1    0.0000
     31 C25       -0.4452   -2.5175    3.1535 C.ar      1 RES1    0.0000
     32 C26        0.5888   -1.6930    2.7943 C.ar      1 RES1    0.0000
     33 C27        0.8980   -0.5270    3.5423 C.ar      1 RES1    0.0000
     34 H1         3.7798    0.7509    2.3791 H         1 RES1    0.0000
     35 H2         1.8659    0.2692   -1.9593 H         1 RES1    0.0000
     36 H3         1.9261   -1.8559   -3.0478 H         1 RES1    0.0000
     37 H4         2.5802   -3.7826   -1.8038 H         1 RES1    0.0000
     38 H5         3.3375   -3.5701    0.3887 H         1 RES1    0.0000
     39 H6         1.2965    2.3801    1.3528 H         1 RES1    0.0000
     40 H7         1.0611    1.9834   -0.1710 H         1 RES1    0.0000
     41 H8         0.5198    0.9917    0.9641 H         1 RES1    0.0000
     42 H9         3.8038    2.5217    0.8397 H         1 RES1    0.0000
     43 H10        3.5749    2.0400   -0.7619 H         1 RES1    0.0000
     44 H11        4.6137    1.2467    0.2177 H         1 RES1    0.0000
     45 H12        5.7549    0.0850    3.5298 H         1 RES1    0.0000
     46 H13        4.9769   -0.3400    7.5728 H         1 RES1    0.0000
     47 H14        3.4936   -2.1676    7.2307 H         1 RES1    0.0000
     48 H15        3.1114   -2.8334    4.9138 H         1 RES1    0.0000
     49 H16        1.5374    2.5926    5.7068 H         1 RES1    0.0000
     50 H17       -0.2527    1.0625    6.2666 H         1 RES1    0.0000
     51 H18       -1.5144   -0.9209    5.8468 H         1 RES1    0.0000
     52 H19       -2.0082   -2.8759    4.5717 H         1 RES1    0.0000
     53 H20       -0.6001   -3.3292    2.5502 H         1 RES1    0.0000
     54 H21        1.1081   -1.9409    1.9904 H         1 RES1    0.0000
     55 H22        3.3614    2.8901    4.3229 H         1 RES1    0.0000
@<TRIPOS>BOND
     1    1   17 2
     2    2    6 2
     3    3    6 2
     4    4   25 1
     5    5    7 1
     6    6   20 1
     7    7    8 1
     8    8    9 1
     9    9   10 ar
    10   10   11 ar
    11   11   12 ar
    12   12   13 ar
    13   13   14 ar
    14   14    5 1
    15   15    8 1
    16   16    8 1
    17   17    5 1
    18   18   17 1
    19   19   18 ar
    20   20   19 ar
    21   21   20 ar
    22   22   21 ar
    23   23   18 ar
    24   24    7 1
    25   25   24 ar
    26   26   25 ar
    27   27   26 ar
    28   28   27 ar
    29   29   28 ar
    30   30   29 ar
    31   31   30 ar
    32   32   31 ar
    33   33   24 ar
    34   34    7 1
    35   35   10 1
    36   36   11 1
    37   37   12 1
    38   38   13 1
    39   39   15 1
    40   40   15 1
    41   41   15 1
    42   42   16 1
    43   43   16 1
    44   44   16 1
    45   45   19 1
    46   46   21 1
    47   47   22 1
    48   48   23 1
    49   49   26 1
    50   50   27 1
    51   51   29 1
    52   52   30 1
    53   53   31 1
    54   54   32 1
    55   55    4 1
    56    9   14 ar
    57   22   23 ar
    58   28   33 ar
    59   32   33 ar
@<TRIPOS>SUBSTRUCTURE
     1 RES1 1

@<TRIPOS>CRYSIN
  10.2430   14.1670   15.9060  90.0000 102.1460  90.0000  14 1

