# MOL2 file generated by ConQuest
# Please check atom types

@<TRIPOS>MOLECULE
KIVZEV
    71    74     1
SMALL
NO_CHARGES
****
Generated from CSD

@<TRIPOS>ATOM
      1 O1         0.0875   -1.7935    0.3413 O.3       1 RES1    0.0000
      2 O2         2.0789   -0.5401    1.8260 O.3       1 RES1    0.0000
      3 O3         0.1396    1.2235    3.2007 O.3       1 RES1    0.0000
      4 O4         5.0296    2.8417    3.9788 O.3       1 RES1    0.0000
      5 O5         2.8221   -1.5939   -0.1300 O.3       1 RES1    0.0000
      6 O6         0.6270   -2.8457    2.3545 O.3       1 RES1    0.0000
      7 O7         5.3220   -1.2594    4.9106 O.2       1 RES1    0.0000
      8 O8         3.2009   -0.8522    5.6041 O.3       1 RES1    0.0000
      9 N1         1.0036    1.2102    4.3260 N.2       1 RES1    0.0000
     10 N2         4.3600    0.8114    4.6963 N.am      1 RES1    0.0000
     11 C1        -1.1942    0.1759    0.0985 C.3       1 RES1    0.0000
     12 H1        -1.9800   -0.3949   -0.0271 H         1 RES1    0.0000
     13 H2        -0.7858    0.3645   -0.7714 H         1 RES1    0.0000
     14 H3        -1.4652    1.0169    0.5222 H         1 RES1    0.0000
     15 C2        -0.1962   -0.5289    0.9778 C.3       1 RES1    0.0000
     16 H4        -0.6092   -0.6971    1.8735 H         1 RES1    0.0000
     17 C3         1.0858    0.2539    1.1604 C.3       1 RES1    0.0000
     18 H5         1.4334    0.5148    0.2594 H         1 RES1    0.0000
     19 C4         0.9279    1.5111    2.0052 C.3       1 RES1    0.0000
     20 H6         0.4700    2.2176    1.4666 H         1 RES1    0.0000
     21 C5         2.2417    2.0571    2.5429 C.3       1 RES1    0.0000
     22 H7         3.0210    1.6468    2.0905 H         1 RES1    0.0000
     23 H8         2.2903    3.0426    2.4568 H         1 RES1    0.0000
     24 C6         2.1482    1.6304    3.9778 C.2       1 RES1    0.0000
     25 C7         3.2471    1.7348    4.9918 C.3       1 RES1    0.0000
     26 H9         2.8911    1.5733    5.9121 H         1 RES1    0.0000
     27 C8         3.9918    3.0679    4.9288 C.3       1 RES1    0.0000
     28 H10        3.3910    3.7957    4.6304 H         1 RES1    0.0000
     29 H11        4.3684    3.3049    5.8138 H         1 RES1    0.0000
     30 C9         3.9890   -0.7929   -0.2869 C.3       1 RES1    0.0000
     31 H12        4.1656   -0.6555   -1.2411 H         1 RES1    0.0000
     32 H13        4.7543   -1.2455    0.1255 H         1 RES1    0.0000
     33 H14        3.8507    0.0751    0.1475 H         1 RES1    0.0000
     34 C10        2.3547   -1.7813    1.1990 C.3       1 RES1    0.0000
     35 C11        3.3611   -2.4602    2.0970 C.3       1 RES1    0.0000
     36 H15        4.1432   -1.8803    2.2092 H         1 RES1    0.0000
     37 H16        3.6396   -3.3081    1.6938 H         1 RES1    0.0000
     38 H17        2.9546   -2.6317    2.9722 H         1 RES1    0.0000
     39 C12       -0.6111   -3.5527    2.4907 C.3       1 RES1    0.0000
     40 H18       -0.8812   -3.5607    3.4317 H         1 RES1    0.0000
     41 H19       -0.4980   -4.4736    2.1753 H         1 RES1    0.0000
     42 H20       -1.3016   -3.1066    1.9566 H         1 RES1    0.0000
     43 C13        1.0428   -2.5841    1.0322 C.3       1 RES1    0.0000
     44 C14        1.2250   -3.8530    0.2211 C.3       1 RES1    0.0000
     45 H21        0.3551   -4.2866    0.0916 H         1 RES1    0.0000
     46 H22        1.8249   -4.4624    0.6985 H         1 RES1    0.0000
     47 H23        1.6119   -3.6310   -0.6511 H         1 RES1    0.0000
     48 C15        6.0905    1.0137    2.9067 C.3       1 RES1    0.0000
     49 H24        5.3626    0.9865    2.2516 H         1 RES1    0.0000
     50 H25        6.4466    0.1103    3.0366 H         1 RES1    0.0000
     51 H26        6.8035    1.6005    2.5788 H         1 RES1    0.0000
     52 C16        5.5645    1.5440    4.2250 C.3       1 RES1    0.0000
     53 C17        6.6503    1.5893    5.2896 C.3       1 RES1    0.0000
     54 H27        6.2756    1.9410    6.1241 H         1 RES1    0.0000
     55 H28        7.3800    2.1697    4.9881 H         1 RES1    0.0000
     56 H29        6.9941    0.6843    5.4425 H         1 RES1    0.0000
     57 C18        4.3778   -0.4961    5.0542 C.2       1 RES1    0.0000
     58 C19        3.0602   -2.2432    5.9744 C.3       1 RES1    0.0000
     59 H30        3.6872   -2.4719    6.7056 H         1 RES1    0.0000
     60 H31        3.2499   -2.8300    5.2000 H         1 RES1    0.0000
     61 C20        1.6399   -2.4127    6.4274 C.ar      1 RES1    0.0000
     62 C21        1.3643   -2.9318    7.6793 C.ar      1 RES1    0.0000
     63 H32        2.0791   -3.2121    8.2383 H         1 RES1    0.0000
     64 C22        0.0533   -3.0481    8.1288 C.ar      1 RES1    0.0000
     65 H33       -0.1289   -3.4056    8.9894 H         1 RES1    0.0000
     66 C23       -0.9755   -2.6405    7.3143 C.ar      1 RES1    0.0000
     67 H34       -1.8726   -2.7133    7.6178 H         1 RES1    0.0000
     68 C24       -0.7176   -2.1239    6.0563 C.ar      1 RES1    0.0000
     69 H35       -1.4334   -1.8435    5.4984 H         1 RES1    0.0000
     70 C25        0.5812   -2.0181    5.6178 C.ar      1 RES1    0.0000
     71 H36        0.7569   -1.6708    4.7507 H         1 RES1    0.0000
@<TRIPOS>BOND
     1    1   15 1
     2    2   17 1
     3    3    9 1
     4    4   27 1
     5    5   30 1
     6    6   39 1
     7    7   57 2
     8    8   57 1
     9    9   24 2
    10   10   25 1
    11   11   12 1
    12   13   11 1
    13   14   11 1
    14   15   11 1
    15   16   15 1
    16   17   15 1
    17   18   17 1
    18   19    3 1
    19   20   19 1
    20   21   19 1
    21   22   21 1
    22   23   21 1
    23   24   21 1
    24   25   24 1
    25   26   25 1
    26   27   25 1
    27   28   27 1
    28   29   27 1
    29   30   31 1
    30   32   30 1
    31   33   30 1
    32   34    2 1
    33   35   34 1
    34   36   35 1
    35   37   35 1
    36   38   35 1
    37   39   40 1
    38   41   39 1
    39   42   39 1
    40   43    1 1
    41   44   43 1
    42   45   44 1
    43   46   44 1
    44   47   44 1
    45   48   49 1
    46   50   48 1
    47   51   48 1
    48   52    4 1
    49   53   52 1
    50   54   53 1
    51   55   53 1
    52   56   53 1
    53   57   10 1
    54   58    8 1
    55   59   58 1
    56   60   58 1
    57   61   58 1
    58   62   61 ar
    59   63   62 1
    60   64   62 ar
    61   65   64 1
    62   66   64 ar
    63   67   66 1
    64   68   66 ar
    65   69   68 1
    66   70   61 ar
    67   71   70 1
    68    5   34 1
    69    6   43 1
    70   10   52 1
    71   17   19 1
    72   34   43 1
    73   48   52 1
    74   68   70 ar
@<TRIPOS>SUBSTRUCTURE
     1 RES1 1

@<TRIPOS>CRYSIN
   9.3442   15.9887   16.9548  90.0000  90.0000  90.0000  19 1

