# MOL2 file generated by ConQuest
# Please check atom types

@<TRIPOS>MOLECULE
KIVZAQ
    55    59     1
SMALL
NO_CHARGES
****
Generated from CSD

@<TRIPOS>ATOM
      1 O1         5.0023   -0.1133    1.5671 O.2       1 RES1    0.0000
      2 O2         5.5761    4.8771    4.7259 O.2       1 RES1    0.0000
      3 O3         5.7611    6.4840    3.3393 O.2       1 RES1    0.0000
      4 O4         1.4668    0.3686    0.7818 O.3       1 RES1    0.0000
      5 N1         3.2567    0.5332    2.8576 N.am      1 RES1    0.0000
      6 N2         5.5621    5.3219    3.6042 N.pl3     1 RES1    0.0000
      7 C1         2.2185    1.5602    3.2303 C.3       1 RES1    0.0000
      8 C2         1.1645    0.7764    4.0824 C.3       1 RES1    0.0000
      9 C3         1.6273   -0.6536    3.9464 C.ar      1 RES1    0.0000
     10 C4         1.0164   -1.7862    4.4645 C.ar      1 RES1    0.0000
     11 C5         1.6375   -3.0147    4.2735 C.ar      1 RES1    0.0000
     12 C6         2.8226   -3.1007    3.5960 C.ar      1 RES1    0.0000
     13 C7         3.4526   -1.9853    3.0756 C.ar      1 RES1    0.0000
     14 C8         2.8179   -0.7592    3.2631 C.ar      1 RES1    0.0000
     15 C9        -0.2627    0.9754    3.6030 C.3       1 RES1    0.0000
     16 C10        1.2811    1.2211    5.5522 C.3       1 RES1    0.0000
     17 C11        4.3046    0.7789    2.0582 C.2       1 RES1    0.0000
     18 C12        4.6489    2.2211    1.7792 C.ar      1 RES1    0.0000
     19 C13        4.9280    3.1007    2.8165 C.ar      1 RES1    0.0000
     20 C14        5.2819    4.3882    2.4884 C.ar      1 RES1    0.0000
     21 C15        5.3778    4.8378    1.1979 C.ar      1 RES1    0.0000
     22 C16        5.1215    3.9435    0.1864 C.ar      1 RES1    0.0000
     23 C17        4.7761    2.6388    0.4618 C.ar      1 RES1    0.0000
     24 C18        1.6973    2.3513    2.0453 C.ar      1 RES1    0.0000
     25 C19        1.3854    1.7322    0.8627 C.ar      1 RES1    0.0000
     26 C20        0.9408    2.4668   -0.2637 C.ar      1 RES1    0.0000
     27 C21        0.8262    3.8083   -0.1864 C.ar      1 RES1    0.0000
     28 C22        1.1112    4.5037    0.9986 C.ar      1 RES1    0.0000
     29 C23        0.9649    5.9189    1.1053 C.ar      1 RES1    0.0000
     30 C24        1.2272    6.5774    2.2528 C.ar      1 RES1    0.0000
     31 C25        1.6432    5.8796    3.3815 C.ar      1 RES1    0.0000
     32 C26        1.7851    4.5111    3.3369 C.ar      1 RES1    0.0000
     33 C27        1.5369    3.7690    2.1520 C.ar      1 RES1    0.0000
     34 H1         2.6860    2.1622    3.7976 H         1 RES1    0.0000
     35 H2         0.0733   -1.7199    4.9697 H         1 RES1    0.0000
     36 H3         1.1368   -3.7838    4.6532 H         1 RES1    0.0000
     37 H4         3.3078   -3.9312    3.5046 H         1 RES1    0.0000
     38 H5         4.2813   -2.0639    2.6255 H         1 RES1    0.0000
     39 H6        -0.5222    1.8673    3.6335 H         1 RES1    0.0000
     40 H7        -0.9235    0.4914    4.1844 H         1 RES1    0.0000
     41 H8        -0.3290    0.5651    2.6841 H         1 RES1    0.0000
     42 H9         0.9690    2.1376    5.6964 H         1 RES1    0.0000
     43 H10        0.6563    0.6388    6.1769 H         1 RES1    0.0000
     44 H11        2.2023    1.1302    5.8253 H         1 RES1    0.0000
     45 H12        4.8198    2.8256    3.7624 H         1 RES1    0.0000
     46 H13        5.7269    5.7248    1.0314 H         1 RES1    0.0000
     47 H14        5.2409    4.1769   -0.6798 H         1 RES1    0.0000
     48 H15        4.6158    1.9902   -0.2579 H         1 RES1    0.0000
     49 H16        0.8154    1.9902   -1.1369 H         1 RES1    0.0000
     50 H17        0.6037    4.2998   -0.9728 H         1 RES1    0.0000
     51 H18        0.7068    6.2899    0.3047 H         1 RES1    0.0000
     52 H19        1.0650    7.5430    2.3559 H         1 RES1    0.0000
     53 H20        1.7567    6.2653    4.2664 H         1 RES1    0.0000
     54 H21        2.0416    4.1032    4.1375 H         1 RES1    0.0000
     55 H22        1.9157    0.1720    0.0117 H         1 RES1    0.0000
@<TRIPOS>BOND
     1    1   17 2
     2    2    6 2
     3    3    6 2
     4    4   25 1
     5    5    7 1
     6    6   20 1
     7    7    8 1
     8    8    9 1
     9    9   10 ar
    10   10   11 ar
    11   11   12 ar
    12   12   13 ar
    13   13   14 ar
    14   14    5 1
    15   15    8 1
    16   16    8 1
    17   17    5 1
    18   18   17 1
    19   19   18 ar
    20   20   19 ar
    21   21   20 ar
    22   22   21 ar
    23   23   18 ar
    24   24    7 1
    25   25   24 ar
    26   26   25 ar
    27   27   26 ar
    28   28   27 ar
    29   29   28 ar
    30   30   29 ar
    31   31   30 ar
    32   32   31 ar
    33   33   24 ar
    34   34    7 1
    35   35   10 1
    36   36   11 1
    37   37   12 1
    38   38   13 1
    39   39   15 1
    40   40   15 1
    41   41   15 1
    42   42   16 1
    43   43   16 1
    44   44   16 1
    45   45   19 1
    46   46   21 1
    47   47   22 1
    48   48   23 1
    49   49   26 1
    50   50   27 1
    51   51   29 1
    52   52   30 1
    53   53   31 1
    54   54   32 1
    55   55    4 1
    56    9   14 ar
    57   22   23 ar
    58   28   33 ar
    59   32   33 ar
@<TRIPOS>SUBSTRUCTURE
     1 RES1 1

@<TRIPOS>CRYSIN
   7.8260   24.5700   11.8450  90.0000  98.3000  90.0000  14 1

