# MOL2 file generated by ConQuest
# Please check atom types

@<TRIPOS>MOLECULE
KIWXOE
    61    62     1
SMALL
NO_CHARGES
****
Generated from CSD

@<TRIPOS>ATOM
      1 O1         5.6042   -1.2004    8.2431 O.2       1 RES1    0.0000
      2 O2         5.3090   -0.0501    6.4341 O.2       1 RES1    0.0000
      3 O3         1.2490    2.0903    5.3819 O.2       1 RES1    0.0000
      4 O4        -0.2483    2.3820    6.9313 O.2       1 RES1    0.0000
      5 N1         3.1450   -1.6153   11.3015 N.2       1 RES1    0.0000
      6 N2         3.7513   -1.2651   10.1016 N.pl3     1 RES1    0.0000
      7 H1         4.5601   -1.5132    9.8940 H         1 RES1    0.0000
      8 N3         4.9025   -0.4849    7.5093 N.pl3     1 RES1    0.0000
      9 N4         0.7949    1.8781    6.5089 N.pl3     1 RES1    0.0000
     10 C1         3.8908   -2.1929   12.1780 C.2       1 RES1    0.0000
     11 C2         3.1678   -2.6934   13.4035 C.3       1 RES1    0.0000
     12 H2         3.2915   -3.6747   13.4591 H         1 RES1    0.0000
     13 H3         2.2000   -2.5227   13.2858 H         1 RES1    0.0000
     14 C3         3.6088   -2.0757   14.7358 C.3       1 RES1    0.0000
     15 H4         3.2633   -2.6360   15.4749 H         1 RES1    0.0000
     16 H5         4.5971   -2.0930   14.7818 H         1 RES1    0.0000
     17 C4         3.1341   -0.6408   14.9470 C.3       1 RES1    0.0000
     18 H6         2.1442   -0.6191   14.9397 H         1 RES1    0.0000
     19 H7         3.4581   -0.0761   14.2002 H         1 RES1    0.0000
     20 C5         3.6409   -0.0670   16.2703 C.3       1 RES1    0.0000
     21 H8         4.6290   -0.1313   16.2830 H         1 RES1    0.0000
     22 H9         3.2974   -0.6304   17.0087 H         1 RES1    0.0000
     23 C6         3.2441    1.3904   16.5432 C.3       1 RES1    0.0000
     24 H10        2.2724    1.4902   16.3791 H         1 RES1    0.0000
     25 H11        3.4088    1.5902   17.4994 H         1 RES1    0.0000
     26 C7         3.9895    2.4161   15.6942 C.3       1 RES1    0.0000
     27 H12        3.5385    3.2937   15.7786 H         1 RES1    0.0000
     28 H13        3.9419    2.1428   14.7441 H         1 RES1    0.0000
     29 C8         5.4562    2.5700   16.0951 C.3       1 RES1    0.0000
     30 H14        5.8764    1.6733   16.1131 H         1 RES1    0.0000
     31 H15        5.4983    2.9391   17.0121 H         1 RES1    0.0000
     32 C9         6.2685    3.4741   15.1642 C.3       1 RES1    0.0000
     33 H16        7.1242    3.7077   15.6036 H         1 RES1    0.0000
     34 H17        5.7678    4.3145   15.0117 H         1 RES1    0.0000
     35 C10        6.5628    2.8152   13.8151 C.3       1 RES1    0.0000
     36 H18        6.8618    3.5098   13.1760 H         1 RES1    0.0000
     37 H19        5.7279    2.4182   13.4608 H         1 RES1    0.0000
     38 C11        7.6378    1.7225   13.9029 C.3       1 RES1    0.0000
     39 H20        8.5307    2.1478   13.8674 H         1 RES1    0.0000
     40 H21        7.5579    1.2640   14.7767 H         1 RES1    0.0000
     41 C12        7.5411    0.6769   12.7845 C.3       1 RES1    0.0000
     42 H22        7.3597    1.1400   11.9287 H         1 RES1    0.0000
     43 H23        8.4139    0.2184   12.6990 H         1 RES1    0.0000
     44 C13        6.4511   -0.3718   13.0200 C.3       1 RES1    0.0000
     45 H24        6.6439   -0.8604   13.8588 H         1 RES1    0.0000
     46 H25        5.5776    0.0828   13.1245 H         1 RES1    0.0000
     47 C14        6.3672   -1.3626   11.8677 C.3       1 RES1    0.0000
     48 H26        7.2667   -1.7527   11.7297 H         1 RES1    0.0000
     49 H27        6.1320   -0.8628   11.0469 H         1 RES1    0.0000
     50 C15        5.3639   -2.5178   12.0301 C.3       1 RES1    0.0000
     51 H28        5.4621   -3.1122   11.2442 H         1 RES1    0.0000
     52 H29        5.6364   -3.0411   12.8260 H         1 RES1    0.0000
     53 C16        3.0416   -0.5479    9.1952 C.ar      1 RES1    0.0000
     54 C17        3.5575   -0.1433    7.9344 C.ar      1 RES1    0.0000
     55 C18        2.8171    0.6231    7.0495 C.ar      1 RES1    0.0000
     56 H30        3.1797    0.8768    6.2088 H         1 RES1    0.0000
     57 C19        1.5471    1.0098    7.4084 C.ar      1 RES1    0.0000
     58 C20        0.9862    0.6310    8.6320 C.ar      1 RES1    0.0000
     59 H31        0.1053    0.9043    8.8612 H         1 RES1    0.0000
     60 C21        1.7190   -0.1375    9.4955 C.ar      1 RES1    0.0000
     61 H32        1.3298   -0.4029   10.3195 H         1 RES1    0.0000
@<TRIPOS>BOND
     1    1    8 2
     2    2    8 2
     3    3    9 2
     4    4    9 2
     5    5    6 1
     6    6    7 1
     7    8   54 1
     8    9   57 1
     9   10    5 2
    10   11   10 1
    11   12   11 1
    12   13   11 1
    13   14   11 1
    14   15   14 1
    15   16   14 1
    16   17   14 1
    17   18   17 1
    18   19   17 1
    19   20   17 1
    20   21   20 1
    21   22   20 1
    22   23   20 1
    23   24   23 1
    24   25   23 1
    25   26   23 1
    26   27   26 1
    27   28   26 1
    28   29   26 1
    29   30   29 1
    30   31   29 1
    31   32   29 1
    32   33   32 1
    33   34   32 1
    34   35   32 1
    35   36   35 1
    36   37   35 1
    37   38   35 1
    38   39   38 1
    39   40   38 1
    40   41   38 1
    41   42   41 1
    42   43   41 1
    43   44   41 1
    44   45   44 1
    45   46   44 1
    46   47   44 1
    47   48   47 1
    48   49   47 1
    49   50   10 1
    50   51   50 1
    51   52   50 1
    52   53    6 1
    53   54   53 ar
    54   55   54 ar
    55   56   55 1
    56   57   55 ar
    57   58   57 ar
    58   59   58 1
    59   60   53 ar
    60   61   60 1
    61   47   50 1
    62   58   60 ar
@<TRIPOS>SUBSTRUCTURE
     1 RES1 1

@<TRIPOS>CRYSIN
   7.2486    8.3234   17.7310 103.4190  94.0440  97.0170   2 1

