# MOL2 file generated by ConQuest
# Please check atom types

@<TRIPOS>MOLECULE
KIXTEQ
    53    57     1
SMALL
NO_CHARGES
****
Generated from CSD

@<TRIPOS>ATOM
      1 C1        -3.2887    1.8099    5.9935 C.2       1 RES1    0.0000
      2 N1        -3.8328    2.5580    6.9913 N.am      1 RES1    0.0000
      3 C2        -2.6639    3.4400    7.1609 C.3       1 RES1    0.0000
      4 H1        -2.2597    3.3971    8.0419 H         1 RES1    0.0000
      5 H2        -2.8182    4.3584    6.8890 H         1 RES1    0.0000
      6 C3        -1.9541    2.5863    6.1058 C.3       1 RES1    0.0000
      7 O1        -1.5419    3.3328    4.9477 O.3       1 RES1    0.0000
      8 N2        -0.2740    2.8116    4.4710 N.3       1 RES1    0.0000
      9 C4         0.3876    2.3967    5.7216 C.3       1 RES1    0.0000
     10 H3         1.0927    1.7391    5.5451 H         1 RES1    0.0000
     11 C5        -0.7306    1.7868    6.5497 C.3       1 RES1    0.0000
     12 H4        -0.5648    1.8977    7.4992 H         1 RES1    0.0000
     13 H5        -0.8383    0.8429    6.3542 H         1 RES1    0.0000
     14 O2        -3.7174    0.8781    5.3485 O.2       1 RES1    0.0000
     15 C6        -4.9454    2.4127    7.8419 C.ar      1 RES1    0.0000
     16 C7        -5.0835    3.2381    8.9352 C.ar      1 RES1    0.0000
     17 H6        -4.4735    3.9285    9.0633 H         1 RES1    0.0000
     18 C8        -6.0960    3.0655    9.8352 C.ar      1 RES1    0.0000
     19 H7        -6.1699    3.6293   10.5712 H         1 RES1    0.0000
     20 C9        -7.0140    2.0437    9.6442 C.ar      1 RES1    0.0000
     21 C10       -6.9077    1.2404    8.5239 C.ar      1 RES1    0.0000
     22 H8        -7.5362    0.5697    8.3812 H         1 RES1    0.0000
     23 C11       -5.8936    1.4156    7.6205 C.ar      1 RES1    0.0000
     24 H9        -5.8372    0.8741    6.8654 H         1 RES1    0.0000
     25 O3        -8.0468    1.7785   10.5071 O.3       1 RES1    0.0000
     26 C12       -7.9508    2.2129   11.8139 C.3       1 RES1    0.0000
     27 H10       -8.6510    1.8154   12.3353 H         1 RES1    0.0000
     28 H11       -8.0361    3.1681   11.8409 H         1 RES1    0.0000
     29 H12       -7.0985    1.9558   12.1746 H         1 RES1    0.0000
     30 C13        0.9684    3.6714    6.3429 C.2       1 RES1    0.0000
     31 O4         0.3830    4.2119    7.2564 O.2       1 RES1    0.0000
     32 C14        2.2303    4.2477    5.7879 C.ar      1 RES1    0.0000
     33 C15        2.7140    5.4024    6.3632 C.ar      1 RES1    0.0000
     34 H13        2.2571    5.7930    7.0722 H         1 RES1    0.0000
     35 C16        3.8732    5.9822    5.8912 C.ar      1 RES1    0.0000
     36 H14        4.1906    6.7614    6.2867 H         1 RES1    0.0000
     37 C17        4.5535    5.4285    4.8609 C.ar      1 RES1    0.0000
     38 H15        5.3286    5.8339    4.5440 H         1 RES1    0.0000
     39 C18        4.1000    4.2694    4.2844 C.ar      1 RES1    0.0000
     40 H16        4.5742    3.8773    3.5866 H         1 RES1    0.0000
     41 C19        2.9258    3.6839    4.7474 C.ar      1 RES1    0.0000
     42 H17        2.6098    2.9051    4.3496 H         1 RES1    0.0000
     43 C20       -0.4822    1.7955    3.4911 C.ar      1 RES1    0.0000
     44 C21        0.5591    0.9508    3.1293 C.ar      1 RES1    0.0000
     45 H18        1.3758    1.0121    3.5698 H         1 RES1    0.0000
     46 C22        0.3946    0.0196    2.1203 C.ar      1 RES1    0.0000
     47 H19        1.1002   -0.5383    1.8843 H         1 RES1    0.0000
     48 C23       -0.8121   -0.0840    1.4641 C.ar      1 RES1    0.0000
     49 H20       -0.9352   -0.7285    0.8045 H         1 RES1    0.0000
     50 C24       -1.8264    0.7695    1.7911 C.ar      1 RES1    0.0000
     51 H21       -2.6317    0.7193    1.3281 H         1 RES1    0.0000
     52 C25       -1.6820    1.7031    2.7934 C.ar      1 RES1    0.0000
     53 H22       -2.3868    2.2723    3.0035 H         1 RES1    0.0000
@<TRIPOS>BOND
     1    1    2 1
     2    2    3 1
     3    3    4 1
     4    5    3 1
     5    6    1 1
     6    7    6 1
     7    8    7 1
     8    9    8 1
     9   10    9 1
    10   11    6 1
    11   12   11 1
    12   13   11 1
    13   14    1 2
    14   15    2 1
    15   16   15 ar
    16   17   16 1
    17   18   16 ar
    18   19   18 1
    19   20   18 ar
    20   21   20 ar
    21   22   21 1
    22   23   15 ar
    23   24   23 1
    24   25   20 1
    25   26   25 1
    26   27   26 1
    27   28   26 1
    28   29   26 1
    29   30    9 1
    30   31   30 2
    31   32   30 1
    32   33   32 ar
    33   34   33 1
    34   35   33 ar
    35   36   35 1
    36   37   35 ar
    37   38   37 1
    38   39   37 ar
    39   40   39 1
    40   41   32 ar
    41   42   41 1
    42   43    8 1
    43   44   43 ar
    44   45   44 1
    45   46   44 ar
    46   47   46 1
    47   48   46 ar
    48   49   48 1
    49   50   48 ar
    50   51   50 1
    51   52   43 ar
    52   53   52 1
    53    3    6 1
    54    9   11 1
    55   21   23 ar
    56   39   41 ar
    57   50   52 ar
@<TRIPOS>SUBSTRUCTURE
     1 RES1 1

@<TRIPOS>CRYSIN
   9.3680   19.7760   11.4840  90.0000 101.9200  90.0000 231 1

