# MOL2 file generated by ConQuest
# Please check atom types

@<TRIPOS>MOLECULE
KIYSIW
    46    49     1
SMALL
NO_CHARGES
****
Generated from CSD

@<TRIPOS>ATOM
      1 C1        -0.8719   11.0842    4.6343 C.ar      1 RES1    0.0000
      2 C2        -1.6420    8.4919    3.9555 C.ar      1 RES1    0.0000
      3 C3         0.0424   10.0472    4.6672 C.ar      1 RES1    0.0000
      4 H1         0.9225   10.2162    4.9151 H         1 RES1    0.0000
      5 C4        -2.1426    7.1097    3.6684 C.2       1 RES1    0.0000
      6 C5        -1.1857    5.9877    3.4069 C.ar      1 RES1    0.0000
      7 C6        -0.3412    8.7574    4.3348 C.ar      1 RES1    0.0000
      8 H2         0.2816    8.0669    4.3672 H         1 RES1    0.0000
      9 C7        -2.5496    9.5382    3.9103 C.ar      1 RES1    0.0000
     10 H3        -3.4256    9.3726    3.6461 H         1 RES1    0.0000
     11 C8        -0.1683    6.0406    2.4502 C.ar      1 RES1    0.0000
     12 C9        -0.5068   12.4751    5.0132 C.2       1 RES1    0.0000
     13 C10       -2.1760   10.8153    4.2484 C.ar      1 RES1    0.0000
     14 H4        -2.8006   11.5035    4.2184 H         1 RES1    0.0000
     15 C11        0.7193    4.9777    2.3441 C.ar      1 RES1    0.0000
     16 H5         1.4024    5.0085    1.7144 H         1 RES1    0.0000
     17 C12        0.6875    8.8696    0.3319 C.2       1 RES1    0.0000
     18 C13       -1.3137    4.8468    4.2025 C.ar      1 RES1    0.0000
     19 H6        -2.0075    4.7928    4.8187 H         1 RES1    0.0000
     20 C14       -0.0460    7.1853    1.5353 C.2       1 RES1    0.0000
     21 C15        2.6156   10.3371    0.0037 C.ar      1 RES1    0.0000
     22 H7         3.0649    9.8468    0.6540 H         1 RES1    0.0000
     23 C16        1.1207    7.8374    1.0714 C.2       1 RES1    0.0000
     24 H8         2.0030    7.6006    1.2446 H         1 RES1    0.0000
     25 C17        1.3271    9.9826   -0.3551 C.ar      1 RES1    0.0000
     26 C18        0.6842   10.7154   -1.3374 C.ar      1 RES1    0.0000
     27 H9        -0.1728   10.4772   -1.6095 H         1 RES1    0.0000
     28 C19       -0.4279    3.8058    4.0841 C.ar      1 RES1    0.0000
     29 H10       -0.5180    3.0527    4.6235 H         1 RES1    0.0000
     30 C20        1.2695   13.9318    5.6326 C.3       1 RES1    0.0000
     31 H11        0.9935   14.5758    4.9761 H         1 RES1    0.0000
     32 H12        2.2275   13.9283    5.6949 H         1 RES1    0.0000
     33 H13        0.8936   14.1627    6.4844 H         1 RES1    0.0000
     34 C21        3.2356   11.4057   -0.5918 C.ar      1 RES1    0.0000
     35 H14        4.1072   11.6274   -0.3539 H         1 RES1    0.0000
     36 C22        2.5817   12.1462   -1.5314 C.ar      1 RES1    0.0000
     37 H15        2.9981   12.8855   -1.9109 H         1 RES1    0.0000
     38 C23        0.5969    3.8785    3.1629 C.ar      1 RES1    0.0000
     39 H16        1.2088    3.1814    3.0957 H         1 RES1    0.0000
     40 C24        1.3163   11.8043   -1.9158 C.ar      1 RES1    0.0000
     41 H17        0.8784   12.3028   -2.5674 H         1 RES1    0.0000
     42 N1        -1.1321    7.7628    1.0721 N.2       1 RES1    0.0000
     43 O1         0.8060   12.6121    5.2406 O.3       1 RES1    0.0000
     44 O2        -3.3412    6.8800    3.7467 O.2       1 RES1    0.0000
     45 O3        -1.2894   13.3812    5.1060 O.2       1 RES1    0.0000
     46 O4        -0.6733    8.8532    0.3034 O.3       1 RES1    0.0000
@<TRIPOS>BOND
     1    1    3 ar
     2    2    5 1
     3    3    4 1
     4    5    6 1
     5    6   11 ar
     6    7    2 ar
     7    8    7 1
     8    9    2 ar
     9   10    9 1
    10   11   15 ar
    11   12    1 1
    12   13    1 ar
    13   14   13 1
    14   15   16 1
    15   17   23 2
    16   18    6 ar
    17   19   18 1
    18   20   11 1
    19   21   22 1
    20   23   20 1
    21   24   23 1
    22   25   17 1
    23   26   25 ar
    24   27   26 1
    25   28   18 ar
    26   29   28 1
    27   30   31 1
    28   32   30 1
    29   33   30 1
    30   34   21 ar
    31   35   34 1
    32   36   34 ar
    33   37   36 1
    34   38   15 ar
    35   39   38 1
    36   40   26 ar
    37   41   40 1
    38   42   20 2
    39   43   12 1
    40   44    5 2
    41   45   12 2
    42   46   17 1
    43    3    7 ar
    44    9   13 ar
    45   21   25 ar
    46   28   38 ar
    47   30   43 1
    48   36   40 ar
    49   42   46 1
@<TRIPOS>SUBSTRUCTURE
     1 RES1 1

@<TRIPOS>CRYSIN
   6.2208   12.7931   13.3551 113.4910  91.5510  97.4330   2 1

