# MOL2 file generated by ConQuest
# Please check atom types

@<TRIPOS>MOLECULE
KIZVIZ
    43    46     1
SMALL
NO_CHARGES
****
Generated from CSD

@<TRIPOS>ATOM
      1 C1         6.5810    3.9950    0.8953 C.2       1 RES1    0.0000
      2 C2         7.7879    4.5128    0.1232 C.3       1 RES1    0.0000
      3 C3         7.9127    5.6351    1.1581 C.3       1 RES1    0.0000
      4 C4         9.1826    5.5354    1.9993 C.3       1 RES1    0.0000
      5 C5        10.3694    6.2563    1.4397 C.3       1 RES1    0.0000
      6 H1        10.9025    5.6659    0.8839 H         1 RES1    0.0000
      7 H2        10.0929    7.0210    0.9116 H         1 RES1    0.0000
      8 C6        10.2253    6.7747    3.6565 C.3       1 RES1    0.0000
      9 C7         9.9555    8.1729    3.9809 C.3       1 RES1    0.0000
     10 H3        10.7752    8.6088    4.2248 H         1 RES1    0.0000
     11 H4         9.3396    8.2178    4.7165 H         1 RES1    0.0000
     12 H5         9.5746    8.6106    3.2177 H         1 RES1    0.0000
     13 C8        10.8383    6.0236    4.7731 C.3       1 RES1    0.0000
     14 H6        10.8330    5.0860    4.5681 H         1 RES1    0.0000
     15 H7        10.3365    6.1788    5.5765 H         1 RES1    0.0000
     16 H8        11.7422    6.3191    4.8988 H         1 RES1    0.0000
     17 C9         8.1080    4.3533   -1.2851 C.3       1 RES1    0.0000
     18 C10        5.8432    5.4689    2.8090 C.ar      1 RES1    0.0000
     19 C11        6.0062    6.7015    3.4088 C.ar      1 RES1    0.0000
     20 H9         6.6864    7.2660    3.1196 H         1 RES1    0.0000
     21 C12        5.1683    7.1121    4.4411 C.ar      1 RES1    0.0000
     22 H10        5.3015    7.9365    4.8510 H         1 RES1    0.0000
     23 C13        4.1400    6.2914    4.8510 C.ar      1 RES1    0.0000
     24 C14        3.9684    5.0884    4.2261 C.ar      1 RES1    0.0000
     25 H11        3.2610    4.5448    4.4851 H         1 RES1    0.0000
     26 C15        4.8049    4.6556    3.2265 C.ar      1 RES1    0.0000
     27 H12        4.6736    3.8226    2.8342 H         1 RES1    0.0000
     28 C16        3.4386    7.7807    6.5787 C.3       1 RES1    0.0000
     29 H13        4.3367    7.8361    6.9132 H         1 RES1    0.0000
     30 H14        2.8228    7.8029    7.3143 H         1 RES1    0.0000
     31 H15        3.2676    8.5238    5.9965 H         1 RES1    0.0000
     32 N1         6.7125    5.0189    1.7969 N.am      1 RES1    0.0000
     33 N2         8.8183    5.4554   -1.9842 N.pl3     1 RES1    0.0000
     34 O1         5.8189    3.0709    0.7871 O.2       1 RES1    0.0000
     35 O2         8.8609    3.6903   -0.3110 O.3       1 RES1    0.0000
     36 O3         8.6230    5.5354   -3.1816 O.2       1 RES1    0.0000
     37 O4         9.5596    6.1548   -1.3567 O.2       1 RES1    0.0000
     38 O5         8.9896    6.1578    3.2553 O.3       1 RES1    0.0000
     39 O6        11.0817    6.6590    2.5570 O.3       1 RES1    0.0000
     40 O7         3.2769    6.5802    5.8676 O.3       1 RES1    0.0000
     41 H16        7.7740    6.5876    0.8425 H         1 RES1    0.0000
     42 H17        7.5515    3.7986   -1.8484 H         1 RES1    0.0000
     43 H18        9.4595    4.5805    2.1099 H         1 RES1    0.0000
@<TRIPOS>BOND
     1    1    2 1
     2    2    3 1
     3    3    4 1
     4    4    5 1
     5    5    6 1
     6    7    5 1
     7    8    9 1
     8    9   10 1
     9   11    9 1
    10   12    9 1
    11   13    8 1
    12   14   13 1
    13   15   13 1
    14   16   13 1
    15   17    2 1
    16   18   19 ar
    17   19   20 1
    18   21   19 ar
    19   22   21 1
    20   23   21 ar
    21   24   23 ar
    22   25   24 1
    23   26   18 ar
    24   27   26 1
    25   28   29 1
    26   30   28 1
    27   31   28 1
    28   32    1 1
    29   33   17 1
    30   34    1 2
    31   35    2 1
    32   36   33 2
    33   37   33 2
    34   38    4 1
    35   39    5 1
    36   40   23 1
    37   41    3 1
    38   42   17 1
    39   43    4 1
    40    3   32 1
    41    8   38 1
    42    8   39 1
    43   17   35 1
    44   18   32 1
    45   24   26 ar
    46   28   40 1
@<TRIPOS>SUBSTRUCTURE
     1 RES1 1

@<TRIPOS>CRYSIN
  11.0409    6.1566   12.5748  90.0000  90.6690  90.0000   4 1

