# MOL2 file generated by ConQuest
# Please check atom types

@<TRIPOS>MOLECULE
KOBXOO
    14    14     1
SMALL
USER_CHARGES
****
Generated from CSD

@<TRIPOS>ATOM
      1 O1        -2.4485    0.6561    4.7233 O.2       1 RES1    0.0000
      2 O2        -0.0730    2.0234    3.8377 O.2       1 RES1    0.0000
      3 O3         0.9264    3.2910    5.2991 O.2       1 RES1   -1.0000
      4 N1        -2.5334    1.0624    6.9935 N.am      1 RES1    0.0000
      5 N2        -1.7693    1.7445    7.9474 N.3       1 RES1    0.0000
      6 N3         0.0229    3.2448    7.9609 N.pl3     1 RES1    1.0000
      7 N4         0.0362    2.4784    4.9929 N.pl3     1 RES1    0.0000
      8 C1        -0.7863    2.4200    7.3326 C.2       1 RES1    0.0000
      9 C2        -0.8594    2.0640    5.9542 C.2       1 RES1    0.0000
     10 C3        -1.9933    1.1987    5.7529 C.2       1 RES1    0.0000
     11 H1        -3.2469    0.3536    7.2582 H         1 RES1    0.0000
     12 H2        -2.1163    1.9091    8.8050 H         1 RES1    0.0000
     13 H3        -0.0428    3.3438    8.8745 H         1 RES1    0.0000
     14 H4         0.6510    3.6617    7.6364 H         1 RES1    0.0000
@<TRIPOS>BOND
     1    1   10 2
     2    2    7 2
     3    3    7 1
     4    4    5 1
     5    5    8 1
     6    6    8 2
     7    7    9 2
     8    8    9 1
     9    9   10 1
    10   10    4 1
    11   11    4 1
    12   12    5 1
    13   13    6 1
    14   14    6 1
@<TRIPOS>SUBSTRUCTURE
     1 RES1 1

@<TRIPOS>CRYSIN
   5.2770    8.1100   12.3350  90.0000  98.5260  90.0000 231 1

