# MOL2 file generated by ConQuest
# Please check atom types

@<TRIPOS>MOLECULE
KODHUG
    23    23     1
SMALL
NO_CHARGES
****
Generated from CSD

@<TRIPOS>ATOM
      1 C1        11.8848    0.1154    0.3569 C.ar      1 RES1    0.0000
      2 C2        11.4146    0.7227    1.5483 C.ar      1 RES1    0.0000
      3 C3        12.2654    0.7165    2.6464 C.ar      1 RES1    0.0000
      4 C4        13.5318    0.2417    2.6432 C.ar      1 RES1    0.0000
      5 C5        13.9712   -0.3539    1.4598 C.ar      1 RES1    0.0000
      6 C6        13.1656   -0.3875    0.3199 C.ar      1 RES1    0.0000
      7 C7        11.0673    0.1013   -0.8714 C.2       1 RES1    0.0000
      8 C8         9.7590    0.2760   -0.9550 C.2       1 RES1    0.0000
      9 C9         9.0971    0.3298   -2.2911 C.2       1 RES1    0.0000
     10 N1        11.7713    1.3939    3.8876 N.pl3     1 RES1    0.0000
     11 N2        15.3277   -0.9254    1.3907 N.pl3     1 RES1    0.0000
     12 O1         7.7905    0.2822   -2.2316 O.3       1 RES1    0.0000
     13 O2         9.7389    0.3586   -3.3345 O.2       1 RES1    0.0000
     14 O3        12.4670    1.3004    4.8956 O.2       1 RES1    0.0000
     15 O4        10.7049    1.9755    3.8297 O.2       1 RES1    0.0000
     16 O5        16.0444   -0.7983    2.3763 O.2       1 RES1    0.0000
     17 O6        15.6741   -1.4758    0.3521 O.2       1 RES1    0.0000
     18 H1        10.5428    1.1226    1.5949 H         1 RES1    0.0000
     19 H2        14.1010    0.3111    3.4133 H         1 RES1    0.0000
     20 H3        13.5072   -0.7640   -0.4936 H         1 RES1    0.0000
     21 H4        11.5348   -0.0483   -1.6978 H         1 RES1    0.0000
     22 H5         9.2357    0.3672   -0.1543 H         1 RES1    0.0000
     23 H6         7.4892    0.4233   -2.8875 H         1 RES1    0.0000
@<TRIPOS>BOND
     1    1    2 ar
     2    2    3 ar
     3    3    4 ar
     4    4    5 ar
     5    5    6 ar
     6    6    1 ar
     7    7    1 1
     8    8    7 2
     9    9    8 1
    10   10    3 1
    11   11    5 1
    12   12    9 1
    13   13    9 2
    14   14   10 2
    15   15   10 2
    16   16   11 2
    17   17   11 2
    18   18    2 1
    19   19    4 1
    20   20    6 1
    21   21    7 1
    22   22    8 1
    23   23   12 1
@<TRIPOS>SUBSTRUCTURE
     1 RES1 1

@<TRIPOS>CRYSIN
  15.7670    7.7960   16.1550  90.0000  95.6100  90.0000  15 1

