# MOL2 file generated by ConQuest
# Please check atom types

@<TRIPOS>MOLECULE
KODJAO10
    23    23     1
SMALL
NO_CHARGES
****
Generated from CSD

@<TRIPOS>ATOM
      1 O1         4.7804    5.6854    0.2717 O.3       1 RES1    0.0000
      2 H1         5.1001    4.9166    0.0154 H         1 RES1    0.0000
      3 O2         2.8967    4.4775    0.5186 O.2       1 RES1    0.0000
      4 O3         0.8462    6.1984    3.9053 O.2       1 RES1    0.0000
      5 O4        -1.0351    7.0286    4.6070 O.2       1 RES1    0.0000
      6 O5        -1.4185   11.8185    4.0220 O.2       1 RES1    0.0000
      7 O6        -1.0593   12.6211    2.0280 O.2       1 RES1    0.0000
      8 C1         0.9016    8.0594    1.7959 C.ar      1 RES1    0.0000
      9 C2         0.0938    8.1790    2.9388 C.ar      1 RES1    0.0000
     10 C3        -0.5612    9.3460    3.2889 C.ar      1 RES1    0.0000
     11 H2        -1.1084    9.3861    4.0543 H         1 RES1    0.0000
     12 C4        -0.3706   10.4461    2.4766 C.ar      1 RES1    0.0000
     13 C5         0.4060   10.4020    1.3262 C.ar      1 RES1    0.0000
     14 H3         0.5184   11.2062    0.8075 H         1 RES1    0.0000
     15 C6         1.0193    9.2067    0.9870 C.ar      1 RES1    0.0000
     16 H4         1.5467    9.1619    0.1668 H         1 RES1    0.0000
     17 C7         1.6066    6.8295    1.3981 C.2       1 RES1    0.0000
     18 H5         1.1289    6.0505    1.4664 H         1 RES1    0.0000
     19 C8         2.8446    6.8240    0.9114 C.2       1 RES1    0.0000
     20 H6         3.3702    7.6243    0.8313 H         1 RES1    0.0000
     21 C9         3.4936    5.5492    0.5435 C.2       1 RES1    0.0000
     22 N1        -0.0466    7.0467    3.8770 N.pl3     1 RES1    0.0000
     23 N2        -0.9964   11.7201    2.8682 N.pl3     1 RES1    0.0000
@<TRIPOS>BOND
     1    1    2 1
     2    3   21 2
     3    4   22 2
     4    5   22 2
     5    6   23 2
     6    7   23 2
     7    8    9 ar
     8    9   10 ar
     9   10   11 1
    10   12   10 ar
    11   13   12 ar
    12   14   13 1
    13   15    8 ar
    14   16   15 1
    15   17    8 1
    16   18   17 1
    17   19   17 2
    18   20   19 1
    19   21    1 1
    20   22    9 1
    21   23   12 1
    22   13   15 ar
    23   19   21 1
@<TRIPOS>SUBSTRUCTURE
     1 RES1 1

@<TRIPOS>CRYSIN
   8.7600    7.8690   14.0400  90.0000  93.1200  90.0000 231 1

