# MOL2 file generated by ConQuest
# Please check atom types

@<TRIPOS>MOLECULE
KODXUX
    30    29     1
SMALL
NO_CHARGES
****
Generated from CSD

@<TRIPOS>ATOM
      1 O1         0.5786    5.7830    2.4043 O.2       1 RES1    0.0000
      2 O2         1.6481    8.5369    0.5757 O.3       1 RES1    0.0000
      3 N1         1.3469    7.7389    1.6851 N.am      1 RES1    0.0000
      4 C1         0.7481    6.5567    1.4715 C.2       1 RES1    0.0000
      5 C2         0.2979    6.2664    0.0640 C.3       1 RES1    0.0000
      6 H1         1.0560    6.3444   -0.5356 H         1 RES1    0.0000
      7 H2        -0.3622    6.9254   -0.2021 H         1 RES1    0.0000
      8 C3         0.8180    9.7065    0.5654 C.3       1 RES1    0.0000
      9 H3         1.0324   10.2442   -0.1999 H         1 RES1    0.0000
     10 H4         0.9707   10.2141    1.3660 H         1 RES1    0.0000
     11 H5        -0.1043    9.4435    0.5245 H         1 RES1    0.0000
     12 C4         2.0040    8.1088    2.9179 C.3       1 RES1    0.0000
     13 H6         1.7409    7.5031    3.6154 H         1 RES1    0.0000
     14 H7         1.7522    9.0030    3.1593 H         1 RES1    0.0000
     15 H8         2.9556    8.0651    2.7993 H         1 RES1    0.0000
     16 O1B       -0.5786    5.3690   -2.4043 O.2       1 RES1    0.0000
     17 O2B       -1.6481    2.6151   -0.5757 O.3       1 RES1    0.0000
     18 N1B       -1.3469    3.4131   -1.6851 N.am      1 RES1    0.0000
     19 C1B       -0.7481    4.5953   -1.4715 C.2       1 RES1    0.0000
     20 C2B       -0.2979    4.8856   -0.0640 C.3       1 RES1    0.0000
     21 H1B       -1.0560    4.8076    0.5356 H         1 RES1    0.0000
     22 H2B        0.3622    4.2266    0.2021 H         1 RES1    0.0000
     23 C3B       -0.8180    1.4455   -0.5654 C.3       1 RES1    0.0000
     24 H3B       -1.0324    0.9078    0.1999 H         1 RES1    0.0000
     25 H4B       -0.9707    0.9379   -1.3660 H         1 RES1    0.0000
     26 H5B        0.1043    1.7085   -0.5245 H         1 RES1    0.0000
     27 C4B       -2.0040    3.0432   -2.9179 C.3       1 RES1    0.0000
     28 H6B       -1.7409    3.6489   -3.6154 H         1 RES1    0.0000
     29 H7B       -1.7522    2.1490   -3.1593 H         1 RES1    0.0000
     30 H8B       -2.9556    3.0869   -2.7993 H         1 RES1    0.0000
@<TRIPOS>BOND
     1    1    4 2
     2    2    3 1
     3    3    4 1
     4    4    5 1
     5    5    6 1
     6    7    5 1
     7    8    2 1
     8    9    8 1
     9   10    8 1
    10   11    8 1
    11   12    3 1
    12   13   12 1
    13   14   12 1
    14   15   12 1
    15   16   19 2
    16   17   18 1
    17   18   19 1
    18   19   20 1
    19   20    5 1
    20   21   20 1
    21   22   20 1
    22   23   17 1
    23   24   23 1
    24   25   23 1
    25   26   23 1
    26   27   18 1
    27   28   27 1
    28   29   27 1
    29   30   27 1
@<TRIPOS>SUBSTRUCTURE
     1 RES1 1

@<TRIPOS>CRYSIN
   4.2645   11.1520   11.1650  90.0000  98.4850  90.0000  14 1

