# MOL2 file generated by ConQuest
# Please check atom types

@<TRIPOS>MOLECULE
KOFDEP
    34    36     1
SMALL
NO_CHARGES
****
Generated from CSD

@<TRIPOS>ATOM
      1 O1         3.2749   -1.0485   -0.3493 O.3       1 RES1    0.0000
      2 H1         3.4484   -0.3488    0.0561 H         1 RES1    0.0000
      3 O2         9.3724    0.9755   -2.0358 O.3       1 RES1    0.0000
      4 N1         4.4987   -1.1383   -1.0627 N.2       1 RES1    0.0000
      5 C1         4.7337   -4.5472   -3.5977 C.3       1 RES1    0.0000
      6 H2         4.9270   -5.3166   -3.0396 H         1 RES1    0.0000
      7 H3         4.7041   -4.8424   -4.5217 H         1 RES1    0.0000
      8 C2         3.4099   -3.9555   -3.2096 C.3       1 RES1    0.0000
      9 H4         2.7588   -4.6712   -3.1389 H         1 RES1    0.0000
     10 H5         3.1157   -3.3611   -3.9176 H         1 RES1    0.0000
     11 C3         3.4257   -3.1841   -1.9051 C.3       1 RES1    0.0000
     12 H6         2.5749   -2.7300   -1.7992 H         1 RES1    0.0000
     13 H7         3.5165   -3.8120   -1.1714 H         1 RES1    0.0000
     14 C4         4.5257   -2.1751   -1.8149 C.2       1 RES1    0.0000
     15 C5         5.7138   -2.4193   -2.6075 C.2       1 RES1    0.0000
     16 C6         6.9554   -1.6958   -2.7395 C.ar      1 RES1    0.0000
     17 C7         7.4758   -0.5291   -2.1754 C.ar      1 RES1    0.0000
     18 H8         6.9680   -0.0233   -1.5835 H         1 RES1    0.0000
     19 C8         8.7491   -0.1408   -2.5104 C.ar      1 RES1    0.0000
     20 C9         9.5094   -0.8921   -3.4213 C.ar      1 RES1    0.0000
     21 H9        10.3706   -0.6118   -3.6350 H         1 RES1    0.0000
     22 C10        9.0153   -2.0200   -3.9985 C.ar      1 RES1    0.0000
     23 H10        9.5240   -2.5058   -4.6080 H         1 RES1    0.0000
     24 C11        7.7293   -2.4277   -3.6551 C.ar      1 RES1    0.0000
     25 C12        7.4674   -4.5194   -5.0315 C.3       1 RES1    0.0000
     26 H11        6.9798   -5.3373   -4.9122 H         1 RES1    0.0000
     27 H12        8.4051   -4.6841   -4.9035 H         1 RES1    0.0000
     28 H13        7.3202   -4.1854   -5.9196 H         1 RES1    0.0000
     29 N2         7.0106   -3.5343   -4.0596 N.pl3     1 RES1    0.0000
     30 C13        5.7997   -3.5207   -3.4290 C.2       1 RES1    0.0000
     31 C14        8.7019    1.7668   -1.0750 C.3       1 RES1    0.0000
     32 H14        7.8862    2.1053   -1.4519 H         1 RES1    0.0000
     33 H15        9.2633    2.5013   -0.8176 H         1 RES1    0.0000
     34 H16        8.4998    1.2319   -0.3042 H         1 RES1    0.0000
@<TRIPOS>BOND
     1    1    2 1
     2    3   19 1
     3    4    1 1
     4    5    6 1
     5    7    5 1
     6    8    5 1
     7    9    8 1
     8   10    8 1
     9   11    8 1
    10   12   11 1
    11   13   11 1
    12   14    4 2
    13   15   14 1
    14   16   15 1
    15   17   16 ar
    16   18   17 1
    17   19   17 ar
    18   20   19 ar
    19   21   20 1
    20   22   20 ar
    21   23   22 1
    22   24   16 ar
    23   25   26 1
    24   27   25 1
    25   28   25 1
    26   29   24 1
    27   30    5 1
    28   31    3 1
    29   32   31 1
    30   33   31 1
    31   34   31 1
    32   11   14 1
    33   15   30 2
    34   22   24 ar
    35   25   29 1
    36   29   30 1
@<TRIPOS>SUBSTRUCTURE
     1 RES1 1

@<TRIPOS>CRYSIN
   8.8330    6.4600   22.2470  90.0000 104.1400  90.0000  14 1

