# MOL2 file generated by ConQuest
# Please check atom types

@<TRIPOS>MOLECULE
KOFDUF
    27    27     1
SMALL
NO_CHARGES
****
Generated from CSD

@<TRIPOS>ATOM
      1 O1         1.8715    5.4482    6.3138 O.2       1 RES1    0.0000
      2 O2         3.2857    7.0547   10.1942 O.3       1 RES1    0.0000
      3 H1         3.6055    7.3740   10.8789 H         1 RES1    0.0000
      4 O3         3.5794    6.1041    0.4188 O.2       1 RES1    0.0000
      5 O4         2.1060    5.0698    1.5689 O.2       1 RES1    0.0000
      6 O5         7.1205    8.5257    4.8600 O.2       1 RES1    0.0000
      7 O6         7.3426    8.1163    2.7785 O.2       1 RES1    0.0000
      8 N1         3.7469    5.8403    7.4964 N.am      1 RES1    0.0000
      9 H2         4.5051    6.2451    7.5107 H         1 RES1    0.0000
     10 N2         3.0987    5.7611    1.4729 N.pl3     1 RES1    0.0000
     11 N3         6.7459    8.0254    3.8255 N.pl3     1 RES1    0.0000
     12 C1         3.7214    6.2797    5.1121 C.ar      1 RES1    0.0000
     13 C2         4.9194    6.9856    5.0696 C.ar      1 RES1    0.0000
     14 H3         5.3324    7.2612    5.8566 H         1 RES1    0.0000
     15 C3         5.4854    7.2721    3.8450 C.ar      1 RES1    0.0000
     16 C4         4.9350    6.8864    2.6448 C.ar      1 RES1    0.0000
     17 H4         5.3428    7.0766    1.8304 H         1 RES1    0.0000
     18 C5         3.7384    6.2005    2.7235 C.ar      1 RES1    0.0000
     19 C6         3.1274    5.9012    3.9177 C.ar      1 RES1    0.0000
     20 H5         2.3164    5.4464    3.9244 H         1 RES1    0.0000
     21 C7         3.0492    5.8403    6.3758 C.2       1 RES1    0.0000
     22 C8         3.2844    5.1835    8.7095 C.3       1 RES1    0.0000
     23 H6         3.5195    4.2428    8.6668 H         1 RES1    0.0000
     24 H7         2.3170    5.2444    8.7522 H         1 RES1    0.0000
     25 C9         3.8615    5.7711    9.9535 C.3       1 RES1    0.0000
     26 H8         3.6817    5.1853   10.7063 H         1 RES1    0.0000
     27 H9         4.8230    5.8566    9.8592 H         1 RES1    0.0000
@<TRIPOS>BOND
     1    1   21 2
     2    2    3 1
     3    4   10 2
     4    5   10 2
     5    6   11 2
     6    7   11 2
     7    8    9 1
     8   10   18 1
     9   11   15 1
    10   12   13 ar
    11   13   14 1
    12   15   13 ar
    13   16   15 ar
    14   17   16 1
    15   18   16 ar
    16   19   12 ar
    17   20   19 1
    18   21    8 1
    19   22    8 1
    20   23   22 1
    21   24   22 1
    22   25    2 1
    23   26   25 1
    24   27   25 1
    25   12   21 1
    26   18   19 ar
    27   22   25 1
@<TRIPOS>SUBSTRUCTURE
     1 RES1 1

@<TRIPOS>CRYSIN
   6.5140    9.0970   18.1770  90.0000  90.0000  90.0000  19 1

