# MOL2 file generated by ConQuest
# Please check atom types

@<TRIPOS>MOLECULE
KOFHAQ
    42    45     1
SMALL
USER_CHARGES
****
Generated from CSD

@<TRIPOS>ATOM
      1 N1        10.3272   11.6325    3.0926 N.2       1 RES1    0.0000
      2 N2        16.6748   10.6471    3.8075 N.pl3     1 RES1    0.0000
      3 N3        11.6702   14.1085    0.7803 N.pl3     1 RES1    1.0000
      4 O1        17.6385   11.2854    3.3659 O.2       1 RES1    0.0000
      5 O2        16.8175    9.6304    4.4915 O.2       1 RES1    0.0000
      6 N4        12.6839   15.9063    0.1558 N.pl3     1 RES1    0.0000
      7 C1        15.3348   11.1107    3.4957 C.ar      1 RES1    0.0000
      8 C2        14.2470   10.3791    3.9443 C.ar      1 RES1    0.0000
      9 H1        14.3750    9.6120    4.4528 H         1 RES1    0.0000
     10 C3        11.3782   12.3219    2.5323 C.2       1 RES1    0.0000
     11 C4         8.4745   13.6191    0.5745 C.ar      1 RES1    0.0000
     12 C5         7.1467   13.1570    0.6206 C.ar      1 RES1    0.0000
     13 H2         6.9252   12.4773    1.2151 H         1 RES1    0.0000
     14 C6        15.1669   12.2672    2.7591 C.ar      1 RES1    0.0000
     15 H3        15.9051   12.7523    2.4675 H         1 RES1    0.0000
     16 C7         9.4725   13.0349    1.4805 C.2       1 RES1    0.0000
     17 C8         9.2209   12.0684    2.4700 C.2       1 RES1    0.0000
     18 H4         8.3672   11.7598    2.6744 H         1 RES1    0.0000
     19 C9        12.7496   11.9653    2.8729 C.ar      1 RES1    0.0000
     20 C10       10.8759   13.2000    1.5690 C.2       1 RES1   -1.0000
     21 C11        6.1627   13.6857   -0.1969 C.ar      1 RES1    0.0000
     22 H5         5.2935   13.3600   -0.1433 H         1 RES1    0.0000
     23 C12       13.8872   12.6956    2.4638 C.ar      1 RES1    0.0000
     24 H6        13.7711   13.4839    1.9840 H         1 RES1    0.0000
     25 C13        8.7593   14.6204   -0.3627 C.ar      1 RES1    0.0000
     26 H7         9.6312   14.9355   -0.4399 H         1 RES1    0.0000
     27 C14       11.9180   15.3813    1.1042 C.2       1 RES1    0.0000
     28 H8        11.6070   15.8229    1.8619 H         1 RES1    0.0000
     29 C15       12.9834   10.7980    3.6340 C.ar      1 RES1    0.0000
     30 H9        12.2575   10.3000    3.9306 H         1 RES1    0.0000
     31 C16       13.1919   17.2804    0.1271 C.3       1 RES1    0.0000
     32 H10       12.8668   17.7583    0.8935 H         1 RES1    0.0000
     33 H11       12.8901   17.7170   -0.6742 H         1 RES1    0.0000
     34 H12       14.1518   17.2674    0.1408 H         1 RES1    0.0000
     35 C17       12.3044   13.8191   -0.4075 C.2       1 RES1    0.0000
     36 H13       12.2997   13.0036   -0.8537 H         1 RES1    0.0000
     37 C18       12.9324   14.9402   -0.8001 C.2       1 RES1    0.0000
     38 H14       13.4407   15.0476   -1.5715 H         1 RES1    0.0000
     39 C19        6.4624   14.6995   -1.0929 C.ar      1 RES1    0.0000
     40 H15        5.7998   15.0700   -1.6301 H         1 RES1    0.0000
     41 C20        7.7756   15.1503   -1.1739 C.ar      1 RES1    0.0000
     42 H16        7.9945   15.8182   -1.7821 H         1 RES1    0.0000
@<TRIPOS>BOND
     1    1   10 2
     2    2    4 2
     3    3   20 1
     4    5    2 2
     5    6   27 1
     6    7    2 1
     7    8    7 ar
     8    9    8 1
     9   10   19 1
    10   11   12 ar
    11   12   13 1
    12   14    7 ar
    13   15   14 1
    14   16   11 1
    15   17    1 1
    16   18   17 1
    17   19   23 ar
    18   20   10 1
    19   21   12 ar
    20   22   21 1
    21   23   14 ar
    22   24   23 1
    23   25   11 ar
    24   26   25 1
    25   27    3 2
    26   28   27 1
    27   29    8 ar
    28   30   29 1
    29   31    6 1
    30   32   31 1
    31   33   31 1
    32   34   31 1
    33   35    3 1
    34   36   35 1
    35   37    6 1
    36   38   37 1
    37   39   21 ar
    38   40   39 1
    39   41   25 ar
    40   42   41 1
    41   16   17 2
    42   16   20 1
    43   19   29 ar
    44   35   37 2
    45   39   41 ar
@<TRIPOS>SUBSTRUCTURE
     1 RES1 1

@<TRIPOS>CRYSIN
  11.4914   11.8011   13.0430  90.0000 107.1620  90.0000  14 1

