# MOL2 file generated by ConQuest
# Please check atom types

@<TRIPOS>MOLECULE
KOFKUM
    30    31     1
SMALL
NO_CHARGES
****
Generated from CSD

@<TRIPOS>ATOM
      1 C1         4.9880    4.7035   11.0623 C.ar      1 RES1    0.0000
      2 C2         5.5435    3.9171   10.0842 C.ar      1 RES1    0.0000
      3 H1         5.3897    4.1040    9.1864 H         1 RES1    0.0000
      4 N1         4.1549    5.8435   10.6648 N.pl3     1 RES1    0.0000
      5 O1         3.8016    6.6325   11.5273 O.2       1 RES1    0.0000
      6 C3         6.3404    2.8369   10.4519 C.ar      1 RES1    0.0000
      7 C4         6.5004    2.5769   11.8115 C.ar      1 RES1    0.0000
      8 H2         7.0028    1.8404   12.0756 H         1 RES1    0.0000
      9 C5         7.5114    3.4246    7.5073 C.ar      1 RES1    0.0000
     10 C6         7.8379    5.7377    6.0396 C.ar      1 RES1    0.0000
     11 N2         8.0464    6.9499    5.2497 N.pl3     1 RES1    0.0000
     12 C7         5.1724    4.4659   12.4065 C.ar      1 RES1    0.0000
     13 H3         4.7918    5.0226   13.0463 H         1 RES1    0.0000
     14 O2         8.6320    7.8887    5.7599 O.2       1 RES1    0.0000
     15 O3         3.8570    5.9635    9.4936 O.2       1 RES1    0.0000
     16 C8         8.0214    4.5829    8.0960 C.ar      1 RES1    0.0000
     17 H4         8.2514    4.5732    8.9976 H         1 RES1    0.0000
     18 C9         7.3492    4.6103    5.4174 C.ar      1 RES1    0.0000
     19 H5         7.1292    4.6248    4.5133 H         1 RES1    0.0000
     20 C10        7.1928    3.4651    6.1559 C.ar      1 RES1    0.0000
     21 H6         6.8657    2.6994    5.7424 H         1 RES1    0.0000
     22 C11        8.1913    5.7394    7.3700 C.ar      1 RES1    0.0000
     23 H7         8.5371    6.5048    7.7696 H         1 RES1    0.0000
     24 C12        5.9335    3.3835   12.7746 C.ar      1 RES1    0.0000
     25 H8         6.0669    3.1949   13.6754 H         1 RES1    0.0000
     26 C13        6.9466    1.9205    9.4754 C.2       1 RES1    0.0000
     27 H9         7.0384    1.0413    9.7645 H         1 RES1    0.0000
     28 C14        7.3830    2.1546    8.2433 C.2       1 RES1    0.0000
     29 H10        7.6503    1.3996    7.7720 H         1 RES1    0.0000
     30 O4         7.6260    6.9706    4.1098 O.2       1 RES1    0.0000
@<TRIPOS>BOND
     1    1    2 ar
     2    2    3 1
     3    4    1 1
     4    5    4 2
     5    6    2 ar
     6    7    6 ar
     7    8    7 1
     8    9   16 ar
     9   10   11 1
    10   11   14 2
    11   12    1 ar
    12   13   12 1
    13   15    4 2
    14   16   17 1
    15   18   10 ar
    16   19   18 1
    17   20    9 ar
    18   21   20 1
    19   22   10 ar
    20   23   22 1
    21   24    7 ar
    22   25   24 1
    23   26    6 1
    24   27   26 1
    25   28    9 1
    26   29   28 1
    27   30   11 2
    28   12   24 ar
    29   16   22 ar
    30   18   20 ar
    31   26   28 2
@<TRIPOS>SUBSTRUCTURE
     1 RES1 1

@<TRIPOS>CRYSIN
   7.2995    8.0561   11.8310  78.2910  85.1020  67.5360   2 1

