# MOL2 file generated by ConQuest
# Please check atom types

@<TRIPOS>MOLECULE
KOGROO
    35    37     1
SMALL
NO_CHARGES
****
Generated from CSD

@<TRIPOS>ATOM
      1 C1        10.7940    2.0839    5.4455 C.2       1 RES1    0.0000
      2 C2         9.4856    1.7380    4.9208 C.2       1 RES1    0.0000
      3 C3         8.5957    2.6528    4.5277 C.2       1 RES1    0.0000
      4 C4         8.8135    4.0852    4.6102 C.2       1 RES1    0.0000
      5 C5        10.4421    5.8424    5.2566 C.ar      1 RES1    0.0000
      6 H1         9.8151    6.4728    4.9824 H         1 RES1    0.0000
      7 C6        11.6388    6.2645    5.7561 C.ar      1 RES1    0.0000
      8 H2        11.8249    7.1720    5.8275 H         1 RES1    0.0000
      9 C7        12.5635    5.3313    6.1507 C.ar      1 RES1    0.0000
     10 H3        13.3797    5.6185    6.4893 H         1 RES1    0.0000
     11 C8        12.3128    3.9788    6.0583 C.ar      1 RES1    0.0000
     12 H4        12.9521    3.3612    6.3326 H         1 RES1    0.0000
     13 C9        11.0768    3.5429    5.5458 C.ar      1 RES1    0.0000
     14 C10       10.1412    4.4972    5.1499 C.ar      1 RES1    0.0000
     15 C11        8.9232    0.4193    4.7473 C.3       1 RES1    0.0000
     16 H5         8.8462   -0.0340    5.6022 H         1 RES1    0.0000
     17 H6         9.4797   -0.1156    4.1597 H         1 RES1    0.0000
     18 C12        7.5678    0.6387    4.1401 C.3       1 RES1    0.0000
     19 H7         7.5790    0.2872    3.2250 H         1 RES1    0.0000
     20 C13        6.4296   -0.0110    4.8830 C.3       1 RES1    0.0000
     21 C14        6.6773   -1.5012    4.9502 C.3       1 RES1    0.0000
     22 H8         7.3651   -1.6820    5.5952 H         1 RES1    0.0000
     23 H9         6.9569   -1.8187    4.0883 H         1 RES1    0.0000
     24 H10        5.8700   -1.9490    5.2090 H         1 RES1    0.0000
     25 C15        5.1044    0.3625    4.2408 C.3       1 RES1    0.0000
     26 H11        4.4146   -0.2175    4.5710 H         1 RES1    0.0000
     27 H12        5.1720    0.2698    3.2880 H         1 RES1    0.0000
     28 H13        4.8878    1.2718    4.4591 H         1 RES1    0.0000
     29 N1         5.6582    0.2991    7.1986 N.pl3     1 RES1    0.0000
     30 O1        11.6014    1.2406    5.7841 O.2       1 RES1    0.0000
     31 O2         7.9699    4.8872    4.2646 O.2       1 RES1    0.0000
     32 O3         7.4314    2.1068    4.0714 O.3       1 RES1    0.0000
     33 O4         6.5395    0.6478    6.2037 O.3       1 RES1    0.0000
     34 O5         4.9107   -0.6194    7.0461 O.2       1 RES1    0.0000
     35 O6         5.7486    1.0112    8.1585 O.2       1 RES1    0.0000
@<TRIPOS>BOND
     1    1    2 1
     2    2    3 2
     3    3    4 1
     4    4   14 1
     5    5    6 1
     6    7    5 ar
     7    8    7 1
     8    9    7 ar
     9   10    9 1
    10   11    9 ar
    11   12   11 1
    12   13    1 1
    13   14    5 ar
    14   15    2 1
    15   16   15 1
    16   17   15 1
    17   18   15 1
    18   19   18 1
    19   20   18 1
    20   21   20 1
    21   22   21 1
    22   23   21 1
    23   24   21 1
    24   25   20 1
    25   26   25 1
    26   27   25 1
    27   28   25 1
    28   29   33 1
    29   30    1 2
    30   31    4 2
    31   32    3 1
    32   33   20 1
    33   34   29 2
    34   35   29 2
    35   11   13 ar
    36   13   14 ar
    37   18   32 1
@<TRIPOS>SUBSTRUCTURE
     1 RES1 1

@<TRIPOS>CRYSIN
  21.6636    9.1761   14.0696  90.0000  96.0390  90.0000  15 1

