# MOL2 file generated by ConQuest
# Please check atom types

@<TRIPOS>MOLECULE
KOGYIO
    37    39     1
SMALL
NO_CHARGES
****
Generated from CSD

@<TRIPOS>ATOM
      1 O1         6.6744    4.4978    1.0754 O.3       1 RES1    0.0000
      2 O2         4.7281    5.1842    3.4244 O.3       1 RES1    0.0000
      3 O3         4.2911    2.6064    4.7058 O.2       1 RES1    0.0000
      4 O4         4.3677   -0.2278    3.6156 O.3       1 RES1    0.0000
      5 O5         6.1070   -1.5708   -1.0258 O.2       1 RES1    0.0000
      6 O6         6.7481    0.3905   -1.8570 O.3       1 RES1    0.0000
      7 N1         5.5989    3.8083    1.6901 N.3       1 RES1    0.0000
      8 C1         6.7941    4.2271    3.7861 C.2       1 RES1    0.0000
      9 C2         7.9199    4.1914    3.1096 C.2       1 RES1    0.0000
     10 C3         7.9488    4.1295    1.6262 C.3       1 RES1    0.0000
     11 C4         5.5987    2.4173    1.4806 C.ar      1 RES1    0.0000
     12 C5         5.9996    1.7814    0.3231 C.ar      1 RES1    0.0000
     13 C6         5.8480    0.3927    0.3029 C.ar      1 RES1    0.0000
     14 C7         5.3218   -0.3298    1.3771 C.ar      1 RES1    0.0000
     15 C8         4.9138    0.3484    2.5170 C.ar      1 RES1    0.0000
     16 C9         5.0886    1.7426    2.5794 C.ar      1 RES1    0.0000
     17 C10        4.8409    2.7235    3.6260 C.2       1 RES1    0.0000
     18 C11        5.4706    4.0636    3.1297 C.3       1 RES1    0.0000
     19 C12        3.4104    5.1588    2.9460 C.3       1 RES1    0.0000
     20 C13        4.2003   -1.6618    3.6053 C.3       1 RES1    0.0000
     21 C14        6.2437   -0.3945   -0.9018 C.2       1 RES1    0.0000
     22 C15        7.1277   -0.2543   -3.0953 C.3       1 RES1    0.0000
     23 H1         6.9099    4.2099    4.8754 H         1 RES1    0.0000
     24 H2         8.8837    4.2666    3.7110 H         1 RES1    0.0000
     25 H3         8.2271    3.1368    1.2970 H         1 RES1    0.0000
     26 H4         8.5755    4.8789    1.2919 H         1 RES1    0.0000
     27 H5         6.4859    2.3362   -0.4621 H         1 RES1    0.0000
     28 H6         5.0934   -1.3911    1.1593 H         1 RES1    0.0000
     29 H7         2.9431    5.9593    3.2077 H         1 RES1    0.0000
     30 H8         2.9322    4.4164    3.3715 H         1 RES1    0.0000
     31 H9         3.3671    5.0489    2.0233 H         1 RES1    0.0000
     32 H10        3.5971   -1.8993    2.8983 H         1 RES1    0.0000
     33 H11        3.8129   -1.9359    4.4354 H         1 RES1    0.0000
     34 H12        5.0247   -2.0821    3.4770 H         1 RES1    0.0000
     35 H13        6.3600   -0.6508   -3.4900 H         1 RES1    0.0000
     36 H14        7.7878   -0.9012   -2.9365 H         1 RES1    0.0000
     37 H15        7.4704    0.4113   -3.7010 H         1 RES1    0.0000
@<TRIPOS>BOND
     1    1    7 1
     2    2   18 1
     3    3   17 2
     4    4   15 1
     5    5   21 2
     6    6   21 1
     7    7   11 1
     8    8    9 2
     9    9   10 1
    10   10    1 1
    11   11   12 ar
    12   12   13 ar
    13   13   14 ar
    14   14   15 ar
    15   15   16 ar
    16   16   11 ar
    17   17   16 1
    18   18    7 1
    19   19    2 1
    20   20    4 1
    21   21   13 1
    22   22    6 1
    23   23    8 1
    24   24    9 1
    25   25   10 1
    26   26   10 1
    27   27   12 1
    28   28   14 1
    29   29   19 1
    30   30   19 1
    31   31   19 1
    32   32   20 1
    33   33   20 1
    34   34   20 1
    35   35   22 1
    36   36   22 1
    37   37   22 1
    38    8   18 1
    39   17   18 1
@<TRIPOS>SUBSTRUCTURE
     1 RES1 1

@<TRIPOS>CRYSIN
   8.0330   18.2800   10.4000  90.0000 104.9900  90.0000 231 1

