# MOL2 file generated by ConQuest
# Please check atom types

@<TRIPOS>MOLECULE
KOHQOO01
    54    56     1
SMALL
NO_CHARGES
****
Generated from CSD

@<TRIPOS>ATOM
      1 C1         4.1504    1.9973    2.0616 C.3       1 RES1    0.0000
      2 H1         4.4484    1.0686    1.9660 H         1 RES1    0.0000
      3 C2         2.6315    2.0052    2.0709 C.3       1 RES1    0.0000
      4 H2         2.3122    2.9101    2.2142 H         1 RES1    0.0000
      5 H3         2.3078    1.4526    2.8008 H         1 RES1    0.0000
      6 C3         2.0863    1.4727    0.7450 C.3       1 RES1    0.0000
      7 H4         2.3314    0.5391    0.6478 H         1 RES1    0.0000
      8 H5         1.1172    1.5283    0.7510 H         1 RES1    0.0000
      9 C4         2.6200    2.2465   -0.4145 C.3       1 RES1    0.0000
     10 H6         2.3000    3.1609   -0.3674 H         1 RES1    0.0000
     11 H7         2.2960    1.8558   -1.2408 H         1 RES1    0.0000
     12 C5         4.1297    2.2388   -0.4121 C.3       1 RES1    0.0000
     13 H8         4.4540    2.7789   -1.1490 H         1 RES1    0.0000
     14 H9         4.4469    1.3320   -0.5431 H         1 RES1    0.0000
     15 C6         4.6849    2.7828    0.8958 C.3       1 RES1    0.0000
     16 H10        5.6541    2.7291    0.8847 H         1 RES1    0.0000
     17 H11        4.4365    3.7154    0.9911 H         1 RES1    0.0000
     18 C7         5.3120    1.7721    4.2076 C.2       1 RES1    0.0000
     19 C8         7.1620    2.6149    5.6605 C.3       1 RES1    0.0000
     20 H12        7.2798    3.4003    6.2348 H         1 RES1    0.0000
     21 C9         7.9447    2.8698    4.3886 C.3       1 RES1    0.0000
     22 H13        7.6184    3.6780    3.9643 H         1 RES1    0.0000
     23 H14        7.8119    2.1316    3.7725 H         1 RES1    0.0000
     24 C10        9.4331    3.0192    4.6912 C.3       1 RES1    0.0000
     25 H15        9.9202    3.1303    3.8611 H         1 RES1    0.0000
     26 H16        9.5749    3.8130    5.2309 H         1 RES1    0.0000
     27 C11        9.9599    1.8175    5.4233 C.3       1 RES1    0.0000
     28 H17       10.8989    1.9506    5.6289 H         1 RES1    0.0000
     29 H18        9.8839    1.0351    4.8554 H         1 RES1    0.0000
     30 C12        9.1959    1.5829    6.7020 C.3       1 RES1    0.0000
     31 H19        9.3329    2.3307    7.3032 H         1 RES1    0.0000
     32 H20        9.5300    0.7823    7.1357 H         1 RES1    0.0000
     33 C13        7.6991    1.4239    6.4211 C.3       1 RES1    0.0000
     34 H21        7.5517    0.6167    5.9029 H         1 RES1    0.0000
     35 H22        7.2200    1.3339    7.2597 H         1 RES1    0.0000
     36 C14        4.8045    3.1041    6.2057 C.2       1 RES1    0.0000
     37 C15        3.3547    2.8186    5.9849 C.ar      1 RES1    0.0000
     38 C16        2.4718    3.8747    5.8557 C.ar      1 RES1    0.0000
     39 H23        2.7973    4.7457    5.8529 H         1 RES1    0.0000
     40 C17        1.1201    3.6560    5.7301 C.ar      1 RES1    0.0000
     41 H24        0.5301    4.3665    5.6225 H         1 RES1    0.0000
     42 C18        0.6640    2.3662    5.7670 C.ar      1 RES1    0.0000
     43 C19        1.5046    1.3007    5.9030 C.ar      1 RES1    0.0000
     44 H25        1.1678    0.4338    5.9206 H         1 RES1    0.0000
     45 C20        2.8624    1.5245    6.0144 C.ar      1 RES1    0.0000
     46 H26        3.4463    0.8063    6.1091 H         1 RES1    0.0000
     47 N1         4.6925    2.5217    3.3132 N.am      1 RES1    0.0000
     48 H27        4.6040    3.3611    3.4760 H         1 RES1    0.0000
     49 N2         5.7090    2.4862    5.3906 N.am      1 RES1    0.0000
     50 N3        -0.7863    2.1105    5.6584 N.pl3     1 RES1    0.0000
     51 O1         5.5831    0.5888    4.0706 O.2       1 RES1    0.0000
     52 O2         5.1433    3.8400    7.1195 O.2       1 RES1    0.0000
     53 O3        -1.1692    0.9729    5.6795 O.2       1 RES1    0.0000
     54 O4        -1.5204    3.0728    5.5696 O.2       1 RES1    0.0000
@<TRIPOS>BOND
     1    1    2 1
     2    3    1 1
     3    4    3 1
     4    5    3 1
     5    6    3 1
     6    7    6 1
     7    8    6 1
     8    9    6 1
     9   10    9 1
    10   11    9 1
    11   12    9 1
    12   13   12 1
    13   14   12 1
    14   15    1 1
    15   16   15 1
    16   17   15 1
    17   18   47 1
    18   19   20 1
    19   21   19 1
    20   22   21 1
    21   23   21 1
    22   24   21 1
    23   25   24 1
    24   26   24 1
    25   27   24 1
    26   28   27 1
    27   29   27 1
    28   30   27 1
    29   31   30 1
    30   32   30 1
    31   33   19 1
    32   34   33 1
    33   35   33 1
    34   36   37 1
    35   37   38 ar
    36   38   39 1
    37   40   38 ar
    38   41   40 1
    39   42   40 ar
    40   43   42 ar
    41   44   43 1
    42   45   37 ar
    43   46   45 1
    44   47    1 1
    45   48   47 1
    46   49   18 1
    47   50   42 1
    48   51   18 2
    49   52   36 2
    50   53   50 2
    51   54   50 2
    52   12   15 1
    53   19   49 1
    54   30   33 1
    55   36   49 1
    56   43   45 ar
@<TRIPOS>SUBSTRUCTURE
     1 RES1 1

@<TRIPOS>CRYSIN
  25.2940    9.5757   16.6943  90.0000 105.1400  90.0000  15 1

