# MOL2 file generated by ConQuest
# Please check atom types

@<TRIPOS>MOLECULE
KOJCUJ
    61    65     1
SMALL
NO_CHARGES
****
Generated from CSD

@<TRIPOS>ATOM
      1 O1        14.6445   10.7788    0.9951 O.2       1 RES1    0.0000
      2 O2        12.8040    9.0824    2.9553 O.3       1 RES1    0.0000
      3 O3        14.4341   11.0792    6.7220 O.2       1 RES1    0.0000
      4 O4        14.4695    9.8747    8.4336 O.2       1 RES1    0.0000
      5 O5        19.1870    4.5577   -1.8318 O.3       1 RES1    0.0000
      6 N1        15.8272    9.1548    2.1980 N.am      1 RES1    0.0000
      7 N2        14.5431   10.0068    7.2489 N.pl3     1 RES1    0.0000
      8 N3        18.5831    6.9894   -0.4693 N.3       1 RES1    0.0000
      9 C1        14.7561    9.7552    1.6359 C.2       1 RES1    0.0000
     10 C2        13.8298    8.6392    2.0885 C.3       1 RES1    0.0000
     11 C3        15.1008    8.0139    2.7572 C.3       1 RES1    0.0000
     12 C4        11.9162    8.1317    3.4286 C.ar      1 RES1    0.0000
     13 C5        10.9729    8.6350    4.3499 C.ar      1 RES1    0.0000
     14 C6        10.0351    7.8100    4.8591 C.ar      1 RES1    0.0000
     15 C7         9.9598    6.4430    4.4795 C.ar      1 RES1    0.0000
     16 C8         8.9722    5.5683    4.9807 C.ar      1 RES1    0.0000
     17 C9         8.9184    4.2699    4.5646 C.ar      1 RES1    0.0000
     18 C10        9.8419    3.7971    3.6609 C.ar      1 RES1    0.0000
     19 C11       10.8192    4.5914    3.1746 C.ar      1 RES1    0.0000
     20 C12       10.9187    5.9534    3.5704 C.ar      1 RES1    0.0000
     21 C13       11.9060    6.8233    3.0638 C.ar      1 RES1    0.0000
     22 C14       15.1184    7.8999    4.2539 C.ar      1 RES1    0.0000
     23 C15       14.8895    9.0004    5.0550 C.ar      1 RES1    0.0000
     24 C16       14.8439    8.8361    6.4208 C.ar      1 RES1    0.0000
     25 C17       15.0543    7.6372    7.0327 C.ar      1 RES1    0.0000
     26 C18       15.2983    6.5447    6.2343 C.ar      1 RES1    0.0000
     27 C19       15.3192    6.6810    4.8632 C.ar      1 RES1    0.0000
     28 C20       17.2427    9.4417    2.1371 C.3       1 RES1    0.0000
     29 C21       18.0588    8.2924    1.5778 C.3       1 RES1    0.0000
     30 C22       17.6564    7.9191    0.1770 C.3       1 RES1    0.0000
     31 C23       18.6913    5.7322    0.2256 C.3       1 RES1    0.0000
     32 C24       19.5954    4.7855   -0.4917 C.3       1 RES1    0.0000
     33 C25       19.0889    5.7663   -2.5154 C.3       1 RES1    0.0000
     34 C26       18.1435    6.7269   -1.8345 C.3       1 RES1    0.0000
     35 H1        13.4899    8.1018    1.3428 H         1 RES1    0.0000
     36 H2        15.3601    7.1728    2.3262 H         1 RES1    0.0000
     37 H3        10.9974    9.5286    4.6038 H         1 RES1    0.0000
     38 H4         9.4219    8.1444    5.4738 H         1 RES1    0.0000
     39 H5         8.3512    5.8803    5.5994 H         1 RES1    0.0000
     40 H6         8.2575    3.7039    4.8916 H         1 RES1    0.0000
     41 H7         9.7927    2.9122    3.3813 H         1 RES1    0.0000
     42 H8        11.4345    4.2426    2.5707 H         1 RES1    0.0000
     43 H9        12.5516    6.5002    2.4775 H         1 RES1    0.0000
     44 H10       14.7679    9.8417    4.6781 H         1 RES1    0.0000
     45 H11       15.0314    7.5597    7.9581 H         1 RES1    0.0000
     46 H12       15.4494    5.7127    6.6207 H         1 RES1    0.0000
     47 H13       15.4730    5.9309    4.3363 H         1 RES1    0.0000
     48 H14       17.5614    9.6493    3.0300 H         1 RES1    0.0000
     49 H15       17.3825   10.2262    1.5832 H         1 RES1    0.0000
     50 H16       18.9977    8.5386    1.5819 H         1 RES1    0.0000
     51 H17       17.9521    7.5187    2.1533 H         1 RES1    0.0000
     52 H18       16.7746    7.5165    0.2013 H         1 RES1    0.0000
     53 H19       17.5978    8.7259   -0.3580 H         1 RES1    0.0000
     54 H20       17.8098    5.3338    0.3080 H         1 RES1    0.0000
     55 H21       19.0335    5.8882    1.1199 H         1 RES1    0.0000
     56 H22       20.4963    5.1451   -0.4904 H         1 RES1    0.0000
     57 H23       19.6116    3.9399   -0.0162 H         1 RES1    0.0000
     58 H24       18.7783    5.5984   -3.4177 H         1 RES1    0.0000
     59 H25       19.9682    6.1723   -2.5734 H         1 RES1    0.0000
     60 H26       18.1120    7.5601   -2.3303 H         1 RES1    0.0000
     61 H27       17.2502    6.3490   -1.8210 H         1 RES1    0.0000
@<TRIPOS>BOND
     1    1    9 2
     2    2   10 1
     3    3    7 2
     4    4    7 2
     5    5   32 1
     6    6    9 1
     7    7   24 1
     8    8   30 1
     9    9   10 1
    10   10   11 1
    11   11    6 1
    12   12    2 1
    13   13   12 ar
    14   14   13 ar
    15   15   14 ar
    16   16   15 ar
    17   17   16 ar
    18   18   17 ar
    19   19   18 ar
    20   20   15 ar
    21   21   12 ar
    22   22   11 1
    23   23   22 ar
    24   24   23 ar
    25   25   24 ar
    26   26   25 ar
    27   27   22 ar
    28   28    6 1
    29   29   28 1
    30   30   29 1
    31   31    8 1
    32   32   31 1
    33   33    5 1
    34   34    8 1
    35   35   10 1
    36   36   11 1
    37   37   13 1
    38   38   14 1
    39   39   16 1
    40   40   17 1
    41   41   18 1
    42   42   19 1
    43   43   21 1
    44   44   23 1
    45   45   25 1
    46   46   26 1
    47   47   27 1
    48   48   28 1
    49   49   28 1
    50   50   29 1
    51   51   29 1
    52   52   30 1
    53   53   30 1
    54   54   31 1
    55   55   31 1
    56   56   32 1
    57   57   32 1
    58   58   33 1
    59   59   33 1
    60   60   34 1
    61   61   34 1
    62   19   20 ar
    63   20   21 ar
    64   26   27 ar
    65   33   34 1
@<TRIPOS>SUBSTRUCTURE
     1 RES1 1

@<TRIPOS>CRYSIN
   9.7068   10.3836   14.2041  73.7390  75.9220  63.1070   2 1

