# MOL2 file generated by ConQuest
# Please check atom types

@<TRIPOS>MOLECULE
KOJLIG
    79    66     2
SMALL
NO_CHARGES
****
Generated from CSD

@<TRIPOS>ATOM
      1 C1         4.1050    4.3495    4.1356 C.3       1 RES1    0.0000
      2 C2         5.5313    4.3181    3.5760 C.3       1 RES1    0.0000
      3 H1         6.0170    3.5546    3.9808 H         1 RES1    0.0000
      4 H2         5.9997    5.1485    3.8435 H         1 RES1    0.0000
      5 C3         5.5838    4.1876    2.0344 C.2       1 RES1    0.0000
      6 H3         6.4397    4.1729    1.6226 H         1 RES1    0.0000
      7 C4         4.5015    4.0936    1.2284 C.2       1 RES1    0.0000
      8 C5         4.6769    3.9672   -0.2569 C.3       1 RES1    0.0000
      9 H4         5.5665    4.2972   -0.5068 H         1 RES1    0.0000
     10 H5         3.9926    4.4957   -0.7145 H         1 RES1    0.0000
     11 H6         4.5944    3.0260   -0.5174 H         1 RES1    0.0000
     12 C6         3.1951    4.3474    1.8866 C.2       1 RES1    0.0000
     13 C7         3.1037    3.5828    3.2522 C.3       1 RES1    0.0000
     14 C8         3.5451    2.0943    3.1079 C.3       1 RES1    0.0000
     15 H7         4.4273    2.0536    2.6891 H         1 RES1    0.0000
     16 H8         2.8946    1.6149    2.5518 H         1 RES1    0.0000
     17 H9         3.5841    1.6786    3.9949 H         1 RES1    0.0000
     18 C9         1.6939    3.5525    3.8787 C.3       1 RES1    0.0000
     19 H10        1.6594    2.8631    4.5721 H         1 RES1    0.0000
     20 H11        1.0336    3.3478    3.1818 H         1 RES1    0.0000
     21 H12        1.4923    4.4268    4.2729 H         1 RES1    0.0000
     22 C10        2.4741    5.2655    1.3727 C.2       1 RES1    0.0000
     23 H13        2.5768    5.4400    0.4435 H         1 RES1    0.0000
     24 C11        1.4503    6.1126    2.1470 C.3       1 RES1    0.0000
     25 H14        0.9174    5.5131    2.7278 H         1 RES1    0.0000
     26 H15        0.8289    6.5315    1.5029 H         1 RES1    0.0000
     27 C12        2.0986    7.2543    3.0481 C.3       1 RES1    0.0000
     28 C13        1.0868    7.5834    4.1145 C.3       1 RES1    0.0000
     29 H16        1.2951    8.4556    4.5052 H         1 RES1    0.0000
     30 H17        1.1243    6.8961    4.8185 H         1 RES1    0.0000
     31 H18        0.1934    7.5990    3.7203 H         1 RES1    0.0000
     32 C14        2.1361    8.5548    2.2596 C.3       1 RES1    0.0000
     33 H19        1.3409    8.5830    1.6719 H         1 RES1    0.0000
     34 H20        2.0506    9.3079    2.9002 H         1 RES1    0.0000
     35 C15        3.3278    8.8159    1.4149 C.3       1 RES1    0.0000
     36 H21        3.2513    9.7194    1.0102 H         1 RES1    0.0000
     37 H22        3.3578    8.1579    0.6793 H         1 RES1    0.0000
     38 C16        4.6394    8.7428    2.2104 C.3       1 RES1    0.0000
     39 H23        5.4009    8.6759    1.5768 H         1 RES1    0.0000
     40 H24        4.7548    9.5732    2.7348 H         1 RES1    0.0000
     41 C17        4.6769    7.5646    3.1396 C.2       1 RES1    0.0000
     42 H25        5.4833    7.3337    3.5795 H         1 RES1    0.0000
     43 C18        3.5661    6.8365    3.3543 C.2       1 RES1    0.0000
     44 C19        3.6223    5.7690    4.4489 C.3       1 RES1    0.0000
     45 H26        2.7109    5.6990    4.8537 H         1 RES1    0.0000
     46 C20        4.0113    6.7979    6.5537 C.2       1 RES1    0.0000
     47 C21        5.0509    7.3567    7.4618 C.ar      1 RES1    0.0000
     48 C22        4.6799    8.0430    8.6549 C.ar      1 RES1    0.0000
     49 H27        3.7565    8.1182    8.8661 H         1 RES1    0.0000
     50 C23        5.6018    8.6028    9.5208 C.ar      1 RES1    0.0000
     51 H28        5.3409    9.1000   10.2881 H         1 RES1    0.0000
     52 C24        6.9554    8.3866    9.1899 C.ar      1 RES1    0.0000
     53 C25        7.3429    7.7056    8.1129 C.ar      1 RES1    0.0000
     54 H29        8.2662    7.5593    7.9440 H         1 RES1    0.0000
     55 C26        6.3977    7.2199    7.2506 C.ar      1 RES1    0.0000
     56 H30        6.6893    6.7655    6.4692 H         1 RES1    0.0000
     57 N1         7.8780    8.9841   10.1684 N.pl3     1 RES1    0.0000
     58 O1         4.0608    3.7102    5.4063 O.3       1 RES1    0.0000
     59 H31        4.7758    3.8596    5.8181 H         1 RES1    0.0000
     60 O2         4.5412    6.2975    5.4837 O.3       1 RES1    0.0000
     61 O3         2.8526    6.8584    6.8353 O.2       1 RES1    0.0000
     62 O4         7.5197    9.5095   11.1821 O.2       1 RES1    0.0000
     63 O5         9.0929    8.8671    9.8622 O.2       1 RES1    0.0000
     64 C27        2.2860    7.3222    2.4884 Du        2 SUP2    0.0000
     65 C28        1.6114    8.0847    3.6077 Du        2 SUP2    0.0000
     66 H32        2.2268    8.7637    3.9561 Du        2 SUP2    0.0000
     67 H33        1.3633    7.4674    4.3257 Du        2 SUP2    0.0000
     68 H34        0.8050    8.5255    3.2628 Du        2 SUP2    0.0000
     69 C29        2.6382    8.2101    1.3128 Du        2 SUP2    0.0000
     70 H35        1.8235    8.7062    1.0418 Du        2 SUP2    0.0000
     71 H36        2.9013    7.6387    0.5491 Du        2 SUP2    0.0000
     72 C30        3.7625    9.2442    1.5522 Du        2 SUP2    0.0000
     73 H37        3.8674    9.8427    0.7708 Du        2 SUP2    0.0000
     74 H38        3.5796    9.7863    2.3582 Du        2 SUP2    0.0000
     75 C31        5.0067    8.3877    1.7458 Du        2 SUP2    0.0000
     76 H39        5.3215    8.0544    0.8694 Du        2 SUP2    0.0000
     77 H40        5.7284    8.9413    2.1435 Du        2 SUP2    0.0000
     78 C32        4.6994    7.2282    2.6539 Du        2 SUP2    0.0000
     79 H41        5.4361    6.6433    2.7735 Du        2 SUP2    0.0000
@<TRIPOS>BOND
     1    1    2 1
     2    2    3 1
     3    4    2 1
     4    5    2 1
     5    6    5 1
     6    7    5 2
     7    8    7 1
     8    9    8 1
     9   10    8 1
    10   11    8 1
    11   12    7 1
    12   13    1 1
    13   14   13 1
    14   15   14 1
    15   16   14 1
    16   17   14 1
    17   18   13 1
    18   19   18 1
    19   20   18 1
    20   21   18 1
    21   22   12 2
    22   23   22 1
    23   24   22 1
    24   25   24 1
    25   26   24 1
    26   27   24 1
    27   28   27 1
    28   29   28 1
    29   30   28 1
    30   31   28 1
    31   32   27 1
    32   33   32 1
    33   34   32 1
    34   35   32 1
    35   36   35 1
    36   37   35 1
    37   38   35 1
    38   39   38 1
    39   40   38 1
    40   41   38 1
    41   42   41 1
    42   43   27 1
    43   44    1 1
    44   45   44 1
    45   46   47 1
    46   47   48 ar
    47   48   49 1
    48   50   48 ar
    49   51   50 1
    50   52   50 ar
    51   53   52 ar
    52   54   53 1
    53   55   47 ar
    54   56   55 1
    55   57   52 1
    56   58    1 1
    57   59   58 1
    58   60   44 1
    59   61   46 2
    60   62   57 2
    61   63   57 2
    62   12   13 1
    63   41   43 2
    64   43   44 1
    65   46   60 1
    66   53   55 ar
@<TRIPOS>SUBSTRUCTURE
     1 RES1 1
     2 SUP2 64

@<TRIPOS>CRYSIN
   7.4950   10.4454   35.1970  90.0000  90.0000  90.0000  19 1

