# MOL2 file generated by ConQuest
# Please check atom types

@<TRIPOS>MOLECULE
KOKDAP
    35    39     1
SMALL
NO_CHARGES
****
Generated from CSD

@<TRIPOS>ATOM
      1 O1         1.8989    7.6375    4.5599 O.2       1 RES1    0.0000
      2 O2         5.3030    8.4547    7.1650 O.3       1 RES1    0.0000
      3 O3         4.5528    5.9099   -1.4804 O.2       1 RES1    0.0000
      4 O4         6.3755    4.9567   -0.8171 O.2       1 RES1    0.0000
      5 N1         4.0253    6.7592    4.7357 N.am      1 RES1    0.0000
      6 N2         4.4370    9.4904    7.6658 N.3       1 RES1    0.0000
      7 N3         5.3042    5.5127   -0.6084 N.pl3     1 RES1    0.0000
      8 C1         2.8940    7.3656    5.2167 C.2       1 RES1    0.0000
      9 C2         4.9901    6.4613    5.8097 C.3       1 RES1    0.0000
     10 C3         4.4853    7.2694    7.0200 C.3       1 RES1    0.0000
     11 C4         3.1947    9.3208    6.8728 C.3       1 RES1    0.0000
     12 C5         3.1098    7.7796    6.6532 C.3       1 RES1    0.0000
     13 C6         4.2858    6.3850    3.4353 C.ar      1 RES1    0.0000
     14 C7         3.4658    6.7577    2.3634 C.ar      1 RES1    0.0000
     15 C8         3.7752    6.4583    1.0499 C.ar      1 RES1    0.0000
     16 C9         4.9087    5.7587    0.8083 C.ar      1 RES1    0.0000
     17 C10        5.7125    5.3142    1.7594 C.ar      1 RES1    0.0000
     18 C11        5.4095    5.6243    3.1212 C.ar      1 RES1    0.0000
     19 C12        3.2535   10.1426    5.6143 C.ar      1 RES1    0.0000
     20 C13        2.1886   10.9491    5.3024 C.ar      1 RES1    0.0000
     21 C14        2.1676   11.7266    4.1338 C.ar      1 RES1    0.0000
     22 C15        3.2290   11.6777    3.2794 C.ar      1 RES1    0.0000
     23 C16        4.3131   10.8834    3.5693 C.ar      1 RES1    0.0000
     24 C17        4.3283   10.1243    4.7488 C.ar      1 RES1    0.0000
     25 C18        4.3446    9.4552    9.0891 C.ar      1 RES1    0.0000
     26 C19        5.3193    8.9114    9.8623 C.ar      1 RES1    0.0000
     27 C20        5.2856    9.0016   11.2439 C.ar      1 RES1    0.0000
     28 C21        4.2579    9.6034   11.8677 C.ar      1 RES1    0.0000
     29 C22        3.2494   10.1716   11.1253 C.ar      1 RES1    0.0000
     30 C23        3.3215   10.1075    9.6975 C.ar      1 RES1    0.0000
     31 H1         5.0483    5.5754    5.9745 H         1 RES1    0.0000
     32 H2         5.9265    6.7210    5.5571 H         1 RES1    0.0000
     33 H3         4.5190    6.7363    7.8635 H         1 RES1    0.0000
     34 H4         2.3904    9.7913    7.4022 H         1 RES1    0.0000
     35 H5         2.3497    7.2862    7.0947 H         1 RES1    0.0000
@<TRIPOS>BOND
     1    1    8 2
     2    2    6 1
     3    3    7 2
     4    4    7 2
     5    5    8 1
     6    6   11 1
     7    7   16 1
     8    8   12 1
     9    9    5 1
    10   10    2 1
    11   11   12 1
    12   12   10 1
    13   13    5 1
    14   14   13 ar
    15   15   14 ar
    16   16   15 ar
    17   17   16 ar
    18   18   13 ar
    19   19   11 1
    20   20   19 ar
    21   21   20 ar
    22   22   21 ar
    23   23   22 ar
    24   24   19 ar
    25   25    6 1
    26   26   25 ar
    27   27   26 ar
    28   28   27 ar
    29   29   28 ar
    30   30   25 ar
    31   31    9 1
    32   32    9 1
    33   33   10 1
    34   34   11 1
    35   35   12 1
    36    9   10 1
    37   17   18 ar
    38   23   24 ar
    39   29   30 ar
@<TRIPOS>SUBSTRUCTURE
     1 RES1 1

@<TRIPOS>CRYSIN
   5.8160   15.2750   21.9650  90.0000  90.0000  90.0000  29 3

