# MOL2 file generated by ConQuest
# Please check atom types

@<TRIPOS>MOLECULE
KOKDET
    28    29     1
SMALL
NO_CHARGES
****
Generated from CSD

@<TRIPOS>ATOM
      1 O1        12.9276   -0.0991    7.9843 O.3       1 RES1    0.0000
      2 O2        11.0697    0.7713    7.0789 O.2       1 RES1    0.0000
      3 O3        13.4739   -0.5409   12.7095 O.2       1 RES1    0.0000
      4 O4        11.9762    0.2375   14.0468 O.2       1 RES1    0.0000
      5 N1         7.6756    3.1859    9.9778 N.3       1 RES1    0.0000
      6 N2         9.7387    1.6931   11.0110 N.ar      1 RES1    0.0000
      7 N3         6.5594    3.9042    9.6435 N.2       1 RES1    0.0000
      8 N4         7.6007    3.1619    7.7913 N.2       1 RES1    0.0000
      9 N5         9.3910    1.9723    8.7572 N.pl3     1 RES1    0.0000
     10 N6        12.4152    0.0410   12.9159 N.pl3     1 RES1    0.0000
     11 C1        10.1498    1.4566    9.7478 C.ar      1 RES1    0.0000
     12 C2        11.3218    0.7228    9.4528 C.ar      1 RES1    0.0000
     13 C3        12.0814    0.2544   10.4995 C.ar      1 RES1    0.0000
     14 C4        11.6535    0.5082   11.7941 C.ar      1 RES1    0.0000
     15 C5        10.4823    1.2116   11.9882 C.ar      1 RES1    0.0000
     16 C6         5.5130    4.5027    7.4817 C.3       1 RES1    0.0000
     17 C7        11.7315    0.4627    8.0347 C.2       1 RES1    0.0000
     18 C8         6.5587    3.8595    8.3231 C.2       1 RES1    0.0000
     19 C9         8.2618    2.7472    8.8537 C.2       1 RES1    0.0000
     20 C10       13.5051   -0.3648    6.6537 C.3       1 RES1    0.0000
     21 C11       13.0560   -1.6965    6.2084 C.3       1 RES1    0.0000
     22 H1         7.9393    3.0029   10.8259 H         1 RES1    0.0000
     23 H2         9.6395    1.8017    7.9764 H         1 RES1    0.0000
     24 H3         4.5590    4.5568    7.9315 H         1 RES1    0.0000
     25 H4         5.1068    3.8499    6.6638 H         1 RES1    0.0000
     26 H5         5.7796    5.2389    7.2135 H         1 RES1    0.0000
     27 H6        12.9223   -0.1482   10.3323 H         1 RES1    0.0000
     28 H7        10.2000    1.3644   12.7780 H         1 RES1    0.0000
@<TRIPOS>BOND
     1    1   17 1
     2    2   17 2
     3    3   10 2
     4    4   10 2
     5    5    7 1
     6    6   11 ar
     7    7   18 2
     8    8   18 1
     9    9   11 1
    10   10   14 1
    11   11   12 ar
    12   12   13 ar
    13   13   14 ar
    14   14   15 ar
    15   15    6 ar
    16   16   18 1
    17   17   12 1
    18   19    5 1
    19   20    1 1
    20   21   20 1
    21   22    5 1
    22   23    9 1
    23   24   16 1
    24   25   16 1
    25   26   16 1
    26   27   13 1
    27   28   15 1
    28    8   19 2
    29    9   19 1
@<TRIPOS>SUBSTRUCTURE
     1 RES1 1

@<TRIPOS>CRYSIN
   5.9500   10.3660   12.4250  67.8100  72.0200  72.6200   2 1

