# MOL2 file generated by ConQuest
# Please check atom types

@<TRIPOS>MOLECULE
KOLVIS
    24    24     1
SMALL
NO_CHARGES
****
Generated from CSD

@<TRIPOS>ATOM
      1 C1         2.4495    1.7166    6.8698 C.ar      1 RES1    0.0000
      2 C2         1.7795    1.8718    8.0563 C.ar      1 RES1    0.0000
      3 H1         1.8513    1.2357    8.7305 H         1 RES1    0.0000
      4 C3         0.9997    2.9908    8.2246 C.ar      1 RES1    0.0000
      5 H2         0.5404    3.1130    9.0237 H         1 RES1    0.0000
      6 C4         0.8888    3.9393    7.2167 C.ar      1 RES1    0.0000
      7 C5         1.5851    3.7490    6.0354 C.ar      1 RES1    0.0000
      8 H3         1.5191    4.3794    5.3549 H         1 RES1    0.0000
      9 C6         2.3753    2.6323    5.8589 C.ar      1 RES1    0.0000
     10 H4         2.8477    2.5045    5.0680 H         1 RES1    0.0000
     11 C7         0.0402    5.1364    7.5006 C.2       1 RES1    0.0000
     12 C8        -0.1975    8.2241    7.0155 C.2       1 RES1    0.0000
     13 N1         3.2813    0.5207    6.6825 N.pl3     1 RES1    0.0000
     14 N2        -0.2446    5.9349    6.4700 N.am      1 RES1    0.0000
     15 H5         0.1569    5.8722    5.6924 H         1 RES1    0.0000
     16 N3        -0.9084    7.1291    6.6825 N.am      1 RES1    0.0000
     17 H6        -1.7726    7.1291    6.7060 H         1 RES1    0.0000
     18 N4        -0.9246    9.3195    7.2418 N.am      1 RES1    0.0000
     19 H7        -1.8250    9.3011    7.1766 H         1 RES1    0.0000
     20 H8        -0.5008   10.0605    7.3848 H         1 RES1    0.0000
     21 O1        -0.3898    5.3439    8.6185 O.2       1 RES1    0.0000
     22 O2         1.0272    8.1946    7.0956 O.2       1 RES1    0.0000
     23 O3         3.2217   -0.3554    7.5232 O.2       1 RES1    0.0000
     24 O4         4.0044    0.4594    5.7078 O.2       1 RES1    0.0000
@<TRIPOS>BOND
     1    1    2 ar
     2    2    3 1
     3    4    2 ar
     4    5    4 1
     5    6    4 ar
     6    7    6 ar
     7    8    7 1
     8    9    1 ar
     9   10    9 1
    10   11    6 1
    11   12   16 1
    12   13    1 1
    13   14   11 1
    14   15   14 1
    15   16   14 1
    16   17   16 1
    17   18   12 1
    18   19   18 1
    19   20   18 1
    20   21   11 2
    21   22   12 2
    22   23   13 2
    23   24   13 2
    24    7    9 ar
@<TRIPOS>SUBSTRUCTURE
     1 RES1 1

@<TRIPOS>CRYSIN
   4.5240   23.5830    9.5370  90.0000 108.3900  90.0000  14 1

