# MOL2 file generated by ConQuest
# Please check atom types

@<TRIPOS>MOLECULE
KOMVEN
    36    40     1
SMALL
NO_CHARGES
****
Generated from CSD

@<TRIPOS>ATOM
      1 O1         4.2073   10.4529   21.4314 O.3       1 RES1    0.0000
      2 O2         6.0872    9.3808   22.1662 O.3       1 RES1    0.0000
      3 O3         6.4961    8.9893   19.8817 O.3       1 RES1    0.0000
      4 O4         5.7387   11.3092   18.3168 O.3       1 RES1    0.0000
      5 O5         6.4303    9.5213   17.0164 O.3       1 RES1    0.0000
      6 O6         3.6888    7.4544   14.6799 O.3       1 RES1    0.0000
      7 O7         4.0455    9.6122   14.1186 O.2       1 RES1    0.0000
      8 O8        -1.3714    7.0340   10.0872 O.2       1 RES1    0.0000
      9 O9        -1.2542    9.1370    9.7382 O.2       1 RES1    0.0000
     10 N1        -0.8359    8.1289   10.2887 N.pl3     1 RES1    0.0000
     11 C1         4.8537   10.6595   23.7549 C.3       1 RES1    0.0000
     12 C2         3.9774    8.4904   22.7969 C.3       1 RES1    0.0000
     13 C3         4.7747    9.7402   22.5368 C.3       1 RES1    0.0000
     14 C4         6.4190    9.9778   20.9221 C.3       1 RES1    0.0000
     15 C5         5.2403   10.9074   20.5796 C.3       1 RES1    0.0000
     16 C6         4.8970   10.5149   19.1925 C.3       1 RES1    0.0000
     17 C7         5.3142    9.0482   19.0949 C.3       1 RES1    0.0000
     18 C8         5.6685    8.5524   17.7208 C.3       1 RES1    0.0000
     19 C9         5.8299   10.8145   16.9991 C.3       1 RES1    0.0000
     20 C10        6.7226   11.7131   16.2144 C.ar      1 RES1    0.0000
     21 C11        7.7977   12.3225   16.8127 C.ar      1 RES1    0.0000
     22 C12        8.6721   13.1798   16.1126 C.ar      1 RES1    0.0000
     23 C13        8.4468   13.4070   14.7276 C.ar      1 RES1    0.0000
     24 C14        7.3133   12.8080   14.1207 C.ar      1 RES1    0.0000
     25 C15        6.4408   11.9300   14.8598 C.ar      1 RES1    0.0000
     26 C16        4.3849    8.1393   16.9297 C.3       1 RES1    0.0000
     27 C17        4.8433    7.5918   15.5924 C.3       1 RES1    0.0000
     28 C18        5.3976    6.2284   15.7051 C.1       1 RES1    0.0000
     29 C19        5.9464    5.1748   15.8785 C.1       1 RES1    0.0000
     30 C20        3.4325    8.5731   14.0015 C.2       1 RES1    0.0000
     31 C21        2.3109    8.3975   13.0218 C.ar      1 RES1    0.0000
     32 C22        1.9488    9.5130   12.2632 C.ar      1 RES1    0.0000
     33 C23        0.8951    9.4614   11.3659 C.ar      1 RES1    0.0000
     34 C24        0.2625    8.1806   11.2272 C.ar      1 RES1    0.0000
     35 C25        0.5949    7.0547   11.9576 C.ar      1 RES1    0.0000
     36 C26        1.6716    7.1683   12.8983 C.ar      1 RES1    0.0000
@<TRIPOS>BOND
     1    1   13 1
     2    2   13 1
     3    3   14 1
     4    4   16 1
     5    5   18 1
     6    6   27 1
     7    7   30 2
     8    8   10 2
     9    9   10 2
    10   10   34 1
    11   11   13 1
    12   12   13 1
    13   14    2 1
    14   15    1 1
    15   16   15 1
    16   17    3 1
    17   18   17 1
    18   19    4 1
    19   20   19 1
    20   21   20 ar
    21   22   21 ar
    22   23   22 ar
    23   24   23 ar
    24   25   20 ar
    25   26   18 1
    26   27   26 1
    27   28   27 1
    28   29   28 3
    29   30    6 1
    30   31   30 1
    31   32   31 ar
    32   33   32 ar
    33   34   33 ar
    34   35   34 ar
    35   36   31 ar
    36    5   19 1
    37   14   15 1
    38   16   17 1
    39   24   25 ar
    40   35   36 ar
@<TRIPOS>SUBSTRUCTURE
     1 RES1 1

@<TRIPOS>CRYSIN
   5.3750   10.3290   21.7610  90.0000  95.1200  90.0000   4 1

