# MOL2 file generated by ConQuest
# Please check atom types

@<TRIPOS>MOLECULE
KONHEA
    20    19     1
SMALL
NO_CHARGES
****
Generated from CSD

@<TRIPOS>ATOM
      1 O1         0.0051    3.1140    1.3332 O.2       1 RES1    0.0000
      2 O2         1.3375    6.0462    4.5397 O.3       1 RES1    0.0000
      3 C1         0.6739    4.6430    2.9814 C.2       1 RES1    0.0000
      4 N1         1.6657    5.3199    3.4130 N.2       1 RES1    0.0000
      5 C2         0.9000    3.8304    1.7489 C.2       1 RES1    0.0000
      6 C3         2.2207    3.9283    1.0565 C.3       1 RES1    0.0000
      7 H1         2.9828    3.5943    1.7343 H         1 RES1    0.0000
      8 H2         2.2025    3.2736    0.1986 H         1 RES1    0.0000
      9 H3         2.3848    4.9350    0.7679 H         1 RES1    0.0000
     10 H4         2.0639    6.6951    4.6469 H         1 RES1    0.0000
     11 C1F       -0.6739    4.6430    3.6381 C.2       1 RES1    0.0000
     12 N1F       -1.6657    5.3199    3.2065 N.2       1 RES1    0.0000
     13 C2F       -0.9000    3.8304    4.8706 C.2       1 RES1    0.0000
     14 O2F       -1.3375    6.0462    2.0798 O.3       1 RES1    0.0000
     15 O1F       -0.0051    3.1140    5.2863 O.2       1 RES1    0.0000
     16 C3F       -2.2207    3.9283    5.5630 C.3       1 RES1    0.0000
     17 H4F       -2.0639    6.6951    1.9726 H         1 RES1    0.0000
     18 H1F       -2.9828    3.5943    4.8852 H         1 RES1    0.0000
     19 H2F       -2.2025    3.2736    6.4209 H         1 RES1    0.0000
     20 H3F       -2.3848    4.9350    5.8516 H         1 RES1    0.0000
@<TRIPOS>BOND
     1    1    5 2
     2    2    4 1
     3    3    4 2
     4    5    3 1
     5    6    5 1
     6    7    6 1
     7    8    6 1
     8    9    6 1
     9   10    2 1
    10   11    3 1
    11   12   11 2
    12   13   11 1
    13   14   12 1
    14   15   13 2
    15   16   13 1
    16   17   14 1
    17   18   16 1
    18   19   16 1
    19   20   16 1
@<TRIPOS>SUBSTRUCTURE
     1 RES1 1

@<TRIPOS>CRYSIN
   7.2930    8.2250   13.2390  90.0000  90.0000  90.0000  60 1

