# MOL2 file generated by ConQuest
# Please check atom types

@<TRIPOS>MOLECULE
KONNUY
    40    41     1
SMALL
NO_CHARGES
****
Generated from CSD

@<TRIPOS>ATOM
      1 O1         3.9703    7.9767    6.0307 O.2       1 RES1    0.0000
      2 O2         5.9991    7.7510    4.3417 O.3       1 RES1    0.0000
      3 O3         7.2309    5.3659    4.2184 O.2       1 RES1    0.0000
      4 O4        -0.1659    2.0170   10.2399 O.3       1 RES1    0.0000
      5 H1        -0.8323    2.3697   10.5924 H         1 RES1    0.0000
      6 N1         5.5712    6.6691    5.0906 N.am      1 RES1    0.0000
      7 N2         4.5241    4.3917    6.2759 N.2       1 RES1    0.0000
      8 C1         4.4292    6.8653    5.8871 C.2       1 RES1    0.0000
      9 C2         6.2126    5.4716    4.8848 C.2       1 RES1    0.0000
     10 C3         5.5748    4.2944    5.5360 C.2       1 RES1    0.0000
     11 C4         3.9281    5.6235    6.5165 C.2       1 RES1    0.0000
     12 C5         2.8381    5.7462    7.3330 C.2       1 RES1    0.0000
     13 H2         2.4987    6.6311    7.4094 H         1 RES1    0.0000
     14 C6         2.1164    4.7577    8.0988 C.ar      1 RES1    0.0000
     15 C7         0.9446    5.1802    8.7645 C.ar      1 RES1    0.0000
     16 H3         0.6866    6.0933    8.7189 H         1 RES1    0.0000
     17 C8         0.1652    4.2901    9.4830 C.ar      1 RES1    0.0000
     18 H4        -0.6238    4.5912    9.9172 H         1 RES1    0.0000
     19 C9         0.5395    2.9570    9.5681 C.ar      1 RES1    0.0000
     20 C10        1.7200    2.5229    8.9508 C.ar      1 RES1    0.0000
     21 H5         1.9912    1.6153    9.0331 H         1 RES1    0.0000
     22 C11        2.4866    3.4043    8.2277 C.ar      1 RES1    0.0000
     23 H6         3.2811    3.0958    7.8069 H         1 RES1    0.0000
     24 C12        6.8473    8.6062    5.1283 C.3       1 RES1    0.0000
     25 H7         7.0221    9.4355    4.6356 H         1 RES1    0.0000
     26 H8         7.6947    8.1482    5.3094 H         1 RES1    0.0000
     27 H9         6.4022    8.8177    5.9758 H         1 RES1    0.0000
     28 C13        6.2572    2.9858    5.2851 C.3       1 RES1    0.0000
     29 H10        7.1790    3.0408    5.6426 H         1 RES1    0.0000
     30 H11        6.3256    2.8526    4.3068 H         1 RES1    0.0000
     31 C14        5.5805    1.7639    5.8907 C.3       1 RES1    0.0000
     32 H12        5.3188    1.9867    6.8292 H         1 RES1    0.0000
     33 C15        4.3192    1.3823    5.1248 C.3       1 RES1    0.0000
     34 H13        3.7077    2.1482    5.1004 H         1 RES1    0.0000
     35 H14        3.8803    0.6295    5.5724 H         1 RES1    0.0000
     36 H15        4.5575    1.1241    4.2104 H         1 RES1    0.0000
     37 C16        6.5602    0.5900    5.9343 C.3       1 RES1    0.0000
     38 H16        7.3236    0.8226    6.5033 H         1 RES1    0.0000
     39 H17        6.8756    0.3947    5.0273 H         1 RES1    0.0000
     40 H18        6.1082   -0.1982    6.3002 H         1 RES1    0.0000
@<TRIPOS>BOND
     1    1    8 2
     2    2    6 1
     3    3    9 2
     4    4    5 1
     5    6    8 1
     6    7   10 2
     7    8   11 1
     8    9    6 1
     9   10    9 1
    10   11    7 1
    11   12   11 2
    12   13   12 1
    13   14   12 1
    14   15   14 ar
    15   16   15 1
    16   17   15 ar
    17   18   17 1
    18   19    4 1
    19   20   19 ar
    20   21   20 1
    21   22   14 ar
    22   23   22 1
    23   24    2 1
    24   25   24 1
    25   26   24 1
    26   27   24 1
    27   28   10 1
    28   29   28 1
    29   30   28 1
    30   31   28 1
    31   32   31 1
    32   33   31 1
    33   34   33 1
    34   35   33 1
    35   36   33 1
    36   37   31 1
    37   38   37 1
    38   39   37 1
    39   40   37 1
    40   17   19 ar
    41   20   22 ar
@<TRIPOS>SUBSTRUCTURE
     1 RES1 1

@<TRIPOS>CRYSIN
   5.9730   16.6528   14.6606  90.0000  94.5571  90.0000 231 1

