# MOL2 file generated by ConQuest
# Please check atom types

@<TRIPOS>MOLECULE
KOPLIM
    39    37     2
SMALL
NO_CHARGES
****
Generated from CSD

@<TRIPOS>ATOM
      1 O1        12.7464    7.5567    1.5899 O.2       1 RES1    0.0000
      2 N1        12.6084    5.4784   -0.2685 N.pl3     1 RES1    0.0000
      3 H1        13.2360    6.0897   -0.4850 H         1 RES1    0.0000
      4 O2         6.1368    8.6508    4.0325 O.2       1 RES1    0.0000
      5 O3         7.3462    8.7723    5.7802 O.2       1 RES1    0.0000
      6 N2         7.2012    8.5428    4.5960 N.pl3     1 RES1    0.0000
      7 C1        12.3889    4.3108   -0.9074 C.2       1 RES1    0.0000
      8 C2        11.3077    3.6729   -0.2946 C.2       1 RES1    0.0000
      9 C3        10.8488    4.5124    0.7414 C.2       1 RES1    0.0000
     10 C4        11.6625    5.6586    0.7376 C.2       1 RES1    0.0000
     11 C5        13.2045    3.8954   -2.0867 C.3       1 RES1    0.0000
     12 H2        13.9217    4.5468   -2.2316 H         1 RES1    0.0000
     13 H3        12.6330    3.8566   -2.8816 H         1 RES1    0.0000
     14 H4        13.5936    3.0119   -1.9201 H         1 RES1    0.0000
     15 C6        10.7328    2.3473   -0.6844 C.3       1 RES1    0.0000
     16 H5        10.6247    1.7903    0.1266 H         1 RES1    0.0000
     17 H6        11.3678    1.8847   -1.2886 H         1 RES1    0.0000
     18 C7         9.3837    2.4747   -1.3829 C.3       1 RES1    0.0000
     19 H7         8.7549    2.9461   -0.7965 H         1 RES1    0.0000
     20 H8         9.0353    1.5810   -1.5844 H         1 RES1    0.0000
     21 H9         9.4931    2.9783   -2.2160 H         1 RES1    0.0000
     22 C8         9.7588    4.1391    1.7089 C.3       1 RES1    0.0000
     23 H10        8.8891    4.3733    1.3256 H         1 RES1    0.0000
     24 H11        9.8882    4.6259    2.5502 H         1 RES1    0.0000
     25 H12        9.7904    3.1752    1.8817 H         1 RES1    0.0000
     26 C9        11.7377    6.8308    1.5557 C.2       1 RES1    0.0000
     27 C10       10.5373    7.2432    2.3632 C.ar      1 RES1    0.0000
     28 C11        9.2663    7.2534    1.7779 C.ar      1 RES1    0.0000
     29 H13        9.1537    6.9468    0.8861 H         1 RES1    0.0000
     30 C12        8.1716    7.7103    2.4974 C.ar      1 RES1    0.0000
     31 H14        7.3065    7.7410    2.1036 H         1 RES1    0.0000
     32 C13        8.3729    8.1205    3.8041 C.ar      1 RES1    0.0000
     33 C14        9.6157    8.1275    4.4094 C.ar      1 RES1    0.0000
     34 H15        9.7171    8.4166    5.3080 H         1 RES1    0.0000
     35 C15       10.7113    7.7007    3.6693 C.ar      1 RES1    0.0000
     36 H16       11.5798    7.7205    4.0536 H         1 RES1    0.0000
     37 H17       13.0198    2.9563   -2.2970 Du        2 SUP2    0.0000
     38 H18       14.1568    4.0030   -1.8789 Du        2 SUP2    0.0000
     39 H19       12.9743    4.4553   -2.8574 Du        2 SUP2    0.0000
@<TRIPOS>BOND
     1    1   26 2
     2    2    3 1
     3    4    6 2
     4    5    6 2
     5    6   32 1
     6    7    2 1
     7    8    7 2
     8    9    8 1
     9   10    2 1
    10   11    7 1
    11   12   11 1
    12   13   11 1
    13   14   11 1
    14   15    8 1
    15   16   15 1
    16   17   15 1
    17   18   15 1
    18   19   18 1
    19   20   18 1
    20   21   18 1
    21   22    9 1
    22   23   22 1
    23   24   22 1
    24   25   22 1
    25   26   10 1
    26   27   26 1
    27   28   27 ar
    28   29   28 1
    29   30   28 ar
    30   31   30 1
    31   32   30 ar
    32   33   32 ar
    33   34   33 1
    34   35   27 ar
    35   36   35 1
    36    9   10 2
    37   33   35 ar
@<TRIPOS>SUBSTRUCTURE
     1 RES1 1
     2 SUP2 37

@<TRIPOS>CRYSIN
  27.3250    7.3194   14.3311  90.0000  97.0400  90.0000  15 1

