# MOL2 file generated by ConQuest
# Please check atom types

@<TRIPOS>MOLECULE
KOPNAE
    57    58     1
SMALL
NO_CHARGES
****
Generated from CSD

@<TRIPOS>ATOM
      1 C1        17.3294    0.6878   -2.5987 C.3       1 RES1    0.0000
      2 C2        16.2354   -0.1312   -1.8711 C.3       1 RES1    0.0000
      3 C3        15.9143    0.4580   -0.5412 C.2       1 RES1    0.0000
      4 C4        17.1094    0.5990    0.3793 C.3       1 RES1    0.0000
      5 C5        18.2616    1.3658   -0.2987 C.3       1 RES1    0.0000
      6 C6        18.5905    0.7937   -1.6994 C.3       1 RES1    0.0000
      7 C7        19.7435    1.5646   -2.4075 C.3       1 RES1    0.0000
      8 C8        20.9653    0.6845   -2.5816 C.3       1 RES1    0.0000
      9 C9        22.0930    1.2924   -3.4142 C.3       1 RES1    0.0000
     10 C10       22.5842    2.6346   -2.9129 C.3       1 RES1    0.0000
     11 O1        21.6338    1.3796   -4.7620 O.3       1 RES1    0.0000
     12 C11       16.7553    2.0690   -2.9585 C.3       1 RES1    0.0000
     13 C12       17.6777   -0.0896   -3.8920 C.3       1 RES1    0.0000
     14 C13       19.4958    1.3218    0.6145 C.3       1 RES1    0.0000
     15 O2        19.1744    1.9492    1.8280 O.3       1 RES1    0.0000
     16 N1        14.7841    0.8540   -0.0724 N.2       1 RES1    0.0000
     17 N2        13.7180    0.7554   -0.9653 N.3       1 RES1    0.0000
     18 C14       12.4599    0.9420   -0.5038 C.ar      1 RES1    0.0000
     19 C15       11.3272    1.0292   -1.3527 C.ar      1 RES1    0.0000
     20 C16       10.0470    1.2093   -0.8839 C.ar      1 RES1    0.0000
     21 C17        9.8678    1.3315    0.4566 C.ar      1 RES1    0.0000
     22 C18       10.9322    1.2778    1.3567 C.ar      1 RES1    0.0000
     23 C19       12.1969    1.0854    0.8790 C.ar      1 RES1    0.0000
     24 N3        11.4654    0.9608   -2.8103 N.pl3     1 RES1    0.0000
     25 O3        12.5713    0.7391   -3.3084 O.2       1 RES1    0.0000
     26 O4        10.4677    1.1180   -3.4867 O.2       1 RES1    0.0000
     27 N4         8.5222    1.5418    0.9889 N.pl3     1 RES1    0.0000
     28 O5         8.3988    1.8686    2.1454 O.2       1 RES1    0.0000
     29 O6         7.5742    1.3063    0.2556 O.2       1 RES1    0.0000
     30 H1        15.3732   -0.2119   -2.4661 H         1 RES1    0.0000
     31 H2        16.5574   -1.0675   -1.6847 H         1 RES1    0.0000
     32 H3        17.4565   -0.3830    0.6267 H         1 RES1    0.0000
     33 H4        16.7859    1.1164    1.2697 H         1 RES1    0.0000
     34 H5        17.9961    2.4040   -0.4314 H         1 RES1    0.0000
     35 H6        18.9117   -0.2282   -1.5464 H         1 RES1    0.0000
     36 H7        19.9954    2.4284   -1.8231 H         1 RES1    0.0000
     37 H8        19.4379    1.8987   -3.3776 H         1 RES1    0.0000
     38 H9        20.6800   -0.2282   -3.0765 H         1 RES1    0.0000
     39 H10       21.3177    0.4482   -1.6115 H         1 RES1    0.0000
     40 H11       22.9815    0.6764   -3.3532 H         1 RES1    0.0000
     41 H12       23.3924    2.9825   -3.5648 H         1 RES1    0.0000
     42 H13       22.9327    2.5099   -1.9126 H         1 RES1    0.0000
     43 H14       21.7841    3.3411   -2.8811 H         1 RES1    0.0000
     44 H15       22.3089    1.7765   -5.3309 H         1 RES1    0.0000
     45 H16       17.5198    2.6484   -3.4753 H         1 RES1    0.0000
     46 H17       16.4099    2.5751   -2.0591 H         1 RES1    0.0000
     47 H18       15.9143    1.9313   -3.5892 H         1 RES1    0.0000
     48 H19       18.4484    0.4808   -4.4764 H         1 RES1    0.0000
     49 H20       16.7938   -0.1222   -4.4926 H         1 RES1    0.0000
     50 H21       18.0089   -1.0512   -3.6950 H         1 RES1    0.0000
     51 H22       20.3411    1.8172    0.1139 H         1 RES1    0.0000
     52 H23       19.7635    0.2934    0.7895 H         1 RES1    0.0000
     53 H24       19.9299    1.9150    2.3765 H         1 RES1    0.0000
     54 H25       13.9082    0.4319   -1.9045 H         1 RES1    0.0000
     55 H26        9.2165    1.2549   -1.5627 H         1 RES1    0.0000
     56 H27       10.7173    1.3527    2.4172 H         1 RES1    0.0000
     57 H28       13.0010    1.0594    1.5545 H         1 RES1    0.0000
@<TRIPOS>BOND
     1    1    2 1
     2    2    3 1
     3    3    4 1
     4    4    5 1
     5    5    6 1
     6    6    1 1
     7    7    6 1
     8    8    7 1
     9    9    8 1
    10   10    9 1
    11   11    9 1
    12   12    1 1
    13   13    1 1
    14   14    5 1
    15   15   14 1
    16   16    3 2
    17   17   16 1
    18   18   17 1
    19   19   18 ar
    20   20   19 ar
    21   21   20 ar
    22   22   21 ar
    23   23   18 ar
    24   24   19 1
    25   25   24 2
    26   26   24 2
    27   27   21 1
    28   28   27 2
    29   29   27 2
    30   30    2 1
    31   31    2 1
    32   32    4 1
    33   33    4 1
    34   34    5 1
    35   35    6 1
    36   36    7 1
    37   37    7 1
    38   38    8 1
    39   39    8 1
    40   40    9 1
    41   41   10 1
    42   42   10 1
    43   43   10 1
    44   44   11 1
    45   45   12 1
    46   46   12 1
    47   47   12 1
    48   48   13 1
    49   49   13 1
    50   50   13 1
    51   51   14 1
    52   52   14 1
    53   53   15 1
    54   54   17 1
    55   55   20 1
    56   56   22 1
    57   57   23 1
    58   22   23 ar
@<TRIPOS>SUBSTRUCTURE
     1 RES1 1

@<TRIPOS>CRYSIN
  15.6130    8.1490    8.1410  90.0000  91.3200  90.0000   4 1

