# MOL2 file generated by ConQuest
# Please check atom types

@<TRIPOS>MOLECULE
KOSJOR
    25    27     1
SMALL
NO_CHARGES
****
Generated from CSD

@<TRIPOS>ATOM
      1 O1         4.3072    1.6858    2.2181 O.3       1 RES1    0.0000
      2 O2         6.5206    0.1931    5.5687 O.3       1 RES1    0.0000
      3 N1         4.8172    2.3775    3.3762 N.2       1 RES1    0.0000
      4 C1         4.5271    0.2444    2.4452 C.3       1 RES1    0.0000
      5 C2         5.7350    0.2109    3.3524 C.3       1 RES1    0.0000
      6 C3         5.7685   -0.6227    4.6329 C.3       1 RES1    0.0000
      7 C4         6.1923    1.5991    5.3523 C.3       1 RES1    0.0000
      8 C5         5.6043    1.5735    3.9629 C.2       1 RES1    0.0000
      9 C6         7.4289    2.4347    5.5253 C.ar      1 RES1    0.0000
     10 C7         7.5564    3.2712    6.6263 C.ar      1 RES1    0.0000
     11 C8         8.7069    4.0437    6.7868 C.ar      1 RES1    0.0000
     12 C9         9.7172    3.9717    5.8315 C.ar      1 RES1    0.0000
     13 C10        9.5977    3.1382    4.7435 C.ar      1 RES1    0.0000
     14 C11        8.4567    2.3657    4.5889 C.ar      1 RES1    0.0000
     15 H1         4.6849   -0.2266    1.6230 H         1 RES1    0.0000
     16 H2         3.7718   -0.1468    2.8911 H         1 RES1    0.0000
     17 H3         6.5477    0.1182    2.8500 H         1 RES1    0.0000
     18 H4         4.8761   -0.7744    4.9504 H         1 RES1    0.0000
     19 H5         6.1971   -1.4701    4.4920 H         1 RES1    0.0000
     20 H6         5.5263    1.8829    5.9825 H         1 RES1    0.0000
     21 H7         6.8552    3.3008    7.2814 H         1 RES1    0.0000
     22 H8         8.7977    4.6349    7.5371 H         1 RES1    0.0000
     23 H9        10.5091    4.5077    5.9301 H         1 RES1    0.0000
     24 H10       10.3068    3.0879    4.0985 H         1 RES1    0.0000
     25 H11        8.3754    1.7775    3.8345 H         1 RES1    0.0000
@<TRIPOS>BOND
     1    1    3 1
     2    2    6 1
     3    3    8 2
     4    4    1 1
     5    5    4 1
     6    6    5 1
     7    7    2 1
     8    8    5 1
     9    9    7 1
    10   10    9 ar
    11   11   10 ar
    12   12   11 ar
    13   13   12 ar
    14   14    9 ar
    15   15    4 1
    16   16    4 1
    17   17    5 1
    18   18    6 1
    19   19    6 1
    20   20    7 1
    21   21   10 1
    22   22   11 1
    23   23   12 1
    24   24   13 1
    25   25   14 1
    26    7    8 1
    27   13   14 ar
@<TRIPOS>SUBSTRUCTURE
     1 RES1 1

@<TRIPOS>CRYSIN
  15.9350    9.8530    5.9450  90.0000  90.0000  90.0000  33 1

