# MOL2 file generated by ConQuest
# Please check atom types

@<TRIPOS>MOLECULE
KOSJUX
    25    27     1
SMALL
NO_CHARGES
****
Generated from CSD

@<TRIPOS>ATOM
      1 O1         5.6918    4.2752    8.0990 O.3       1 RES1    0.0000
      2 O2         8.4310    1.1128    7.3348 O.3       1 RES1    0.0000
      3 N1         8.0017    2.1918    6.4879 N.2       1 RES1    0.0000
      4 C1         7.0319    2.7278    7.0659 C.2       1 RES1    0.0000
      5 C2         6.3082    4.0152    6.8286 C.3       1 RES1    0.0000
      6 C3         6.3115    3.4385    9.1219 C.3       1 RES1    0.0000
      7 C4         6.6002    2.1460    8.3902 C.3       1 RES1    0.0000
      8 C5         7.8091    1.2980    8.6525 C.3       1 RES1    0.0000
      9 C6         5.4178    3.3700   10.3178 C.ar      1 RES1    0.0000
     10 C7         4.5117    4.3912   10.5990 C.ar      1 RES1    0.0000
     11 C8         3.7324    4.3314   11.7482 C.ar      1 RES1    0.0000
     12 C9         3.8598    3.2680   12.6241 C.ar      1 RES1    0.0000
     13 C10        4.7586    2.2682   12.3624 C.ar      1 RES1    0.0000
     14 C11        5.5433    2.3090   11.2109 C.ar      1 RES1    0.0000
     15 H1         6.9177    4.7165    6.5894 H         1 RES1    0.0000
     16 H2         5.6500    3.9212    6.1361 H         1 RES1    0.0000
     17 H3         7.1444    3.8373    9.3832 H         1 RES1    0.0000
     18 H4         5.8087    1.6105    8.2976 H         1 RES1    0.0000
     19 H5         8.4121    1.7416    9.2535 H         1 RES1    0.0000
     20 H6         7.5570    0.4531    9.0318 H         1 RES1    0.0000
     21 H7         4.4260    5.1359    9.9991 H         1 RES1    0.0000
     22 H8         3.1013    5.0306   11.9356 H         1 RES1    0.0000
     23 H9         3.3190    3.2316   13.4171 H         1 RES1    0.0000
     24 H10        4.8477    1.5345   12.9752 H         1 RES1    0.0000
     25 H11        6.1717    1.6048   11.0339 H         1 RES1    0.0000
@<TRIPOS>BOND
     1    1    5 1
     2    2    3 1
     3    3    4 2
     4    4    5 1
     5    5   15 1
     6    6    1 1
     7    7    4 1
     8    8    2 1
     9    9    6 1
    10   10    9 ar
    11   11   10 ar
    12   12   11 ar
    13   13   12 ar
    14   14    9 ar
    15   16    5 1
    16   17    6 1
    17   18    7 1
    18   19    8 1
    19   20    8 1
    20   21   10 1
    21   22   11 1
    22   23   12 1
    23   24   13 1
    24   25   14 1
    25    6    7 1
    26    7    8 1
    27   13   14 ar
@<TRIPOS>SUBSTRUCTURE
     1 RES1 1

@<TRIPOS>CRYSIN
   9.7910    5.6290   16.4690  90.0000  94.2200  90.0000 231 1

