# MOL2 file generated by ConQuest
# Please check atom types

@<TRIPOS>MOLECULE
KOTFUU
    32    34     1
SMALL
NO_CHARGES
****
Generated from CSD

@<TRIPOS>ATOM
      1 C1        -1.0554    5.6519    9.9484 C.3       1 RES1    0.0000
      2 C2        -1.7405    4.6135   10.7894 C.2       1 RES1    0.0000
      3 C3        -0.9045    3.6211   10.9670 C.2       1 RES1    0.0000
      4 C4         0.3676    3.9686   10.2475 C.3       1 RES1    0.0000
      5 C5         1.0199    5.1222   11.0309 C.3       1 RES1    0.0000
      6 C6         0.0434    6.2832   10.8316 C.3       1 RES1    0.0000
      7 C7        -0.2401    4.7234    9.0844 C.3       1 RES1    0.0000
      8 O1         0.7312    5.4876    8.3125 O.3       1 RES1    0.0000
      9 O2         0.9986    3.8639    6.8453 O.2       1 RES1    0.0000
     10 C8         1.2392    4.9558    7.2198 C.2       1 RES1    0.0000
     11 C9         2.1692    5.9000    6.5258 C.ar      1 RES1    0.0000
     12 C10        2.6873    5.5263    5.2924 C.ar      1 RES1    0.0000
     13 C11        3.5305    6.3816    4.6074 C.ar      1 RES1    0.0000
     14 C12        3.8559    7.5823    5.1838 C.ar      1 RES1    0.0000
     15 C13        3.3791    7.9728    6.4146 C.ar      1 RES1    0.0000
     16 C14        2.5150    7.1217    7.0830 C.ar      1 RES1    0.0000
     17 N1         4.7243    8.5235    4.4438 N.pl3     1 RES1    0.0000
     18 O3         5.0658    8.2073    3.3153 O.2       1 RES1    0.0000
     19 O4         5.0353    9.5682    4.9793 O.2       1 RES1    0.0000
     20 H1        -1.5602    6.2497    9.4653 H         1 RES1    0.0000
     21 H2        -2.5885    4.7328   11.1255 H         1 RES1    0.0000
     22 H3        -0.9577    2.8160   11.5140 H         1 RES1    0.0000
     23 H4         0.9740    3.2547   10.0328 H         1 RES1    0.0000
     24 H5         1.8156    5.3525   10.6603 H         1 RES1    0.0000
     25 H6         1.1546    4.8438   11.9447 H         1 RES1    0.0000
     26 H7         0.4879    7.0212   10.3523 H         1 RES1    0.0000
     27 H8        -0.3439    6.6203   11.6291 H         1 RES1    0.0000
     28 H9        -0.7750    4.2000    8.5157 H         1 RES1    0.0000
     29 H10        2.4602    4.6731    4.9141 H         1 RES1    0.0000
     30 H11        3.8810    6.1398    3.7473 H         1 RES1    0.0000
     31 H12        3.6402    8.8124    6.8006 H         1 RES1    0.0000
     32 H13        2.1531    7.3792    7.9329 H         1 RES1    0.0000
@<TRIPOS>BOND
     1    1    2 1
     2    2    3 2
     3    3    4 1
     4    4    5 1
     5    5    6 1
     6    6    1 1
     7    7    1 1
     8    8    7 1
     9    9   10 2
    10   10    8 1
    11   11   10 1
    12   12   11 ar
    13   13   12 ar
    14   14   13 ar
    15   15   14 ar
    16   16   11 ar
    17   17   14 1
    18   18   17 2
    19   19   17 2
    20   20    1 1
    21   21    2 1
    22   22    3 1
    23   23    4 1
    24   24    5 1
    25   25    5 1
    26   26    6 1
    27   27    6 1
    28   28    7 1
    29   29   12 1
    30   30   13 1
    31   31   15 1
    32   32   16 1
    33    4    7 1
    34   15   16 ar
@<TRIPOS>SUBSTRUCTURE
     1 RES1 1

@<TRIPOS>CRYSIN
   9.3638   10.4685   12.8270  90.0000  94.8750  90.0000  14 1

