# MOL2 file generated by ConQuest
# Please check atom types

@<TRIPOS>MOLECULE
KOTWAT
    39    42     1
SMALL
NO_CHARGES
****
Generated from CSD

@<TRIPOS>ATOM
      1 N1         4.7494    1.4535   18.8994 N.pl3     1 RES1    0.0000
      2 N2         4.5872    2.8201   18.7285 N.2       1 RES1    0.0000
      3 N3         4.9346   -0.0818   20.7569 N.ar      1 RES1    0.0000
      4 N4         5.0524    0.8526   24.3130 N.pl3     1 RES1    0.0000
      5 O1         5.6452    1.7013   24.9713 O.2       1 RES1    0.0000
      6 O2         4.6003   -0.1846   24.7870 O.2       1 RES1    0.0000
      7 C1         4.5666    3.3677   19.9276 C.2       1 RES1    0.0000
      8 C2         4.7308    2.3633   20.9370 C.ar      1 RES1    0.0000
      9 C3         4.7962    2.3386   22.3385 C.ar      1 RES1    0.0000
     10 C4         4.9134    1.0616   22.8731 C.ar      1 RES1    0.0000
     11 C5         4.9625   -0.0961   22.0797 C.ar      1 RES1    0.0000
     12 H1         5.0197   -0.9375   22.5184 H         1 RES1    0.0000
     13 C6         4.8208    1.1457   20.2292 C.ar      1 RES1    0.0000
     14 C7         4.8194    0.6146   17.7431 C.ar      1 RES1    0.0000
     15 C8         4.8521   -0.7694   17.8596 C.ar      1 RES1    0.0000
     16 H2         4.8358   -1.1828   18.7138 H         1 RES1    0.0000
     17 C9         4.9093   -1.5383   16.7038 C.ar      1 RES1    0.0000
     18 H3         4.9339   -2.4854   16.7754 H         1 RES1    0.0000
     19 C10        4.9311   -0.9497   15.4500 C.ar      1 RES1    0.0000
     20 H4         4.9652   -1.4880   14.6669 H         1 RES1    0.0000
     21 C11        4.9039    0.4253   15.3487 C.ar      1 RES1    0.0000
     22 H5         4.9257    0.8357   14.4916 H         1 RES1    0.0000
     23 C12        4.8432    1.2180   16.4906 C.ar      1 RES1    0.0000
     24 H6         4.8187    2.1639   16.4145 H         1 RES1    0.0000
     25 C13        4.3547    4.8421   20.0671 C.3       1 RES1    0.0000
     26 H7         4.1905    5.2325   19.1829 H         1 RES1    0.0000
     27 H8         5.1533    5.2507   20.4615 H         1 RES1    0.0000
     28 H9         3.5820    5.0072   20.6471 H         1 RES1    0.0000
     29 C14        4.7049    3.5850   23.1492 C.ar      1 RES1    0.0000
     30 C15        5.7379    4.5205   23.1144 C.ar      1 RES1    0.0000
     31 H10        6.5038    4.3640   22.5751 H         1 RES1    0.0000
     32 C16        5.6452    5.6800   23.8689 C.ar      1 RES1    0.0000
     33 H11        6.3539    6.3117   23.8537 H         1 RES1    0.0000
     34 C17        4.5237    5.9178   24.6422 C.ar      1 RES1    0.0000
     35 H12        4.4610    6.7187   25.1502 H         1 RES1    0.0000
     36 C18        3.4921    4.9969   24.6819 C.ar      1 RES1    0.0000
     37 H13        2.7228    5.1635   25.2121 H         1 RES1    0.0000
     38 C19        3.5895    3.8301   23.9416 C.ar      1 RES1    0.0000
     39 H14        2.8870    3.1922   23.9748 H         1 RES1    0.0000
@<TRIPOS>BOND
     1    1    2 1
     2    2    7 2
     3    3   11 ar
     4    4    5 2
     5    6    4 2
     6    7    8 1
     7    8    9 ar
     8    9   10 ar
     9   10    4 1
    10   11   10 ar
    11   12   11 1
    12   13    1 1
    13   14    1 1
    14   15   14 ar
    15   16   15 1
    16   17   15 ar
    17   18   17 1
    18   19   17 ar
    19   20   19 1
    20   21   19 ar
    21   22   21 1
    22   23   14 ar
    23   24   23 1
    24   25    7 1
    25   26   25 1
    26   27   25 1
    27   28   25 1
    28   29    9 1
    29   30   29 ar
    30   31   30 1
    31   32   30 ar
    32   33   32 1
    33   34   32 ar
    34   35   34 1
    35   36   34 ar
    36   37   36 1
    37   38   29 ar
    38   39   38 1
    39    3   13 ar
    40    8   13 ar
    41   21   23 ar
    42   36   38 ar
@<TRIPOS>SUBSTRUCTURE
     1 RES1 1

@<TRIPOS>CRYSIN
   6.8138   18.1684   25.7766  90.0000  90.0000  90.0000  61 1

