# MOL2 file generated by ConQuest
# Please check atom types

@<TRIPOS>MOLECULE
KOTWIB
    41    44     1
SMALL
NO_CHARGES
****
Generated from CSD

@<TRIPOS>ATOM
      1 N1         4.4242    0.8413    2.7787 N.pl3     1 RES1    0.0000
      2 N2         3.5574    1.2400    1.7846 N.2       1 RES1    0.0000
      3 N3         4.7175   -1.0754    4.2129 N.ar      1 RES1    0.0000
      4 N4         2.8235   -4.2217    3.9719 N.pl3     1 RES1    0.0000
      5 C1         1.4386   -2.8977    0.4826 C.ar      1 RES1    0.0000
      6 H1         2.2071   -2.6545   -0.0198 H         1 RES1    0.0000
      7 C2         2.5629   -2.1699    2.6116 C.ar      1 RES1    0.0000
      8 C3         3.0617   -0.8808    2.3884 C.ar      1 RES1    0.0000
      9 C4         3.1755   -2.8356    3.6613 C.ar      1 RES1    0.0000
     10 C5         1.4093   -2.7379    1.8621 C.ar      1 RES1    0.0000
     11 N5         0.3550   -3.0794    2.6169 N.ar      1 RES1    0.0000
     12 C6         4.1390   -0.4263    3.1888 C.ar      1 RES1    0.0000
     13 C7         4.1960   -2.2746    4.4458 C.ar      1 RES1    0.0000
     14 H2         4.5300   -2.7778    5.1791 H         1 RES1    0.0000
     15 C8         2.7402    0.2318    1.5467 C.2       1 RES1    0.0000
     16 C9         0.3172   -3.4212   -0.1423 C.ar      1 RES1    0.0000
     17 H3         0.3144   -3.5471   -1.0842 H         1 RES1    0.0000
     18 C10       -0.7130   -3.5736    1.9805 C.ar      1 RES1    0.0000
     19 H4        -1.4663   -3.8135    2.5066 H         1 RES1    0.0000
     20 C11       -0.8020   -3.7623    0.6071 C.ar      1 RES1    0.0000
     21 C12        5.4477    1.7356    3.2105 C.ar      1 RES1    0.0000
     22 C13        5.1306    3.0833    3.3719 C.ar      1 RES1    0.0000
     23 H5         4.2492    3.3966    3.2089 H         1 RES1    0.0000
     24 C14        6.7246    1.2635    3.4448 C.ar      1 RES1    0.0000
     25 H6         6.9239    0.3402    3.3404 H         1 RES1    0.0000
     26 C15        1.6537    0.3889    0.5378 C.3       1 RES1    0.0000
     27 H7         1.7104    1.2794    0.1325 H         1 RES1    0.0000
     28 H8         0.7833    0.2848    0.9757 H         1 RES1    0.0000
     29 H9         1.7529   -0.2930   -0.1586 H         1 RES1    0.0000
     30 C16        6.1287    3.9559    3.7749 C.ar      1 RES1    0.0000
     31 H10        5.9262    4.8754    3.9008 H         1 RES1    0.0000
     32 C17       -2.0651   -4.2873   -0.0206 C.3       1 RES1    0.0000
     33 H11       -2.6620   -4.6250    0.6793 H         1 RES1    0.0000
     34 H12       -1.8443   -5.0131   -0.6407 H         1 RES1    0.0000
     35 H13       -2.5113   -3.5643   -0.5103 H         1 RES1    0.0000
     36 C18        7.7173    2.1603    3.8365 C.ar      1 RES1    0.0000
     37 H14        8.6010    1.8497    3.9936 H         1 RES1    0.0000
     38 C19        7.4193    3.5011    3.9967 C.ar      1 RES1    0.0000
     39 H15        8.0988    4.1106    4.2587 H         1 RES1    0.0000
     40 O1         2.7595   -5.0142    3.0397 O.2       1 RES1    0.0000
     41 O2         2.6534   -4.5219    5.1444 O.2       1 RES1    0.0000
@<TRIPOS>BOND
     1    1    2 1
     2    2   15 2
     3    3   12 ar
     4    4    9 1
     5    5    6 1
     6    7    8 ar
     7    8   12 ar
     8    9    7 ar
     9   10    5 ar
    10   11   10 ar
    11   12    1 1
    12   13    3 ar
    13   14   13 1
    14   15    8 1
    15   16    5 ar
    16   17   16 1
    17   18   11 ar
    18   19   18 1
    19   20   16 ar
    20   21    1 1
    21   22   21 ar
    22   23   22 1
    23   24   21 ar
    24   25   24 1
    25   26   15 1
    26   27   26 1
    27   28   26 1
    28   29   26 1
    29   30   22 ar
    30   31   30 1
    31   32   20 1
    32   33   32 1
    33   34   32 1
    34   35   32 1
    35   36   24 ar
    36   37   36 1
    37   38   30 ar
    38   39   38 1
    39   40    4 2
    40   41    4 2
    41    7   10 1
    42    9   13 ar
    43   18   20 ar
    44   36   38 ar
@<TRIPOS>SUBSTRUCTURE
     1 RES1 1

@<TRIPOS>CRYSIN
   7.2260   10.7957   11.9938 114.8690 104.5920  90.7070   2 1

