# MOL2 file generated by ConQuest
# Please check atom types

@<TRIPOS>MOLECULE
KOTXEY
    45    47     1
SMALL
NO_CHARGES
****
Generated from CSD

@<TRIPOS>ATOM
      1 N1         0.1426    2.4106    7.1403 N.3       1 RES1    0.0000
      2 N2        -1.1661    0.3726    7.1205 N.ar      1 RES1    0.0000
      3 N3        -0.4019   -2.7597    8.9165 N.pl3     1 RES1    0.0000
      4 N4         4.0362    1.6785    9.7913 N.1       1 RES1    0.0000
      5 O1        -1.2387   -3.4667    8.3678 O.2       1 RES1    0.0000
      6 O2         0.2778   -3.1248    9.8671 O.2       1 RES1    0.0000
      7 O3         4.9837    7.0831    5.3820 O.2       1 RES1    0.0000
      8 C1         1.3370    2.7847    7.7408 C.2       1 RES1    0.0000
      9 C2         1.8349    1.7307    8.4683 C.2       1 RES1    0.0000
     10 C3         0.9374    0.6330    8.3394 C.ar      1 RES1    0.0000
     11 C4         0.8757   -0.6694    8.8263 C.ar      1 RES1    0.0000
     12 H1         1.5464   -1.0327    9.3924 H         1 RES1    0.0000
     13 C5        -0.2255   -1.3955    8.4303 C.ar      1 RES1    0.0000
     14 C6        -1.2084   -0.8686    7.5954 C.ar      1 RES1    0.0000
     15 H2        -1.9422   -1.4211    7.3536 H         1 RES1    0.0000
     16 C7        -0.1039    1.0943    7.5011 C.ar      1 RES1    0.0000
     17 C8        -0.8667    3.2215    6.3476 C.3       1 RES1    0.0000
     18 C9        -2.1790    3.2422    7.1269 C.3       1 RES1    0.0000
     19 H3        -2.4655    2.3233    7.3076 H         1 RES1    0.0000
     20 H4        -2.8660    3.6998    6.5980 H         1 RES1    0.0000
     21 H5        -2.0481    3.7168    7.9732 H         1 RES1    0.0000
     22 C10       -1.0192    2.5651    4.9796 C.3       1 RES1    0.0000
     23 H6        -0.1378    2.4729    4.5613 H         1 RES1    0.0000
     24 H7        -1.5935    3.1214    4.4134 H         1 RES1    0.0000
     25 H8        -1.4255    1.6790    5.0850 H         1 RES1    0.0000
     26 C11       -0.4136    4.6595    6.1395 C.3       1 RES1    0.0000
     27 H9        -0.2544    5.0806    7.0098 H         1 RES1    0.0000
     28 H10       -1.1090    5.1549    5.6586 H         1 RES1    0.0000
     29 H11        0.4144    4.6688    5.6166 H         1 RES1    0.0000
     30 C12        3.0591    1.7259    9.1989 C.1       1 RES1    0.0000
     31 C13        2.0368    4.0935    7.6576 C.ar      1 RES1    0.0000
     32 C14        2.0752    4.9022    8.7837 C.ar      1 RES1    0.0000
     33 H12        1.5926    4.6518    9.5623 H         1 RES1    0.0000
     34 C15        2.8196    6.0806    8.7759 C.ar      1 RES1    0.0000
     35 H13        2.8400    6.6344    9.5483 H         1 RES1    0.0000
     36 C16        3.5253    6.4423    7.6524 C.ar      1 RES1    0.0000
     37 H14        4.0306    7.2468    7.6534 H         1 RES1    0.0000
     38 C17        3.5073    5.6439    6.5129 C.ar      1 RES1    0.0000
     39 C18        2.7636    4.4554    6.5243 C.ar      1 RES1    0.0000
     40 H15        2.7549    3.8951    5.7565 H         1 RES1    0.0000
     41 C19        4.3039    6.0598    5.3282 C.2       1 RES1    0.0000
     42 C20        4.2622    5.2451    4.0863 C.3       1 RES1    0.0000
     43 H16        3.4074    5.3894    3.6298 H         1 RES1    0.0000
     44 H17        4.3547    4.2973    4.3154 H         1 RES1    0.0000
     45 H18        4.9968    5.5125    3.4959 H         1 RES1    0.0000
@<TRIPOS>BOND
     1    1    8 1
     2    2   14 ar
     3    3    5 2
     4    4   30 3
     5    6    3 2
     6    7   41 2
     7    8    9 2
     8    9   10 1
     9   10   11 ar
    10   11   12 1
    11   13    3 1
    12   14   13 ar
    13   15   14 1
    14   16    1 1
    15   17    1 1
    16   18   17 1
    17   19   18 1
    18   20   18 1
    19   21   18 1
    20   22   17 1
    21   23   22 1
    22   24   22 1
    23   25   22 1
    24   26   17 1
    25   27   26 1
    26   28   26 1
    27   29   26 1
    28   30    9 1
    29   31    8 1
    30   32   31 ar
    31   33   32 1
    32   34   32 ar
    33   35   34 1
    34   36   34 ar
    35   37   36 1
    36   38   36 ar
    37   39   31 ar
    38   40   39 1
    39   41   38 1
    40   42   41 1
    41   43   42 1
    42   44   42 1
    43   45   42 1
    44    2   16 ar
    45   10   16 ar
    46   11   13 ar
    47   38   39 ar
@<TRIPOS>SUBSTRUCTURE
     1 RES1 1

@<TRIPOS>CRYSIN
   8.3921   10.6133   19.9941  90.0000  91.4140  90.0000  14 1

