# MOL2 file generated by ConQuest
# Please check atom types

@<TRIPOS>MOLECULE
KOVBOM
    53    54     2
SMALL
NO_CHARGES
****
Generated from CSD

@<TRIPOS>ATOM
      1 O1         4.5726    0.6155   17.5861 O.3       1 RES1    0.0000
      2 O2         6.1492    4.7880   15.4565 O.3       1 RES1    0.0000
      3 O3         3.4358    4.0074   13.8953 O.3       1 RES1    0.0000
      4 O4         5.0611    6.9684   11.8622 O.3       1 RES1    0.0000
      5 O5         3.5235    5.7629   10.8274 O.3       1 RES1    0.0000
      6 N1         6.4542    5.0175   14.0986 N.2       1 RES1    0.0000
      7 C1         4.1054    1.9096   17.5105 C.ar      1 RES1    0.0000
      8 C2         4.6477    2.8250   16.6946 C.ar      1 RES1    0.0000
      9 C3         4.1467    4.1470   16.6399 C.ar      1 RES1    0.0000
     10 C4         3.0895    4.4942   17.4323 C.ar      1 RES1    0.0000
     11 C5         2.4875    3.5497   18.2794 C.ar      1 RES1    0.0000
     12 C6         1.3530    3.8642   19.0744 C.ar      1 RES1    0.0000
     13 C7         0.7625    2.9197   19.8511 C.ar      1 RES1    0.0000
     14 C8         1.2555    1.6013   19.8824 C.ar      1 RES1    0.0000
     15 C9         2.3454    1.2541   19.1473 C.ar      1 RES1    0.0000
     16 C10        2.9857    2.2204   18.3263 C.ar      1 RES1    0.0000
     17 C11        5.3948    5.2724   13.4495 C.2       1 RES1    0.0000
     18 C12        4.1278    5.1838   14.2706 C.3       1 RES1    0.0000
     19 C13        4.7504    5.1316   15.6885 C.3       1 RES1    0.0000
     20 C14        5.4785    5.6135   11.9951 C.3       1 RES1    0.0000
     21 C15        4.5256    4.8499   11.0854 C.3       1 RES1    0.0000
     22 C16        4.1748    7.1092   10.7961 C.3       1 RES1    0.0000
     23 C17        4.8731    7.6761    9.6128 C.3       1 RES1    0.0000
     24 C18        5.2916    9.1256    9.8474 C.3       1 RES1    0.0000
     25 C19        4.1335    9.9730   10.2253 C.3       1 RES1    0.0000
     26 C20        3.4111    9.4012   11.4217 C.3       1 RES1    0.0000
     27 C21        3.0098    7.9541   11.2027 C.3       1 RES1    0.0000
     28 O6         4.0360    5.8357   10.1158 Du        2 SUP2    0.0000
     29 H1         5.2170    0.4977   16.9683 H         1 RES1    0.0000
     30 H2         2.5569    4.1883   13.9187 H         1 RES1    0.0000
     31 H3         5.4234    2.5615   16.1082 H         1 RES1    0.0000
     32 H4         2.7404    5.4387   17.4114 H         1 RES1    0.0000
     33 H5         0.9861    4.7953   19.0796 H         1 RES1    0.0000
     34 H6        -0.0344    3.1564   20.4089 H         1 RES1    0.0000
     35 H7         0.8026    0.9105   20.4350 H         1 RES1    0.0000
     36 H8         2.6945    0.3156   19.1838 H         1 RES1    0.0000
     37 H9         3.4513    5.9122   14.1794 H         1 RES1    0.0000
     38 H10        4.5979    6.0214   16.1342 H         1 RES1    0.0000
     39 H11        6.4152    5.3902   11.7293 H         1 RES1    0.0000
     40 H12        4.1564    4.0426   11.5468 H         1 RES1    0.0000
     41 H13        4.9877    4.5646   10.2435 H         1 RES1    0.0000
     42 H14        4.2539    7.6361    8.8100 H         1 RES1    0.0000
     43 H15        5.6871    7.1262    9.4095 H         1 RES1    0.0000
     44 H16        5.6871    9.4813    8.9924 H         1 RES1    0.0000
     45 H17        5.9623    9.1536   10.5824 H         1 RES1    0.0000
     46 H18        3.4971   10.0519    9.4616 H         1 RES1    0.0000
     47 H19        4.4660   10.9017   10.4521 H         1 RES1    0.0000
     48 H20        2.5799    9.9548   11.5729 H         1 RES1    0.0000
     49 H21        4.0074    9.4692   12.2245 H         1 RES1    0.0000
     50 H22        2.6372    7.5996   12.0681 H         1 RES1    0.0000
     51 H23        2.3161    7.9153   10.4781 H         1 RES1    0.0000
     52 H24        3.7608    4.4797   11.5989 Du        2 SUP2    0.0000
     53 H25        5.0049    4.1033   10.6345 Du        2 SUP2    0.0000
@<TRIPOS>BOND
     1    1    7 1
     2    2    6 1
     3    3   18 1
     4    4   20 1
     5    5   21 1
     6    6   17 2
     7    7    8 ar
     8    8    9 ar
     9    9   10 ar
    10   10   11 ar
    11   11   12 ar
    12   12   13 ar
    13   13   14 ar
    14   14   15 ar
    15   15   16 ar
    16   16    7 ar
    17   17   18 1
    18   18   19 1
    19   19    2 1
    20   20   17 1
    21   21   20 1
    22   22    4 1
    23   23   22 1
    24   24   23 1
    25   25   24 1
    26   26   25 1
    27   27   22 1
    28   29    1 1
    29   30    3 1
    30   31    8 1
    31   32   10 1
    32   33   12 1
    33   34   13 1
    34   35   14 1
    35   36   15 1
    36   37   18 1
    37   38   19 1
    38   39   20 1
    39   40   21 1
    40   41   21 1
    41   42   23 1
    42   43   23 1
    43   44   24 1
    44   45   24 1
    45   46   25 1
    46   47   25 1
    47   48   26 1
    48   49   26 1
    49   50   27 1
    50   51   27 1
    51    5   22 1
    52    9   19 1
    53   11   16 ar
    54   26   27 1
@<TRIPOS>SUBSTRUCTURE
     1 RES1 1
     2 SUP2 28

@<TRIPOS>CRYSIN
   5.7330   12.1400   26.0650  90.0000  90.0000  90.0000  19 1

