# MOL2 file generated by ConQuest
# Please check atom types

@<TRIPOS>MOLECULE
KOVGUX
    34    35     1
SMALL
NO_CHARGES
****
Generated from CSD

@<TRIPOS>ATOM
      1 C1         3.7409    2.9990    1.7866 C.2       1 RES1    0.0000
      2 C2         4.3924    4.2895    1.9126 C.2       1 RES1    0.0000
      3 N1         2.7843    2.8660    0.7763 N.pl3     1 RES1    0.0000
      4 O1         2.0132    1.9117    0.7519 O.2       1 RES1    0.0000
      5 O2         2.8018    3.7521   -0.0861 O.2       1 RES1    0.0000
      6 N2         4.0156    2.0437    2.6619 N.pl3     1 RES1    0.0000
      7 O3         3.5175    0.8904    2.6516 O.2       1 RES1    0.0000
      8 O4         4.8756    2.3307    3.5591 O.2       1 RES1    0.0000
      9 N3         3.7175    5.3297    2.3689 N.3       1 RES1    0.0000
     10 C3         2.3217    5.2354    2.7737 C.ar      1 RES1    0.0000
     11 C4         1.9792    4.4582    3.8509 C.ar      1 RES1    0.0000
     12 C5         0.6451    4.4026    4.2365 C.ar      1 RES1    0.0000
     13 C6        -0.2947    5.1254    3.5822 C.ar      1 RES1    0.0000
     14 C7         0.0582    5.8932    2.5090 C.ar      1 RES1    0.0000
     15 C8         1.3878    5.9488    2.0925 C.ar      1 RES1    0.0000
     16 N4         5.6892    4.4665    1.6311 N.3       1 RES1    0.0000
     17 C9         6.5417    3.4452    1.0810 C.ar      1 RES1    0.0000
     18 C10        6.1438    2.6502    0.0578 C.ar      1 RES1    0.0000
     19 C11        7.0032    1.6750   -0.4280 C.ar      1 RES1    0.0000
     20 C12        8.2598    1.5681    0.0900 C.ar      1 RES1    0.0000
     21 C13        8.6807    2.3988    1.0733 C.ar      1 RES1    0.0000
     22 C14        7.8207    3.3771    1.5874 C.ar      1 RES1    0.0000
     23 H1         4.0573    6.2096    2.3753 H         1 RES1    0.0000
     24 H2         2.6476    3.9627    4.3303 H         1 RES1    0.0000
     25 H3         0.3857    3.8454    4.9742 H         1 RES1    0.0000
     26 H4        -1.2095    5.0982    3.8727 H         1 RES1    0.0000
     27 H5        -0.6115    6.3950    2.0398 H         1 RES1    0.0000
     28 H6         1.6392    6.4830    1.3355 H         1 RES1    0.0000
     29 H7         6.0417    5.3538    1.9473 H         1 RES1    0.0000
     30 H8         5.2726    2.7612   -0.3290 H         1 RES1    0.0000
     31 H9         6.7147    1.0789   -1.1234 H         1 RES1    0.0000
     32 H10        8.8559    0.8956   -0.2481 H         1 RES1    0.0000
     33 H11        9.5729    2.3171    1.4190 H         1 RES1    0.0000
     34 H12        8.1136    3.9815    2.2738 H         1 RES1    0.0000
@<TRIPOS>BOND
     1    1    2 2
     2    2    9 1
     3    3    1 1
     4    4    3 2
     5    5    3 2
     6    6    1 1
     7    7    6 2
     8    8    6 2
     9    9   10 1
    10   10   11 ar
    11   11   12 ar
    12   12   13 ar
    13   13   14 ar
    14   14   15 ar
    15   15   10 ar
    16   16    2 1
    17   17   16 1
    18   18   17 ar
    19   19   18 ar
    20   20   19 ar
    21   21   20 ar
    22   22   17 ar
    23   23    9 1
    24   24   11 1
    25   25   12 1
    26   26   13 1
    27   27   14 1
    28   28   15 1
    29   29   16 1
    30   30   18 1
    31   31   19 1
    32   32   20 1
    33   33   21 1
    34   34   22 1
    35   21   22 ar
@<TRIPOS>SUBSTRUCTURE
     1 RES1 1

@<TRIPOS>CRYSIN
  10.5570   10.4750   12.8570  90.0000  91.3700  90.0000  14 1

