# MOL2 file generated by ConQuest
# Please check atom types

@<TRIPOS>MOLECULE
KOVGOR
    41    31     2
SMALL
NO_CHARGES
****
Generated from CSD

@<TRIPOS>ATOM
      1 C1         3.7736   -0.1880    2.3736 C.2       1 RES1    0.0000
      2 C2         5.2004    0.1156    2.1417 C.2       1 RES1    0.0000
      3 N1         3.1223    0.4350    3.4525 N.pl3     1 RES1    0.0000
      4 O1         1.9350    0.2864    3.7295 O.2       1 RES1    0.0000
      5 O2         3.8669    1.1536    4.1470 O.2       1 RES1    0.0000
      6 N2         3.1026   -1.0144    1.4823 N.pl3     1 RES1    0.0000
      7 O3         3.7939   -1.4290    0.5259 O.2       1 RES1    0.0000
      8 O4         1.9000   -1.2959    1.6098 O.2       1 RES1    0.0000
      9 N3         6.1005   -0.5955    2.7740 N.3       1 RES1    0.0000
     10 C3         5.8611   -1.7008    3.6662 C.3       1 RES1    0.0000
     11 C4         6.0354   -3.0326    3.0911 C.3       1 RES1    0.0000
     12 C5         5.8435   -4.1456    4.0687 C.3       1 RES1    0.0000
     13 N4         5.4706    1.0941    1.3730 N.3       1 RES1    0.0000
     14 C6         6.7795    1.6484    1.0458 C.3       1 RES1    0.0000
     15 C7         7.2230    2.7717    1.7363 C.3       1 RES1    0.0000
     16 C8         6.4345    3.9375    1.8306 C.3       1 RES1    0.0000
     17 C9         6.5680    3.0536    0.7116 Du        2 SUP2    0.0000
     18 C10        7.7204    3.8553    0.9795 Du        2 SUP2    0.0000
     19 H1         6.7791   -0.3265    2.4368 H         1 RES1    0.0000
     20 H2         6.4702   -1.6168    4.4039 H         1 RES1    0.0000
     21 H3         4.9588   -1.6314    3.9874 H         1 RES1    0.0000
     22 H4         5.3966   -3.1398    2.3816 H         1 RES1    0.0000
     23 H5         6.9238   -3.0947    2.7329 H         1 RES1    0.0000
     24 H6         5.9712   -4.9861    3.6231 H         1 RES1    0.0000
     25 H7         4.9551   -4.1068    4.4300 H         1 RES1    0.0000
     26 H8         6.4823   -4.0617    4.7812 H         1 RES1    0.0000
     27 H9         4.8931    1.6001    0.9183 H         1 RES1    0.0000
     28 H10        6.7902    1.8202    0.1014 H         1 RES1    0.0000
     29 H11        7.4229    0.9554    1.2104 H         1 RES1    0.0000
     30 H12        7.1059    1.2677    0.2268 Du        2 SUP2    0.0000
     31 H13        7.4068    1.4543    1.7463 Du        2 SUP2    0.0000
     32 H14        8.0249    3.0443    1.2846 H         1 RES1    0.0000
     33 H15        7.4764    2.5235    2.6285 H         1 RES1    0.0000
     34 H16        6.1972    4.2376    0.9504 H         1 RES1    0.0000
     35 H17        5.6392    3.7084    2.3164 H         1 RES1    0.0000
     36 H18        6.9020    4.6372    2.2923 H         1 RES1    0.0000
     37 H19        5.9721    3.3570    1.4011 Du        2 SUP2    0.0000
     38 H20        6.1457    3.2277   -0.1325 Du        2 SUP2    0.0000
     39 H21        7.5120    4.7875    0.8772 Du        2 SUP2    0.0000
     40 H22        8.1413    3.7133    1.8306 Du        2 SUP2    0.0000
     41 H23        8.3168    3.5824    0.2780 Du        2 SUP2    0.0000
@<TRIPOS>BOND
     1    1    2 2
     2    2    9 1
     3    3    1 1
     4    4    3 2
     5    5    3 2
     6    6    1 1
     7    7    6 2
     8    8    6 2
     9    9   10 1
    10   10   11 1
    11   11   12 1
    12   12   24 1
    13   13    2 1
    14   14   13 1
    15   15   14 1
    16   16   15 1
    17   19    9 1
    18   20   10 1
    19   21   10 1
    20   22   11 1
    21   23   11 1
    22   25   12 1
    23   26   12 1
    24   27   13 1
    25   28   14 1
    26   29   14 1
    27   32   15 1
    28   33   15 1
    29   34   16 1
    30   35   16 1
    31   36   16 1
@<TRIPOS>SUBSTRUCTURE
     1 RES1 1
     2 SUP2 17

@<TRIPOS>CRYSIN
   6.8000    9.2860   10.1550  93.5100  96.6100 107.3300   2 1

