# MOL2 file generated by ConQuest
# Please check atom types

@<TRIPOS>MOLECULE
KOVGIL
    26    25     1
SMALL
NO_CHARGES
****
Generated from CSD

@<TRIPOS>ATOM
      1 C1        -2.3525    1.9104    4.5949 C.2       1 RES1    0.0000
      2 C2        -3.6212    2.2204    5.1870 C.2       1 RES1    0.0000
      3 N1        -1.3475    1.3267    5.3665 N.pl3     1 RES1    0.0000
      4 O1        -1.5199    1.3717    6.6039 O.2       1 RES1    0.0000
      5 O2        -0.3582    0.7863    4.8729 O.2       1 RES1    0.0000
      6 N2        -2.1159    2.1979    3.2450 N.pl3     1 RES1    0.0000
      7 O3        -3.1118    2.4837    2.5581 O.2       1 RES1    0.0000
      8 O4        -0.9826    2.2031    2.7753 O.2       1 RES1    0.0000
      9 N3        -4.2836    1.2955    5.8739 N.3       1 RES1    0.0000
     10 C3        -4.0301   -0.1316    5.6783 C.3       1 RES1    0.0000
     11 C4        -5.0957    1.6142    7.0436 C.3       1 RES1    0.0000
     12 N4        -4.1376    3.4501    5.0669 N.3       1 RES1    0.0000
     13 C5        -3.3164    4.6019    4.7335 C.3       1 RES1    0.0000
     14 C6        -5.5811    3.6441    4.9029 C.3       1 RES1    0.0000
     15 H1        -4.8833   -0.5733    5.6953 H         1 RES1    0.0000
     16 H2        -3.4766   -0.4798    6.3814 H         1 RES1    0.0000
     17 H3        -3.6070   -0.2875    4.8313 H         1 RES1    0.0000
     18 H4        -4.7874    1.0375    7.7475 H         1 RES1    0.0000
     19 H5        -6.0353    1.4757    6.9058 H         1 RES1    0.0000
     20 H6        -4.9395    2.5287    7.2885 H         1 RES1    0.0000
     21 H7        -3.6152    5.3536    5.2486 H         1 RES1    0.0000
     22 H8        -3.3781    4.8098    3.7986 H         1 RES1    0.0000
     23 H9        -2.4043    4.4010    4.9576 H         1 RES1    0.0000
     24 H10       -5.6918    4.1637    4.1036 H         1 RES1    0.0000
     25 H11       -5.9284    4.1326    5.6529 H         1 RES1    0.0000
     26 H12       -6.0561    2.8145    4.8120 H         1 RES1    0.0000
@<TRIPOS>BOND
     1    1    2 2
     2    2    9 1
     3    3    1 1
     4    4    3 2
     5    5    3 2
     6    6    1 1
     7    7    6 2
     8    8    6 2
     9    9   10 1
    10   10   15 1
    11   11    9 1
    12   12    2 1
    13   13   12 1
    14   14   12 1
    15   16   10 1
    16   17   10 1
    17   18   11 1
    18   19   11 1
    19   20   11 1
    20   21   13 1
    21   22   13 1
    22   23   13 1
    23   24   14 1
    24   25   14 1
    25   26   14 1
@<TRIPOS>SUBSTRUCTURE
     1 RES1 1

@<TRIPOS>CRYSIN
   7.2010   17.3200    8.1220  90.0000 108.5400  90.0000 231 1

