# MOL2 file generated by ConQuest
# Please check atom types

@<TRIPOS>MOLECULE
KOVHAE01
    18    18     1
SMALL
NO_CHARGES
****
Generated from CSD

@<TRIPOS>ATOM
      1 N1         6.5361    3.1562    1.3572 N.pl3     1 RES1    0.0000
      2 N2         6.9961    6.0518    1.2558 N.3       1 RES1    0.0000
      3 N3         9.0267    5.7852    0.5508 N.3       1 RES1    0.0000
      4 O1         6.3504    1.9560    1.3036 O.2       1 RES1    0.0000
      5 C1         7.9180    5.1578    0.9298 C.2       1 RES1    0.0000
      6 N4         8.8326    2.8759    0.6859 N.pl3     1 RES1    0.0000
      7 O2         5.6372    3.9054    1.7383 O.2       1 RES1    0.0000
      8 C2         7.7628    3.7365    0.9819 C.2       1 RES1    0.0000
      9 O3         9.8428    3.3661    0.1873 O.2       1 RES1    0.0000
     10 O4         8.7933    1.6853    0.8996 O.2       1 RES1    0.0000
     11 C3         7.4492    7.4259    1.0362 C.3       1 RES1    0.0000
     12 C4         8.9129    7.2322    0.6933 C.3       1 RES1    0.0000
     13 H1         6.9931    7.8091    0.3011 H         1 RES1    0.0000
     14 H2         9.7324    5.3918    0.3158 H         1 RES1    0.0000
     15 H3         9.4549    7.5862    1.4247 H         1 RES1    0.0000
     16 H4         7.2763    7.9891    1.7993 H         1 RES1    0.0000
     17 H5         9.2670    7.7234   -0.0441 H         1 RES1    0.0000
     18 H6         6.2188    5.9061    1.5202 H         1 RES1    0.0000
@<TRIPOS>BOND
     1    1    4 2
     2    2    5 1
     3    3    5 1
     4    5    8 2
     5    6    8 1
     6    7    1 2
     7    8    1 1
     8    9    6 2
     9   10    6 2
    10   11    2 1
    11   12    3 1
    12   13   11 1
    13   14    3 1
    14   15   12 1
    15   16   11 1
    16   17   12 1
    17   18    2 1
    18   11   12 1
@<TRIPOS>SUBSTRUCTURE
     1 RES1 1

@<TRIPOS>CRYSIN
  21.7070    8.5720    7.4310  90.0000  98.7760  90.0000  15 1

