# MOL2 file generated by ConQuest
# Please check atom types

@<TRIPOS>MOLECULE
KOVHIM01
    24    24     1
SMALL
NO_CHARGES
****
Generated from CSD

@<TRIPOS>ATOM
      1 N1         4.1309    1.4896    3.9545 N.pl3     1 RES1    0.0000
      2 N2         3.8869    2.4489    6.7259 N.3       1 RES1    0.0000
      3 H1         3.2863    2.9292    6.3403 H         1 RES1    0.0000
      4 O1         3.5300    0.6130    4.6123 O.2       1 RES1    0.0000
      5 O2         3.9237    1.6352    2.7507 O.2       1 RES1    0.0000
      6 C1         5.0265    2.2960    4.6429 C.2       1 RES1    0.0000
      7 C2         5.0265    2.2960    6.0977 C.2       1 RES1    0.0000
      8 C3         3.5477    1.8703    8.0299 C.3       1 RES1    0.0000
      9 H2         3.7307    0.9179    8.0008 H         1 RES1    0.0000
     10 H3         2.5957    1.9805    8.1774 H         1 RES1    0.0000
     11 C4         4.2886    2.4645    9.2081 C.3       1 RES1    0.0000
     12 H4         3.8895    2.1366   10.0291 H         1 RES1    0.0000
     13 H5         4.1841    3.4288    9.1926 H         1 RES1    0.0000
     14 N1A        5.9221    3.1023    3.9545 N.pl3     1 RES1    0.0000
     15 N2A        6.1661    2.1430    6.7259 N.3       1 RES1    0.0000
     16 H1A        6.7667    1.6627    6.3403 H         1 RES1    0.0000
     17 O1A        6.5230    3.9789    4.6123 O.2       1 RES1    0.0000
     18 O2A        6.1293    2.9567    2.7507 O.2       1 RES1    0.0000
     19 C3A        6.5053    2.7216    8.0299 C.3       1 RES1    0.0000
     20 H2A        6.3223    3.6740    8.0008 H         1 RES1    0.0000
     21 H3A        7.4573    2.6114    8.1774 H         1 RES1    0.0000
     22 C4A        5.7644    2.1274    9.2081 C.3       1 RES1    0.0000
     23 H4A        6.1635    2.4553   10.0291 H         1 RES1    0.0000
     24 H5A        5.8689    1.1631    9.1926 H         1 RES1    0.0000
@<TRIPOS>BOND
     1    1    4 2
     2    2    3 1
     3    5    1 2
     4    6    1 1
     5    7    2 1
     6    8    2 1
     7    9    8 1
     8   10    8 1
     9   11    8 1
    10   12   11 1
    11   13   11 1
    12   14    6 1
    13   15    7 1
    14   16   15 1
    15   17   14 2
    16   18   14 2
    17   19   15 1
    18   20   19 1
    19   21   19 1
    20   22   11 1
    21   23   22 1
    22   24   22 1
    23    6    7 2
    24   19   22 1
@<TRIPOS>SUBSTRUCTURE
     1 RES1 1

@<TRIPOS>CRYSIN
  10.0530    4.5919    9.7050  90.0000  90.0000  90.0000  18 1

