# MOL2 file generated by ConQuest
# Please check atom types

@<TRIPOS>MOLECULE
KOWTEV
    28    29     1
SMALL
NO_CHARGES
****
Generated from CSD

@<TRIPOS>ATOM
      1 O1        -0.2143    0.4210    1.5445 O.3       1 RES1    0.0000
      2 N1        -0.9650   -0.6350    0.9596 N.2       1 RES1    0.0000
      3 C1        -1.9457   -0.9782    1.7176 C.2       1 RES1    0.0000
      4 C2        -2.1714   -0.3696    3.0469 C.2       1 RES1    0.0000
      5 C3        -1.2767   -0.2084    4.1449 C.2       1 RES1    0.0000
      6 N2        -1.9115    0.3349    5.1453 N.2       1 RES1    0.0000
      7 O2        -3.2179    0.5225    4.6828 O.3       1 RES1    0.0000
      8 N3        -3.3384    0.0834    3.3894 N.2       1 RES1    0.0000
      9 N4         0.0147   -0.6378    4.2142 N.3       1 RES1    0.0000
     10 N5        -2.8772   -1.8744    1.2699 N.3       1 RES1    0.0000
     11 C4        -2.7134   -2.3788   -0.1162 C.3       1 RES1    0.0000
     12 C5        -3.9882   -3.0013   -0.6071 C.3       1 RES1    0.0000
     13 C6        -4.5308   -4.0351    0.3289 C.3       1 RES1    0.0000
     14 C7        -4.6707   -3.4710    1.7102 C.3       1 RES1    0.0000
     15 C8        -3.3597   -2.9138    2.2011 C.3       1 RES1    0.0000
     16 H1        -2.0034   -3.1542   -0.0124 H         1 RES1    0.0000
     17 H2        -2.4628   -1.5840   -0.6677 H         1 RES1    0.0000
     18 H3        -3.8784   -3.3765   -1.4962 H         1 RES1    0.0000
     19 H4        -4.6194   -2.1954   -0.6677 H         1 RES1    0.0000
     20 H5        -3.9077   -4.8355    0.2349 H         1 RES1    0.0000
     21 H6        -5.3302   -4.3769    0.0247 H         1 RES1    0.0000
     22 H7        -4.9858   -4.1129    2.3742 H         1 RES1    0.0000
     23 H8        -5.2834   -2.6678    1.7559 H         1 RES1    0.0000
     24 H9        -3.3875   -2.5289    3.1409 H         1 RES1    0.0000
     25 H10       -2.6794   -3.5432    2.2505 H         1 RES1    0.0000
     26 H11        0.3553    0.6670    0.8409 H         1 RES1    0.0000
     27 H12        0.4309   -0.4307    3.5242 H         1 RES1    0.0000
     28 H13        0.3956   -0.5002    5.0204 H         1 RES1    0.0000
@<TRIPOS>BOND
     1    1    2 1
     2    2    3 2
     3    3    4 1
     4    4    5 1
     5    5    6 2
     6    6    7 1
     7    7    8 1
     8    8    4 2
     9    9    5 1
    10   10    3 1
    11   11   10 1
    12   12   11 1
    13   13   12 1
    14   14   13 1
    15   15   10 1
    16   16   11 1
    17   17   11 1
    18   18   12 1
    19   19   12 1
    20   20   13 1
    21   21   13 1
    22   22   14 1
    23   23   14 1
    24   24   15 1
    25   25   15 1
    26   26    1 1
    27   27    9 1
    28   28    9 1
    29   14   15 1
@<TRIPOS>SUBSTRUCTURE
     1 RES1 1

@<TRIPOS>CRYSIN
   6.3430   13.8950   12.4080  90.0000  94.7400  90.0000 231 1

