# MOL2 file generated by ConQuest
# Please check atom types

@<TRIPOS>MOLECULE
KOWTAR
    28    29     1
SMALL
NO_CHARGES
****
Generated from CSD

@<TRIPOS>ATOM
      1 O1         3.9313    4.7390    3.6057 O.3       1 RES1    0.0000
      2 N1         4.1720    5.8449    2.7620 N.2       1 RES1    0.0000
      3 C1         3.7032    6.9486    3.2383 C.2       1 RES1    0.0000
      4 C2         4.0518    8.0957    2.3995 C.2       1 RES1    0.0000
      5 C3         5.1276    8.2114    1.4484 C.2       1 RES1    0.0000
      6 N2         5.1261    9.4300    0.9315 N.2       1 RES1    0.0000
      7 O2         4.0449   10.0796    1.5492 O.3       1 RES1    0.0000
      8 N3         3.4122    9.2324    2.4352 N.2       1 RES1    0.0000
      9 N4         6.0430    7.2639    1.1266 N.3       1 RES1    0.0000
     10 N5         2.9808    7.1074    4.3990 N.3       1 RES1    0.0000
     11 C4         3.1544    8.2741    5.2606 C.3       1 RES1    0.0000
     12 C5         3.2087    7.8384    6.6960 C.3       1 RES1    0.0000
     13 C6         1.9894    7.0214    7.0651 C.3       1 RES1    0.0000
     14 C7         1.8224    5.8351    6.1189 C.3       1 RES1    0.0000
     15 C8         1.8110    6.2924    4.6851 C.3       1 RES1    0.0000
     16 H1         2.2960    8.9009    5.1695 H         1 RES1    0.0000
     17 H2         3.9359    8.7474    4.9907 H         1 RES1    0.0000
     18 H3         3.2925    8.6296    7.2504 H         1 RES1    0.0000
     19 H4         4.0818    7.1766    6.8277 H         1 RES1    0.0000
     20 H5         1.1486    7.6944    7.0065 H         1 RES1    0.0000
     21 H6         2.0330    6.7296    7.9494 H         1 RES1    0.0000
     22 H7         2.5843    5.2179    6.2100 H         1 RES1    0.0000
     23 H8         0.9118    5.3125    6.3075 H         1 RES1    0.0000
     24 H9         0.9957    6.7983    4.6168 H         1 RES1    0.0000
     25 H10        1.7707    5.4776    4.0966 H         1 RES1    0.0000
     26 H11        4.4230    4.1362    3.2675 H         1 RES1    0.0000
     27 H12        5.6747    6.2993    1.3168 H         1 RES1    0.0000
     28 H13        6.7373    7.5495    0.5039 H         1 RES1    0.0000
@<TRIPOS>BOND
     1    1    2 1
     2    2    3 2
     3    3    4 1
     4    4    5 1
     5    5    6 2
     6    6    7 1
     7    7    8 1
     8    8    4 2
     9    9    5 1
    10   10    3 1
    11   11   10 1
    12   12   11 1
    13   13   12 1
    14   14   13 1
    15   15   10 1
    16   16   11 1
    17   17   11 1
    18   18   12 1
    19   19   12 1
    20   20   13 1
    21   21   13 1
    22   22   14 1
    23   23   14 1
    24   24   15 1
    25   25   15 1
    26   26    1 1
    27   27    9 1
    28   28    9 1
    29   14   15 1
@<TRIPOS>SUBSTRUCTURE
     1 RES1 1

@<TRIPOS>CRYSIN
   5.2980    6.5120   16.3100  88.6800  85.3900  66.5000   2 1

