# MOL2 file generated by ConQuest
# Please check atom types

@<TRIPOS>MOLECULE
KOWXOJ
    18    18     1
SMALL
NO_CHARGES
****
Generated from CSD

@<TRIPOS>ATOM
      1 O1         2.2165    3.6785    5.3279 O.3       1 RES1    0.0000
      2 N1         1.5815    4.7801    4.7418 N.2       1 RES1    0.0000
      3 N2         0.1919    5.6215    1.7583 N.ar      1 RES1    0.0000
      4 C1        -0.4358    6.6399    1.1341 C.ar      1 RES1    0.0000
      5 C2        -1.0912    7.6558    1.8419 C.ar      1 RES1    0.0000
      6 C3        -1.1172    7.6131    3.1961 C.ar      1 RES1    0.0000
      7 C4        -0.5001    6.5422    3.8679 C.ar      1 RES1    0.0000
      8 C5         0.1488    5.5914    3.0924 C.ar      1 RES1    0.0000
      9 C6         0.8725    4.4462    3.7410 C.2       1 RES1    0.0000
     10 C7         0.7082    3.0657    3.1665 C.3       1 RES1    0.0000
     11 H1         2.7727    4.0429    5.8188 H         1 RES1    0.0000
     12 H2        -0.2439    6.5441    0.1481 H         1 RES1    0.0000
     13 H3        -1.5530    8.4617    1.3542 H         1 RES1    0.0000
     14 H4        -1.5774    8.4028    3.8192 H         1 RES1    0.0000
     15 H5        -0.5041    6.5759    4.8772 H         1 RES1    0.0000
     16 H6        -0.2521    2.9655    2.4756 H         1 RES1    0.0000
     17 H7         0.7237    2.4766    3.8616 H         1 RES1    0.0000
     18 H8         1.4392    2.6841    2.6237 H         1 RES1    0.0000
@<TRIPOS>BOND
     1    1    2 1
     2    2    9 2
     3    3    4 ar
     4    4    5 ar
     5    5    6 ar
     6    6    7 ar
     7    7    8 ar
     8    8    3 ar
     9    9    8 1
    10   10    9 1
    11   11    1 1
    12   12    4 1
    13   13    5 1
    14   14    6 1
    15   15    7 1
    16   16   10 1
    17   17   10 1
    18   18   10 1
@<TRIPOS>SUBSTRUCTURE
     1 RES1 1

