# MOL2 file generated by ConQuest
# Please check atom types

@<TRIPOS>MOLECULE
KOWXOJ01
    18    18     1
SMALL
NO_CHARGES
****
Generated from CSD

@<TRIPOS>ATOM
      1 O1        -0.8875    2.1863   10.6198 O.3       1 RES1    0.0000
      2 N1         0.2199    1.5534   10.0285 N.2       1 RES1    0.0000
      3 N2         1.0536    0.1687    7.0265 N.ar      1 RES1    0.0000
      4 C1        -0.1071    0.8434    9.0169 C.2       1 RES1    0.0000
      5 C2        -1.4849    0.6932    8.4486 C.3       1 RES1    0.0000
      6 H1        -2.1188    0.6088    9.1644 H         1 RES1    0.0000
      7 H2        -1.5193   -0.0916    7.8969 H         1 RES1    0.0000
      8 H3        -1.6989    1.4659    7.9201 H         1 RES1    0.0000
      9 C3         1.0285    0.1430    8.3670 C.ar      1 RES1    0.0000
     10 C4         2.0149   -0.5076    9.1169 C.ar      1 RES1    0.0000
     11 C5         3.0705   -1.1100    8.4590 C.ar      1 RES1    0.0000
     12 C6         3.0999   -1.0835    7.0755 C.ar      1 RES1    0.0000
     13 C7         2.0748   -0.4498    6.4112 C.ar      1 RES1    0.0000
     14 H4        -0.4395    2.8032   11.3039 H         1 RES1    0.0000
     15 H5         1.9062   -0.5462   10.0913 H         1 RES1    0.0000
     16 H6         3.7572   -1.5663    9.0389 H         1 RES1    0.0000
     17 H7         3.7980   -1.4699    6.5546 H         1 RES1    0.0000
     18 H8         2.0898   -0.3855    5.4727 H         1 RES1    0.0000
@<TRIPOS>BOND
     1    1    2 1
     2    2    4 2
     3    3    9 ar
     4    4    5 1
     5    5    6 1
     6    7    5 1
     7    8    5 1
     8    9    4 1
     9   10    9 ar
    10   11   10 ar
    11   12   11 ar
    12   13    3 ar
    13   14    1 1
    14   15   10 1
    15   16   11 1
    16   17   12 1
    17   18   13 1
    18   12   13 ar
@<TRIPOS>SUBSTRUCTURE
     1 RES1 1

@<TRIPOS>CRYSIN
   7.9867    8.0321   10.5940  90.0000  95.5300  90.0000  14 1

