# MOL2 file generated by ConQuest
# Please check atom types

@<TRIPOS>MOLECULE
KOWZEB
    32    33     1
SMALL
NO_CHARGES
****
Generated from CSD

@<TRIPOS>ATOM
      1 O1         8.3594    3.8243   19.8103 O.2       1 RES1    0.0000
      2 O2         6.9277    5.3707   20.1932 O.2       1 RES1    0.0000
      3 O3         4.9973    7.7240   16.5566 O.2       1 RES1    0.0000
      4 O4         4.6470    6.7281   14.7452 O.2       1 RES1    0.0000
      5 O5        11.7345   -0.9834   18.7061 O.2       1 RES1    0.0000
      6 O6        10.0413   -1.8334   19.6398 O.2       1 RES1    0.0000
      7 O7         5.8673    0.2081   19.5503 O.3       1 RES1    0.0000
      8 O8         5.4395    2.1286   18.5636 O.2       1 RES1    0.0000
      9 O9         9.8944    4.4006   16.9060 O.2       1 RES1    0.0000
     10 O10       11.1421    2.9735   15.9276 O.2       1 RES1    0.0000
     11 O11        7.6718    1.4204   15.2316 O.2       1 RES1    0.0000
     12 O12        6.4774    2.3956   13.9262 O.3       1 RES1    0.0000
     13 N1         7.4797    4.5730   19.4497 N.pl3     1 RES1    0.0000
     14 N2         5.1296    6.7887   15.8326 N.pl3     1 RES1    0.0000
     15 N3        10.5659   -0.9901   18.9689 N.pl3     1 RES1    0.0000
     16 N4        10.2269    3.2753   16.6488 N.pl3     1 RES1    0.0000
     17 C1         8.1980    2.2936   17.7166 C.ar      1 RES1    0.0000
     18 C2         9.5555    2.1617   17.4119 C.ar      1 RES1    0.0000
     19 C3        10.3286    1.0995   17.7585 C.ar      1 RES1    0.0000
     20 C4         9.7250    0.1352   18.4909 C.ar      1 RES1    0.0000
     21 C5         8.3917    0.1741   18.8543 C.ar      1 RES1    0.0000
     22 C6         7.6315    1.2413   18.4406 C.ar      1 RES1    0.0000
     23 C7         7.3700    3.4586   17.2302 C.ar      1 RES1    0.0000
     24 C8         6.8519    3.4835   15.9192 C.ar      1 RES1    0.0000
     25 C9         6.1158    4.5706   15.4636 C.ar      1 RES1    0.0000
     26 C10        5.8947    5.6170   16.3273 C.ar      1 RES1    0.0000
     27 C11        6.3305    5.6187   17.6104 C.ar      1 RES1    0.0000
     28 C12        7.0681    4.5349   18.0409 C.ar      1 RES1    0.0000
     29 C13        6.2111    1.2662   18.8543 C.2       1 RES1    0.0000
     30 C14        7.0520    2.3375   15.0191 C.2       1 RES1    0.0000
     31 C15        4.5195    0.1501   20.0842 C.3       1 RES1    0.0000
     32 C16        6.4548    1.2421   13.0261 C.3       1 RES1    0.0000
@<TRIPOS>BOND
     1    1   13 2
     2    2   13 2
     3    3   14 2
     4    4   14 2
     5    5   15 2
     6    6   15 2
     7    7   29 1
     8    8   29 2
     9    9   16 2
    10   10   16 2
    11   11   30 2
    12   12   30 1
    13   13   28 1
    14   14   26 1
    15   15   20 1
    16   16   18 1
    17   17   18 ar
    18   18   19 ar
    19   19   20 ar
    20   20   21 ar
    21   21   22 ar
    22   22   17 ar
    23   23   17 1
    24   24   23 ar
    25   25   24 ar
    26   26   25 ar
    27   27   26 ar
    28   28   23 ar
    29   29   22 1
    30   30   24 1
    31   31    7 1
    32   32   12 1
    33   27   28 ar
@<TRIPOS>SUBSTRUCTURE
     1 RES1 1

@<TRIPOS>CRYSIN
  16.1410    8.2920   27.9530  90.0000  90.0000  90.0000  61 1

