# MOL2 file generated by ConQuest
# Please check atom types

@<TRIPOS>MOLECULE
KOYLOZ
    30    33     1
SMALL
NO_CHARGES
****
Generated from CSD

@<TRIPOS>ATOM
      1 C1         7.6065    0.4729   14.7934 C.2       1 RES1    0.0000
      2 C2         7.5934   -0.2315   16.0898 C.2       1 RES1    0.0000
      3 C3         6.7741   -1.4974   15.9431 C.3       1 RES1    0.0000
      4 C4         6.0749   -1.3090   14.5649 C.3       1 RES1    0.0000
      5 C5         6.4757    0.2845   12.6092 C.3       1 RES1    0.0000
      6 C6         6.7516   -0.7253   11.5264 C.ar      1 RES1    0.0000
      7 C7         7.8515   -1.5454   11.5580 C.ar      1 RES1    0.0000
      8 C8         8.1199   -2.4382   10.5160 C.ar      1 RES1    0.0000
      9 C9         7.2649   -2.5034    9.4685 C.ar      1 RES1    0.0000
     10 C10        6.1763   -1.6944    9.4017 C.ar      1 RES1    0.0000
     11 C11        5.9022   -0.8103   10.4529 C.ar      1 RES1    0.0000
     12 C12        4.5733   -1.0725   14.6857 C.ar      1 RES1    0.0000
     13 C13        3.7165   -2.1439   14.4944 C.ar      1 RES1    0.0000
     14 C14        2.3556   -1.9875   14.6894 C.ar      1 RES1    0.0000
     15 C15        1.8498   -0.7721   15.0831 C.ar      1 RES1    0.0000
     16 C16        2.6982    0.2931   15.2651 C.ar      1 RES1    0.0000
     17 C17        4.0665    0.1441   15.0664 C.ar      1 RES1    0.0000
     18 C18        5.8656   -1.8730   17.0909 C.3       1 RES1    0.0000
     19 C19        8.1490    0.3177   17.1707 C.2       1 RES1    0.0000
     20 C20        8.1499   -0.1761   18.5711 C.ar      1 RES1    0.0000
     21 C21        7.3991    0.5061   19.4979 C.ar      1 RES1    0.0000
     22 C22        7.3503    0.0603   20.8110 C.ar      1 RES1    0.0000
     23 C23        8.0917   -1.0331   21.1937 C.ar      1 RES1    0.0000
     24 C24        8.8669   -1.6796   20.2780 C.ar      1 RES1    0.0000
     25 C25        8.8960   -1.2536   18.9612 C.ar      1 RES1    0.0000
     26 N1         6.7694   -0.1835   13.9595 N.am      1 RES1    0.0000
     27 N2         7.8308   -2.6340   15.7648 N.pl3     1 RES1    0.0000
     28 O1         8.2485    1.4900   14.5297 O.2       1 RES1    0.0000
     29 O2         7.9829   -3.4331   16.6637 O.2       1 RES1    0.0000
     30 O3         8.4681   -2.6500   14.7265 O.2       1 RES1    0.0000
@<TRIPOS>BOND
     1    1    2 1
     2    2    3 1
     3    3    4 1
     4    4   12 1
     5    5    6 1
     6    6    7 ar
     7    7    8 ar
     8    8    9 ar
     9    9   10 ar
    10   10   11 ar
    11   11    6 ar
    12   12   13 ar
    13   13   14 ar
    14   14   15 ar
    15   15   16 ar
    16   16   17 ar
    17   17   12 ar
    18   18    3 1
    19   19    2 2
    20   20   19 1
    21   21   20 ar
    22   22   21 ar
    23   23   22 ar
    24   24   23 ar
    25   25   20 ar
    26   26    1 1
    27   27    3 1
    28   28    1 2
    29   29   27 2
    30   30   27 2
    31    4   26 1
    32    5   26 1
    33   24   25 ar
@<TRIPOS>SUBSTRUCTURE
     1 RES1 1

@<TRIPOS>CRYSIN
   9.3850   12.3140   18.5730  90.0000  90.0000  90.0000  33 5

