# MOL2 file generated by ConQuest
# Please check atom types

@<TRIPOS>MOLECULE
KOZTOK
    26    28     1
SMALL
NO_CHARGES
****
Generated from CSD

@<TRIPOS>ATOM
      1 O1         2.1457    1.5266   10.7412 O.2       1 RES1    0.0000
      2 O2         5.0540   -1.2516   10.8865 O.3       1 RES1    0.0000
      3 N1         3.8053   -1.5517   11.3953 N.2       1 RES1    0.0000
      4 C1         0.8914   -0.1740   12.8466 C.ar      1 RES1    0.0000
      5 H1         1.1941    0.6954   12.9778 H         1 RES1    0.0000
      6 C2         6.1975    2.5798    9.8981 C.ar      1 RES1    0.0000
      7 H2         6.4755    3.4374    9.6705 H         1 RES1    0.0000
      8 C3         1.1183   -2.3292   11.7976 C.ar      1 RES1    0.0000
      9 H3         1.5789   -2.9098   11.2355 H         1 RES1    0.0000
     10 C4         4.8809    2.3431   10.1814 C.ar      1 RES1    0.0000
     11 H4         4.2679    3.0413   10.1536 H         1 RES1    0.0000
     12 C5        -0.7115   -1.8955   13.2923 C.ar      1 RES1    0.0000
     13 H5        -1.4823   -2.1858   13.7232 H         1 RES1    0.0000
     14 C6         5.3760    0.0452   10.5623 C.ar      1 RES1    0.0000
     15 C7         7.1282    1.5336    9.9506 C.ar      1 RES1    0.0000
     16 H6         8.0234    1.6999    9.7628 H         1 RES1    0.0000
     17 C8         1.5844   -1.0296   11.9948 C.ar      1 RES1    0.0000
     18 C9         6.7208    0.2576   10.2811 C.ar      1 RES1    0.0000
     19 H7         7.3313   -0.4427   10.3146 H         1 RES1    0.0000
     20 C10        3.0689    0.7546   10.8603 C.2       1 RES1    0.0000
     21 C11       -0.2495   -0.6161   13.4983 C.ar      1 RES1    0.0000
     22 H8        -0.7044   -0.0466   14.0760 H         1 RES1    0.0000
     23 C12       -0.0309   -2.7525   12.4426 C.ar      1 RES1    0.0000
     24 H9        -0.3469   -3.6156   12.3048 H         1 RES1    0.0000
     25 C13        4.4560    1.0651   10.5116 C.ar      1 RES1    0.0000
     26 C14        2.8729   -0.6098   11.3900 C.2       1 RES1    0.0000
@<TRIPOS>BOND
     1    1   20 2
     2    2    3 1
     3    3   26 2
     4    4    5 1
     5    6    7 1
     6    8    9 1
     7   10    6 ar
     8   11   10 1
     9   12   13 1
    10   14    2 1
    11   15    6 ar
    12   16   15 1
    13   17    4 ar
    14   18   14 ar
    15   19   18 1
    16   20   25 1
    17   21    4 ar
    18   22   21 1
    19   23    8 ar
    20   24   23 1
    21   25   10 ar
    22   26   17 1
    23    8   17 ar
    24   12   21 ar
    25   12   23 ar
    26   14   25 ar
    27   15   18 ar
    28   20   26 1
@<TRIPOS>SUBSTRUCTURE
     1 RES1 1

@<TRIPOS>CRYSIN
   8.2954    6.9612   18.0926  90.0000  90.0240  90.0000 231 1

