# MOL2 file generated by ConQuest
# Please check atom types

@<TRIPOS>MOLECULE
KUBPUS
    26    26     1
SMALL
NO_CHARGES
****
Generated from CSD

@<TRIPOS>ATOM
      1 N1         2.1273    0.2497    1.3704 N.3       1 RES1    0.0000
      2 N2         1.3965   -0.7965    0.9089 N.pl3     1 RES1    0.0000
      3 O1         1.8993   -1.4685    0.0205 O.2       1 RES1    0.0000
      4 O2         0.2941   -0.9619    1.3876 O.2       1 RES1    0.0000
      5 C1         3.4562    0.4087    0.9154 C.2       1 RES1    0.0000
      6 C2         4.4511   -0.5147    1.2313 C.2       1 RES1    0.0000
      7 N3         5.7764   -0.3517    0.8076 N.pl3     1 RES1    0.0000
      8 O3         6.0105    0.5845    0.0194 O.2       1 RES1    0.0000
      9 O4         6.6799   -1.0614    1.2087 O.2       1 RES1    0.0000
     10 N4         4.1892   -1.6387    2.0799 N.pl3     1 RES1    0.0000
     11 O5         3.2032   -1.6178    2.7925 O.2       1 RES1    0.0000
     12 O6         4.8792   -2.6134    2.0119 O.2       1 RES1    0.0000
     13 N5         3.6296    1.5303    0.2760 N.3       1 RES1    0.0000
     14 C3         2.5767    2.4994   -0.0809 C.3       1 RES1    0.0000
     15 C4         1.9964    3.2100    1.1375 C.3       1 RES1    0.0000
     16 C5         1.0445    2.3686    1.9462 C.3       1 RES1    0.0000
     17 C6         1.6440    1.0887    2.4734 C.3       1 RES1    0.0000
     18 H1         4.4419    1.6604    0.0237 H         1 RES1    0.0000
     19 H2         3.0783    3.1434   -0.7936 H         1 RES1    0.0000
     20 H3         1.8247    2.0546   -0.6329 H         1 RES1    0.0000
     21 H4         1.5196    3.9551    0.8205 H         1 RES1    0.0000
     22 H5         2.7348    3.5022    1.6604 H         1 RES1    0.0000
     23 H6         0.2142    2.1622    1.4383 H         1 RES1    0.0000
     24 H7         0.7705    2.8383    2.6966 H         1 RES1    0.0000
     25 H8         2.4052    1.1658    3.0265 H         1 RES1    0.0000
     26 H9         0.8906    0.5580    2.9435 H         1 RES1    0.0000
@<TRIPOS>BOND
     1    1    2 1
     2    2    3 2
     3    4    2 2
     4    5    1 1
     5    6    5 2
     6    7    6 1
     7    8    7 2
     8    9    7 2
     9   10    6 1
    10   11   10 2
    11   12   10 2
    12   13    5 1
    13   14   13 1
    14   15   14 1
    15   16   15 1
    16   17    1 1
    17   18   13 1
    18   19   14 1
    19   20   14 1
    20   21   15 1
    21   22   15 1
    22   23   16 1
    23   24   16 1
    24   25   17 1
    25   26   17 1
    26   16   17 1
@<TRIPOS>SUBSTRUCTURE
     1 RES1 1

@<TRIPOS>CRYSIN
  23.7490    8.0290   11.1510  90.0000 104.7800  90.0000  15 1

