# MOL2 file generated by ConQuest
# Please check atom types

@<TRIPOS>MOLECULE
KUBPIG
    20    20     1
SMALL
NO_CHARGES
****
Generated from CSD

@<TRIPOS>ATOM
      1 N1         3.0334    6.3241    0.3185 N.3       1 RES1    0.0000
      2 N2         1.6761    6.0711    0.3872 N.pl3     1 RES1    0.0000
      3 O1         1.0456    6.5464    1.3195 O.2       1 RES1    0.0000
      4 O2         1.2329    5.3763   -0.5055 O.2       1 RES1    0.0000
      5 C1         3.7296    7.1712    1.1723 C.2       1 RES1    0.0000
      6 C2         3.4752    7.3795    2.5390 C.2       1 RES1    0.0000
      7 N3         2.7371    6.4164    3.3018 N.pl3     1 RES1    0.0000
      8 O3         2.8182    5.2463    2.9286 O.2       1 RES1    0.0000
      9 O4         2.0745    6.7616    4.2771 O.2       1 RES1    0.0000
     10 N4         4.1378    8.3944    3.2629 N.pl3     1 RES1    0.0000
     11 O5         3.8610    8.6097    4.4310 O.2       1 RES1    0.0000
     12 O6         5.0213    9.0290    2.6805 O.2       1 RES1    0.0000
     13 N5         4.6844    7.7192    0.4774 N.3       1 RES1    0.0000
     14 C3         4.7165    7.3348   -0.9299 C.3       1 RES1    0.0000
     15 C4         3.6919    6.2276   -0.9994 C.3       1 RES1    0.0000
     16 H1         5.2254    8.3287    0.8207 H         1 RES1    0.0000
     17 H2         4.4691    8.0715   -1.4949 H         1 RES1    0.0000
     18 H3         5.5874    7.0175   -1.1814 H         1 RES1    0.0000
     19 H4         4.1112    5.3721   -1.1169 H         1 RES1    0.0000
     20 H5         3.0670    6.3772   -1.7125 H         1 RES1    0.0000
@<TRIPOS>BOND
     1    1    2 1
     2    2    3 2
     3    4    2 2
     4    5    1 1
     5    6    5 2
     6    7    6 1
     7    8    7 2
     8    9    7 2
     9   10    6 1
    10   11   10 2
    11   12   10 2
    12   13    5 1
    13   14   13 1
    14   15    1 1
    15   16   13 1
    16   17   14 1
    17   18   14 1
    18   19   15 1
    19   20   15 1
    20   14   15 1
@<TRIPOS>SUBSTRUCTURE
     1 RES1 1

@<TRIPOS>CRYSIN
  13.9790   13.9790    8.2730  90.0000  90.0000  90.0000  86 1

