# MOL2 file generated by ConQuest
# Please check atom types

@<TRIPOS>MOLECULE
KUDXAK
    31    31     1
SMALL
NO_CHARGES
****
Generated from CSD

@<TRIPOS>ATOM
      1 C1         0.2381    5.7558    5.0527 C.ar      1 RES1    0.0000
      2 C2        -1.0318    5.1694    5.0197 C.ar      1 RES1    0.0000
      3 C3        -1.2293    3.7823    4.9953 C.ar      1 RES1    0.0000
      4 H1        -2.1095    3.4260    4.9716 H         1 RES1    0.0000
      5 C4        -0.1439    2.9358    5.0059 C.ar      1 RES1    0.0000
      6 C5         1.1608    3.4935    5.0619 C.ar      1 RES1    0.0000
      7 C6         1.3292    4.8713    5.0764 C.ar      1 RES1    0.0000
      8 H2         2.2098    5.2271    5.1028 H         1 RES1    0.0000
      9 C7         0.4858    7.2479    5.0593 C.3       1 RES1    0.0000
     10 H3         0.0897    7.6636    4.2523 H         1 RES1    0.0000
     11 H4         0.0708    7.6577    5.8590 H         1 RES1    0.0000
     12 C8         2.2896    8.7579    4.9940 C.2       1 RES1    0.0000
     13 C9         3.7766    8.8803    4.9380 C.3       1 RES1    0.0000
     14 H5         4.0896    8.6531    4.0374 H         1 RES1    0.0000
     15 H6         4.1795    8.2659    5.5874 H         1 RES1    0.0000
     16 H7         4.0377    9.8010    5.1529 H         1 RES1    0.0000
     17 C10       -1.4985    0.9795    4.8701 C.3       1 RES1    0.0000
     18 H8        -2.0380    1.2359    5.6467 H         1 RES1    0.0000
     19 H9        -1.4094    0.0039    4.8417 H         1 RES1    0.0000
     20 H10       -1.9369    1.2906    4.0506 H         1 RES1    0.0000
     21 C11        3.5154    3.1028    5.1483 C.3       1 RES1    0.0000
     22 H11        3.6885    3.6822    4.3769 H         1 RES1    0.0000
     23 H12        4.1493    2.3564    5.1443 H         1 RES1    0.0000
     24 H13        3.6233    3.6177    5.9750 H         1 RES1    0.0000
     25 N1        -2.2366    5.9860    5.0158 N.pl3     1 RES1    0.0000
     26 O1        -2.1332    7.2015    4.8648 O.2       1 RES1    0.0000
     27 O2        -3.3310    5.4267    5.1727 O.2       1 RES1    0.0000
     28 O3         1.9121    7.4581    5.0771 O.3       1 RES1    0.0000
     29 O4         1.4953    9.6617    4.9578 O.2       1 RES1    0.0000
     30 O5        -0.1972    1.5765    4.9729 O.3       1 RES1    0.0000
     31 O6         2.1653    2.5897    5.0731 O.3       1 RES1    0.0000
@<TRIPOS>BOND
     1    1    2 ar
     2    2    3 ar
     3    3    4 1
     4    5    3 ar
     5    6    5 ar
     6    7    1 ar
     7    8    7 1
     8    9    1 1
     9   10    9 1
    10   11    9 1
    11   12   13 1
    12   13   14 1
    13   15   13 1
    14   16   13 1
    15   17   18 1
    16   19   17 1
    17   20   17 1
    18   21   22 1
    19   23   21 1
    20   24   21 1
    21   25    2 1
    22   26   25 2
    23   27   25 2
    24   28    9 1
    25   29   12 2
    26   30    5 1
    27   31    6 1
    28    6    7 ar
    29   12   28 1
    30   17   30 1
    31   21   31 1
@<TRIPOS>SUBSTRUCTURE
     1 RES1 1

@<TRIPOS>CRYSIN
   8.8751   19.5550    6.8688  90.0000 106.2980  90.0000  14 1

