# MOL2 file generated by ConQuest
# Please check atom types

@<TRIPOS>MOLECULE
KUDXAK01
    31    31     1
SMALL
NO_CHARGES
****
Generated from CSD

@<TRIPOS>ATOM
      1 C1         0.7829    8.8182    5.7646 C.ar      1 RES1    0.0000
      2 C2         1.2851    9.4865    6.8816 C.ar      1 RES1    0.0000
      3 C3         1.8185    8.8101    7.9860 C.ar      1 RES1    0.0000
      4 H1         2.1618    9.3008    8.7241 H         1 RES1    0.0000
      5 C4         1.8444    7.4351    8.0012 C.ar      1 RES1    0.0000
      6 C5         1.3186    6.7257    6.8947 C.ar      1 RES1    0.0000
      7 C6         0.8116    7.4203    5.8055 C.ar      1 RES1    0.0000
      8 H2         0.4732    6.9309    5.0644 H         1 RES1    0.0000
      9 C7         0.2258    9.5183    4.5456 C.3       1 RES1    0.0000
     10 H3        -0.5058   10.1312    4.8096 H         1 RES1    0.0000
     11 H4         0.9352   10.0487    4.1038 H         1 RES1    0.0000
     12 C8        -0.7961    8.9654    2.4865 C.2       1 RES1    0.0000
     13 C9        -1.3156    7.8579    1.6260 C.3       1 RES1    0.0000
     14 H5        -2.2938    7.9048    1.5890 H         1 RES1    0.0000
     15 H6        -1.0438    6.9952    2.0043 H         1 RES1    0.0000
     16 H7        -0.9497    7.9476    0.7216 H         1 RES1    0.0000
     17 C10        2.8964    7.3468   10.1353 C.3       1 RES1    0.0000
     18 H8         3.6630    7.8791    9.8363 H         1 RES1    0.0000
     19 H9         3.1940    6.6909   10.7998 H         1 RES1    0.0000
     20 H10        2.2255    7.9380   10.5371 H         1 RES1    0.0000
     21 C11        0.8142    4.6159    5.9180 C.3       1 RES1    0.0000
     22 H11       -0.1242    4.8620    5.7810 H         1 RES1    0.0000
     23 H12        0.8731    3.6610    6.1310 H         1 RES1    0.0000
     24 H13        1.3224    4.7999    5.1010 H         1 RES1    0.0000
     25 O1         0.8630   11.5951    6.0063 O.2       1 RES1    0.0000
     26 O2         1.6563   11.4757    8.0196 O.2       1 RES1    0.0000
     27 O3        -0.2767    8.5020    3.6377 O.3       1 RES1    0.0000
     28 O4        -0.8370   10.1395    2.2047 O.2       1 RES1    0.0000
     29 O5         2.3208    6.6637    9.0129 O.3       1 RES1    0.0000
     30 O6         1.3580    5.3839    7.0046 O.3       1 RES1    0.0000
     31 N1         1.2710   10.9435    6.9751 N.pl3     1 RES1    0.0000
@<TRIPOS>BOND
     1    1    2 ar
     2    2    3 ar
     3    3    4 1
     4    5    3 ar
     5    6    5 ar
     6    7    1 ar
     7    8    7 1
     8    9    1 1
     9   10    9 1
    10   11    9 1
    11   12   13 1
    12   13   14 1
    13   15   13 1
    14   16   13 1
    15   17   18 1
    16   19   17 1
    17   20   17 1
    18   21   22 1
    19   23   21 1
    20   24   21 1
    21   25   31 2
    22   26   31 2
    23   27    9 1
    24   28   12 2
    25   29    5 1
    26   30    6 1
    27   31    2 1
    28    6    7 ar
    29   12   27 1
    30   17   29 1
    31   21   30 1
@<TRIPOS>SUBSTRUCTURE
     1 RES1 1

@<TRIPOS>CRYSIN
  10.4760   10.7140   10.2660  90.0000 105.0770  90.0000  14 1

