# MOL2 file generated by ConQuest
# Please check atom types

@<TRIPOS>MOLECULE
KUFGEX
    50    53     1
SMALL
NO_CHARGES
****
Generated from CSD

@<TRIPOS>ATOM
      1 O1         4.3007    4.7784    4.1114 O.3       1 RES1    0.0000
      2 O2         3.8533    6.1607    4.3692 O.3       1 RES1    0.0000
      3 O3         1.6507    5.4805    4.2068 O.3       1 RES1    0.0000
      4 N1         2.0167    4.1384    3.7817 N.3       1 RES1    0.0000
      5 C1         2.6206    6.0485    5.0636 C.3       1 RES1    0.0000
      6 C2         3.3516    4.2173    3.1802 C.3       1 RES1    0.0000
      7 C3         1.8956    3.2189    4.9264 C.3       1 RES1    0.0000
      8 C4         2.1666    7.4326    5.4524 C.3       1 RES1    0.0000
      9 C5         3.1901    8.1048    6.3714 C.3       1 RES1    0.0000
     10 C6         2.7083    9.4778    6.8381 C.3       1 RES1    0.0000
     11 C7         1.3380    9.4082    7.4862 C.3       1 RES1    0.0000
     12 C8         0.3360    8.7362    6.5923 C.3       1 RES1    0.0000
     13 C9         0.7962    7.3542    6.1256 C.3       1 RES1    0.0000
     14 C10        4.9606    2.2651    3.5076 C.ar      1 RES1    0.0000
     15 C11        5.3551    0.9686    3.2197 C.ar      1 RES1    0.0000
     16 C12        4.6246    0.1909    2.3481 C.ar      1 RES1    0.0000
     17 C13        3.5000    0.7207    1.7542 C.ar      1 RES1    0.0000
     18 C14        3.1114    2.0096    2.0215 C.ar      1 RES1    0.0000
     19 C15        3.8360    2.7961    2.9056 C.ar      1 RES1    0.0000
     20 C16        2.1409    5.2801    1.2060 C.ar      1 RES1    0.0000
     21 C17        2.1575    5.9575    0.0086 C.ar      1 RES1    0.0000
     22 C18        3.3415    6.4008   -0.5303 C.ar      1 RES1    0.0000
     23 C19        4.5130    6.1614    0.1401 C.ar      1 RES1    0.0000
     24 C20        4.5088    5.4824    1.3494 C.ar      1 RES1    0.0000
     25 C21        3.3168    5.0356    1.8899 C.ar      1 RES1    0.0000
     26 H1         2.8267    5.4738    5.8595 H         1 RES1    0.0000
     27 H2         2.5868    3.3036    5.5193 H         1 RES1    0.0000
     28 H3         1.8466    2.5052    4.5197 H         1 RES1    0.0000
     29 H4         1.1084    3.5840    5.4514 H         1 RES1    0.0000
     30 H5         2.1081    7.9549    4.5214 H         1 RES1    0.0000
     31 H6         3.1918    7.5753    7.1304 H         1 RES1    0.0000
     32 H7         4.0229    8.1963    5.8755 H         1 RES1    0.0000
     33 H8         2.6753   10.0354    6.0998 H         1 RES1    0.0000
     34 H9         3.4200    9.8016    7.5532 H         1 RES1    0.0000
     35 H10        1.4959    8.8939    8.2159 H         1 RES1    0.0000
     36 H11        0.9893   10.4229    7.7286 H         1 RES1    0.0000
     37 H12        0.1496    9.0275    5.8471 H         1 RES1    0.0000
     38 H13       -0.6776    8.7484    6.9310 H         1 RES1    0.0000
     39 H14        0.9310    6.8505    6.8949 H         1 RES1    0.0000
     40 H15        0.1773    7.1187    5.4406 H         1 RES1    0.0000
     41 H16        5.4643    2.7963    4.1127 H         1 RES1    0.0000
     42 H17        6.1303    0.6091    3.6357 H         1 RES1    0.0000
     43 H18        4.8958   -0.6996    2.1582 H         1 RES1    0.0000
     44 H19        2.9960    0.1897    1.1483 H         1 RES1    0.0000
     45 H20        2.3365    2.3690    1.6064 H         1 RES1    0.0000
     46 H21        1.3177    4.9750    1.5693 H         1 RES1    0.0000
     47 H22        1.3433    6.1205   -0.4633 H         1 RES1    0.0000
     48 H23        3.3518    6.8673   -1.3580 H         1 RES1    0.0000
     49 H24        5.3365    6.4655   -0.2226 H         1 RES1    0.0000
     50 H25        5.3216    5.3210    1.8135 H         1 RES1    0.0000
@<TRIPOS>BOND
     1    1    2 1
     2    2    5 1
     3    3    4 1
     4    4    6 1
     5    5    3 1
     6    6    1 1
     7    7    4 1
     8    8    5 1
     9    9    8 1
    10   10    9 1
    11   11   10 1
    12   12   11 1
    13   13    8 1
    14   14   15 ar
    15   15   16 ar
    16   16   17 ar
    17   17   18 ar
    18   18   19 ar
    19   19    6 1
    20   20   21 ar
    21   21   22 ar
    22   22   23 ar
    23   23   24 ar
    24   24   25 ar
    25   25    6 1
    26   26    5 1
    27   27    7 1
    28   28    7 1
    29   29    7 1
    30   30    8 1
    31   31    9 1
    32   32    9 1
    33   33   10 1
    34   34   10 1
    35   35   11 1
    36   36   11 1
    37   37   12 1
    38   38   12 1
    39   39   13 1
    40   40   13 1
    41   41   14 1
    42   42   15 1
    43   43   16 1
    44   44   17 1
    45   45   18 1
    46   46   20 1
    47   47   21 1
    48   48   22 1
    49   49   23 1
    50   50   24 1
    51   12   13 1
    52   14   19 ar
    53   20   25 ar
@<TRIPOS>SUBSTRUCTURE
     1 RES1 1

@<TRIPOS>CRYSIN
  11.9916    9.0818    8.9284 102.9110  79.7360  96.7770   2 1

