# MOL2 file generated by ConQuest
# Please check atom types

@<TRIPOS>MOLECULE
KUFLUU01
    32    33     1
SMALL
NO_CHARGES
****
Generated from CSD

@<TRIPOS>ATOM
      1 C1         0.5371   12.9958    9.7982 C.ar      1 RES1    0.0000
      2 H1         1.0569   13.7610    9.8982 H         1 RES1    0.0000
      3 C2         0.6461   12.2055    8.6712 C.ar      1 RES1    0.0000
      4 C3        -0.1012   11.0668    8.4739 C.ar      1 RES1    0.0000
      5 H2        -0.0017   10.5598    7.7011 H         1 RES1    0.0000
      6 C4        -1.0087   10.6931    9.4591 C.ar      1 RES1    0.0000
      7 C5        -1.1220   11.4778   10.6029 C.ar      1 RES1    0.0000
      8 H3        -1.7211   11.2288   11.2695 H         1 RES1    0.0000
      9 C6        -0.3626   12.6184   10.7680 C.ar      1 RES1    0.0000
     10 H4        -0.4594   13.1327   11.5369 H         1 RES1    0.0000
     11 C7        -2.2115    9.0801    8.2449 C.2       1 RES1    0.0000
     12 H5        -1.8635    9.4524    7.4668 H         1 RES1    0.0000
     13 C8        -3.1466    7.9845    8.1364 C.ar      1 RES1    0.0000
     14 C9        -3.5832    7.5682    6.8679 C.ar      1 RES1    0.0000
     15 H6        -3.2387    7.9722    6.1038 H         1 RES1    0.0000
     16 C10       -4.5136    6.5720    6.7502 C.ar      1 RES1    0.0000
     17 H7        -4.8031    6.3075    5.9074 H         1 RES1    0.0000
     18 C11       -5.0277    5.9538    7.8815 C.ar      1 RES1    0.0000
     19 H8        -5.6554    5.2738    7.7910 H         1 RES1    0.0000
     20 C12       -4.6156    6.3399    9.1363 C.ar      1 RES1    0.0000
     21 C13       -3.6780    7.3702    9.2759 C.ar      1 RES1    0.0000
     22 C14       -5.9964    4.7370   10.2496 C.3       1 RES1    0.0000
     23 H9        -6.8051    5.0538    9.8402 H         1 RES1    0.0000
     24 H10       -6.1872    4.4238   11.1369 H         1 RES1    0.0000
     25 H11       -5.6343    4.0177    9.7278 H         1 RES1    0.0000
     26 N1        -1.8457    9.5556    9.3767 N.2       1 RES1    0.0000
     27 N2         1.6250   12.5880    7.6423 N.pl3     1 RES1    0.0000
     28 O1         1.7824   11.8398    6.6877 O.2       1 RES1    0.0000
     29 O2         2.2541   13.6186    7.7877 O.2       1 RES1    0.0000
     30 O3        -3.3078    7.7277   10.5227 O.3       1 RES1    0.0000
     31 O4        -5.0501    5.7988   10.3137 O.3       1 RES1    0.0000
     32 H12       -2.7259    8.3993   10.4117 H         1 RES1    0.0000
@<TRIPOS>BOND
     1    1    2 1
     2    3    1 ar
     3    4    3 ar
     4    5    4 1
     5    6    4 ar
     6    7    6 ar
     7    8    7 1
     8    9    1 ar
     9   10    9 1
    10   11   12 1
    11   13   11 1
    12   14   13 ar
    13   15   14 1
    14   16   14 ar
    15   17   16 1
    16   18   16 ar
    17   19   18 1
    18   20   18 ar
    19   21   13 ar
    20   22   23 1
    21   24   22 1
    22   25   22 1
    23   26    6 1
    24   27    3 1
    25   28   27 2
    26   29   27 2
    27   30   21 1
    28   31   20 1
    29   32   30 1
    30    7    9 ar
    31   11   26 2
    32   20   21 ar
    33   22   31 1
@<TRIPOS>SUBSTRUCTURE
     1 RES1 1

@<TRIPOS>CRYSIN
   4.7895   11.3446   12.0610  93.4720 100.3570  94.0220   2 1

