# MOL2 file generated by ConQuest
# Please check atom types

@<TRIPOS>MOLECULE
KUFLUU
    32    33     1
SMALL
NO_CHARGES
****
Generated from CSD

@<TRIPOS>ATOM
      1 C1         4.2877    5.3150   16.7501 C.ar      1 RES1    0.0000
      2 H1         3.8846    6.1529   16.7313 H         1 RES1    0.0000
      3 C2         4.7836    4.7336   15.6038 C.ar      1 RES1    0.0000
      4 C3         5.3937    3.4997   15.5813 C.ar      1 RES1    0.0000
      5 H2         5.7133    3.1387   14.7864 H         1 RES1    0.0000
      6 C4         5.5193    2.8066   16.7824 C.ar      1 RES1    0.0000
      7 C5         5.0206    3.3750   17.9511 C.ar      1 RES1    0.0000
      8 H3         5.0995    2.9161   18.7556 H         1 RES1    0.0000
      9 C6         4.4127    4.6070   17.9287 C.ar      1 RES1    0.0000
     10 H4         4.0811    4.9693   18.7185 H         1 RES1    0.0000
     11 C7         6.6788    0.9157   15.9457 C.2       1 RES1    0.0000
     12 C8         7.3255   -0.3651   16.1259 C.ar      1 RES1    0.0000
     13 C9         7.9058   -1.0244   15.0272 C.ar      1 RES1    0.0000
     14 H5         7.8669   -0.6364   14.1831 H         1 RES1    0.0000
     15 C10        8.5254   -2.2306   15.1907 C.ar      1 RES1    0.0000
     16 H6         8.9084   -2.6571   14.4583 H         1 RES1    0.0000
     17 C11        8.5880   -2.8270   16.4524 C.ar      1 RES1    0.0000
     18 H7         9.0060   -3.6513   16.5540 H         1 RES1    0.0000
     19 C12        8.0316   -2.1982   17.5481 C.ar      1 RES1    0.0000
     20 C13        7.3985   -0.9543   17.3944 C.ar      1 RES1    0.0000
     21 C14        8.5818   -3.9676   19.0416 C.3       1 RES1    0.0000
     22 H8         8.1224   -4.5994   18.4857 H         1 RES1    0.0000
     23 H9         8.4717   -4.2129   19.9622 H         1 RES1    0.0000
     24 H10        9.5158   -3.9661   18.8217 H         1 RES1    0.0000
     25 N1         6.1408    1.5433   16.9213 N.2       1 RES1    0.0000
     26 N2         4.6780    5.4819   14.3424 N.pl3     1 RES1    0.0000
     27 O1         5.0778    4.9577   13.3202 O.2       1 RES1    0.0000
     28 O2         4.2106    6.6074   14.3749 O.2       1 RES1    0.0000
     29 O3         6.8925   -0.3703   18.4968 O.3       1 RES1    0.0000
     30 O4         8.0455   -2.6756   18.8304 O.3       1 RES1    0.0000
     31 H11        6.6854    1.2833   14.9981 H         1 RES1    0.0000
     32 H12        6.5198    0.4152   18.2052 H         1 RES1    0.0000
@<TRIPOS>BOND
     1    1    2 1
     2    3    1 ar
     3    4    3 ar
     4    5    4 1
     5    6    4 ar
     6    7    6 ar
     7    8    7 1
     8    9    1 ar
     9   10    9 1
    10   11   12 1
    11   12   13 ar
    12   13   14 1
    13   15   13 ar
    14   16   15 1
    15   17   15 ar
    16   18   17 1
    17   19   17 ar
    18   20   12 ar
    19   21   22 1
    20   23   21 1
    21   24   21 1
    22   25    6 1
    23   26    3 1
    24   27   26 2
    25   28   26 2
    26   29   20 1
    27   30   19 1
    28   31   11 1
    29   32   29 1
    30    7    9 ar
    31   11   25 2
    32   19   20 ar
    33   21   30 1
@<TRIPOS>SUBSTRUCTURE
     1 RES1 1

@<TRIPOS>CRYSIN
  12.8418    7.5487   26.4610  90.0000  90.0000  90.0000  61 1

