# MOL2 file generated by ConQuest
# Please check atom types

@<TRIPOS>MOLECULE
KUFMAZ
    53    54     1
SMALL
NO_CHARGES
****
Generated from CSD

@<TRIPOS>ATOM
      1 O1        -1.6535    2.6495    2.2556 O.2       1 RES1    0.0000
      2 O2        -0.7444    3.7915    3.7636 O.2       1 RES1    0.0000
      3 O3        -1.0093   -2.9823    6.0427 O.3       1 RES1    0.0000
      4 O4        -1.0809   -1.7163    7.9050 O.2       1 RES1    0.0000
      5 N1        -1.2240    2.7409    3.3599 N.pl3     1 RES1    0.0000
      6 C1        -1.0809    1.5619    4.2195 C.ar      1 RES1    0.0000
      7 C2        -1.2169    0.3132    3.6334 C.ar      1 RES1    0.0000
      8 C3        -1.2097   -0.8114    4.4669 C.ar      1 RES1    0.0000
      9 C4        -1.0379   -0.6548    5.8213 C.ar      1 RES1    0.0000
     10 C5        -0.9019    0.6004    6.3943 C.ar      1 RES1    0.0000
     11 C6        -0.9162    1.7098    5.5348 C.ar      1 RES1    0.0000
     12 C7        -1.0164   -1.8642    6.7459 C.2       1 RES1    0.0000
     13 C8        -1.0164   -4.1875    6.8761 C.3       1 RES1    0.0000
     14 C9        -2.4624   -4.5355    7.2147 C.2       1 RES1    0.0000
     15 C10       -2.7773   -4.5464    8.4649 C.2       1 RES1    0.0000
     16 C11       -0.4152   -5.2751    5.9906 C.3       1 RES1    0.0000
     17 C12       -0.4008   -6.6347    6.6417 C.2       1 RES1    0.0000
     18 C13       -1.0665   -7.6179    6.0948 C.2       1 RES1    0.0000
     19 C14       -1.0522   -9.0449    6.6157 C.3       1 RES1    0.0000
     20 C15        0.1002   -9.2298    7.5273 C.3       1 RES1    0.0000
     21 C16        0.2362   -8.1421    8.5301 C.3       1 RES1    0.0000
     22 C17        0.4581   -6.8000    7.8008 C.3       1 RES1    0.0000
     23 C18        1.2455   -8.3858    9.6240 C.3       1 RES1    0.0000
     24 C19        1.2670   -7.2242   10.6268 C.3       1 RES1    0.0000
     25 C20        0.8948   -9.6148   10.4835 C.3       1 RES1    0.0000
     26 C21        2.6699   -8.5707    9.1161 C.3       1 RES1    0.0000
     27 H1        -1.3099    0.2175    2.6958 H         1 RES1    0.0000
     28 H2        -1.2956   -1.6750    4.0892 H         1 RES1    0.0000
     29 H3        -0.8232    0.7178    7.3319 H         1 RES1    0.0000
     30 H4        -0.8017    2.5886    5.8864 H         1 RES1    0.0000
     31 H5        -0.5870   -4.1983    7.7226 H         1 RES1    0.0000
     32 H6        -3.1352   -4.6769    6.5506 H         1 RES1    0.0000
     33 H7        -2.2190   -4.0896    9.4026 H         1 RES1    0.0000
     34 H8        -3.5217   -5.0032    8.6342 H         1 RES1    0.0000
     35 H9         0.4796   -5.0032    5.8473 H         1 RES1    0.0000
     36 H10       -0.8804   -5.3077    5.1701 H         1 RES1    0.0000
     37 H11       -1.5891   -7.4613    5.3134 H         1 RES1    0.0000
     38 H12       -0.8017   -9.5931    5.8864 H         1 RES1    0.0000
     39 H13       -1.9183   -9.2885    6.9152 H         1 RES1    0.0000
     40 H14       -0.1861  -10.0064    7.9961 H         1 RES1    0.0000
     41 H15        0.9520   -9.3973    7.1366 H         1 RES1    0.0000
     42 H16       -0.5726   -8.1356    9.0380 H         1 RES1    0.0000
     43 H17        1.3672   -6.7652    7.5533 H         1 RES1    0.0000
     44 H18        0.2720   -6.0908    8.3998 H         1 RES1    0.0000
     45 H19        1.6964   -6.5041   10.1840 H         1 RES1    0.0000
     46 H20        1.6964   -7.3960   11.4602 H         1 RES1    0.0000
     47 H21        0.3507   -7.0045   10.7830 H         1 RES1    0.0000
     48 H22       -0.0072   -9.5496   10.7570 H         1 RES1    0.0000
     49 H23        1.4602   -9.7236   11.2388 H         1 RES1    0.0000
     50 H24        0.9950  -10.3544    9.8975 H         1 RES1    0.0000
     51 H25        3.1137   -7.9398    8.5691 H         1 RES1    0.0000
     52 H26        2.7845   -9.4408    8.7515 H         1 RES1    0.0000
     53 H27        3.0350   -8.5489    9.9886 H         1 RES1    0.0000
@<TRIPOS>BOND
     1    1    5 2
     2    2    5 2
     3    3   12 1
     4    4   12 2
     5    5    6 1
     6    6    7 ar
     7    7    8 ar
     8    8    9 ar
     9    9   10 ar
    10   10   11 ar
    11   11    6 ar
    12   12    9 1
    13   13    3 1
    14   14   13 1
    15   15   14 2
    16   16   13 1
    17   17   16 1
    18   18   17 2
    19   19   18 1
    20   20   19 1
    21   21   20 1
    22   22   17 1
    23   23   21 1
    24   24   23 1
    25   25   23 1
    26   26   23 1
    27   27    7 1
    28   28    8 1
    29   29   10 1
    30   30   11 1
    31   31   13 1
    32   32   14 1
    33   33   15 1
    34   34   15 1
    35   35   16 1
    36   36   16 1
    37   37   18 1
    38   38   19 1
    39   39   19 1
    40   40   20 1
    41   41   20 1
    42   42   21 1
    43   43   22 1
    44   44   22 1
    45   45   24 1
    46   46   24 1
    47   47   24 1
    48   48   25 1
    49   49   25 1
    50   50   25 1
    51   51   26 1
    52   52   26 1
    53   53   26 1
    54   21   22 1
@<TRIPOS>SUBSTRUCTURE
     1 RES1 1

@<TRIPOS>CRYSIN
   7.1580   21.7530   13.0230  90.0000  90.0000  90.0000  29 1

