# MOL2 file generated by ConQuest
# Please check atom types

@<TRIPOS>MOLECULE
KUFROT
    44    47     1
SMALL
NO_CHARGES
****
Generated from CSD

@<TRIPOS>ATOM
      1 N1         5.0956    9.2929    2.3542 N.3       1 RES1    0.0000
      2 H1         4.6059    8.6872    2.8060 H         1 RES1    0.0000
      3 N2         7.0249   10.3514    0.2858 N.pl3     1 RES1    0.0000
      4 N3         7.1169    5.9829   -1.6657 N.pl3     1 RES1    0.0000
      5 N4         3.6247    6.9052    1.4742 N.pl3     1 RES1    0.0000
      6 O1         6.1762   11.2258    0.4027 O.2       1 RES1    0.0000
      7 O2         8.1718   10.5833   -0.0019 O.2       1 RES1    0.0000
      8 O3         8.0098    6.3640   -2.3976 O.2       1 RES1    0.0000
      9 O4         6.6383    4.8876   -1.7874 O.2       1 RES1    0.0000
     10 O5         3.2621    5.7841    1.2356 O.2       1 RES1    0.0000
     11 O6         2.9657    7.7115    2.2392 O.2       1 RES1    0.0000
     12 C1         5.4932    8.6117    1.2865 C.ar      1 RES1    0.0000
     13 C2         6.5959    8.9781    0.4320 C.ar      1 RES1    0.0000
     14 C3         7.1280    8.1202   -0.4508 C.ar      1 RES1    0.0000
     15 H2         7.9085    8.3632   -0.8951 H         1 RES1    0.0000
     16 C4         6.5720    6.9015   -0.7253 C.ar      1 RES1    0.0000
     17 C5         5.3938    6.5499   -0.0387 C.ar      1 RES1    0.0000
     18 H3         4.9796    5.7362   -0.2188 H         1 RES1    0.0000
     19 C6         4.8618    7.3875    0.8828 C.ar      1 RES1    0.0000
     20 C7         5.7970   10.0329    3.4493 C.3       1 RES1    0.0000
     21 C8         5.3736   11.5185    3.4455 C.3       1 RES1    0.0000
     22 H4         5.7160   11.9603    2.6523 H         1 RES1    0.0000
     23 H5         4.4071   11.5885    3.4408 H         1 RES1    0.0000
     24 C9         7.3249    9.9132    3.4144 C.3       1 RES1    0.0000
     25 H6         7.6729   10.3090    2.5995 H         1 RES1    0.0000
     26 H7         7.5863    8.9781    3.4351 H         1 RES1    0.0000
     27 C10        5.2871    9.3647    4.7151 C.3       1 RES1    0.0000
     28 H8         5.5429    8.4295    4.7151 H         1 RES1    0.0000
     29 H9         4.3169    9.4125    4.7405 H         1 RES1    0.0000
     30 C11        5.9387   12.1794    4.6962 C.3       1 RES1    0.0000
     31 H10        5.6792   13.1238    4.7085 H         1 RES1    0.0000
     32 C12        7.4851   12.0745    4.6377 C.3       1 RES1    0.0000
     33 H11        7.8109   12.5052    3.8322 H         1 RES1    0.0000
     34 H12        7.8717   12.5292    5.4026 H         1 RES1    0.0000
     35 C13        7.8938   10.6478    4.6434 C.3       1 RES1    0.0000
     36 H13        8.8713   10.5944    4.6236 H         1 RES1    0.0000
     37 C14        7.3783    9.9593    5.9139 C.3       1 RES1    0.0000
     38 H14        7.6471    9.0278    5.9148 H         1 RES1    0.0000
     39 H15        7.7594   10.3864    6.6967 H         1 RES1    0.0000
     40 C15        5.8706   10.0605    5.9573 C.3       1 RES1    0.0000
     41 H16        5.5393    9.6113    6.7637 H         1 RES1    0.0000
     42 C16        5.4527   11.5038    5.9884 C.3       1 RES1    0.0000
     43 H17        5.8430   11.9456    6.7599 H         1 RES1    0.0000
     44 H18        4.4881   11.5701    6.0544 H         1 RES1    0.0000
@<TRIPOS>BOND
     1    1    2 1
     2    3    6 2
     3    4    8 2
     4    5   10 2
     5    7    3 2
     6    9    4 2
     7   11    5 2
     8   12    1 1
     9   13    3 1
    10   14   13 ar
    11   15   14 1
    12   16    4 1
    13   17   16 ar
    14   18   17 1
    15   19    5 1
    16   20    1 1
    17   21   20 1
    18   22   21 1
    19   23   21 1
    20   24   20 1
    21   25   24 1
    22   26   24 1
    23   27   20 1
    24   28   27 1
    25   29   27 1
    26   30   21 1
    27   31   30 1
    28   32   30 1
    29   33   32 1
    30   34   32 1
    31   35   24 1
    32   36   35 1
    33   37   35 1
    34   38   37 1
    35   39   37 1
    36   40   27 1
    37   41   40 1
    38   42   30 1
    39   43   42 1
    40   44   42 1
    41   12   13 ar
    42   12   19 ar
    43   14   16 ar
    44   17   19 ar
    45   32   35 1
    46   37   40 1
    47   40   42 1
@<TRIPOS>SUBSTRUCTURE
     1 RES1 1

@<TRIPOS>CRYSIN
  18.4090   18.4090    9.4320  90.0000  90.0000  90.0000  86 1

