# MOL2 file generated by ConQuest
# Please check atom types

@<TRIPOS>MOLECULE
KUFWUF
    53    55     1
SMALL
NO_CHARGES
****
Generated from CSD

@<TRIPOS>ATOM
      1 C1         7.1253    8.3528    8.7578 C.ar      1 RES1    0.0000
      2 C2         8.1611    9.2942    8.5251 C.ar      1 RES1    0.0000
      3 C3         9.4426    8.8877    8.2716 C.ar      1 RES1    0.0000
      4 H1        10.1009    9.5279    8.1281 H         1 RES1    0.0000
      5 C4         9.7907    7.5183    8.2221 C.ar      1 RES1    0.0000
      6 C5         8.7477    6.5914    8.4146 C.ar      1 RES1    0.0000
      7 C6         7.4477    7.0231    8.6663 C.ar      1 RES1    0.0000
      8 H2         6.7755    6.3887    8.7758 H         1 RES1    0.0000
      9 C7         8.7618   11.6306    8.5450 C.3       1 RES1    0.0000
     10 H3         9.2921   11.5822    7.7346 H         1 RES1    0.0000
     11 H4         9.3523   11.5356    9.3086 H         1 RES1    0.0000
     12 C8         8.0256   12.9387    8.6122 C.3       1 RES1    0.0000
     13 H5         7.4769   13.0379    7.8306 H         1 RES1    0.0000
     14 H6         8.6585   13.6606    8.6514 H         1 RES1    0.0000
     15 H7         7.4727   12.9551    9.3965 H         1 RES1    0.0000
     16 C9         5.6874    8.7103    8.9743 C.2       1 RES1    0.0000
     17 C10        6.2650    9.8708   11.1134 C.3       1 RES1    0.0000
     18 H8         6.1948   10.8353   11.1990 H         1 RES1    0.0000
     19 H9         7.1724    9.6624   10.8406 H         1 RES1    0.0000
     20 C11        5.9958    9.2352   12.4607 C.ar      1 RES1    0.0000
     21 C12        6.1848    7.8905   12.6505 C.ar      1 RES1    0.0000
     22 H10        6.4478    7.3598   11.9332 H         1 RES1    0.0000
     23 C13        5.9912    7.3088   13.8925 C.ar      1 RES1    0.0000
     24 H11        6.1202    6.3939   14.0048 H         1 RES1    0.0000
     25 C14        5.6094    8.0825   14.9554 C.ar      1 RES1    0.0000
     26 H12        5.4863    7.6944   15.7924 H         1 RES1    0.0000
     27 C15        5.4087    9.4261   14.7855 C.ar      1 RES1    0.0000
     28 H13        5.1417    9.9505   15.5071 H         1 RES1    0.0000
     29 C16        5.6025   10.0122   13.5415 C.ar      1 RES1    0.0000
     30 H14        5.4696   10.9267   13.4328 H         1 RES1    0.0000
     31 C17        3.9347    9.7811   10.2835 C.3       1 RES1    0.0000
     32 H15        3.7000    9.6176   11.2098 H         1 RES1    0.0000
     33 H16        3.3760    9.2123    9.7305 H         1 RES1    0.0000
     34 C18        3.6468   11.2186    9.9536 C.ar      1 RES1    0.0000
     35 C19        3.1023   12.0565   10.8907 C.ar      1 RES1    0.0000
     36 H17        2.9050   11.7322   11.7398 H         1 RES1    0.0000
     37 C20        2.8440   13.3760   10.5891 C.ar      1 RES1    0.0000
     38 H18        2.4731   13.9331   11.2355 H         1 RES1    0.0000
     39 C21        3.1250   13.8727    9.3573 C.ar      1 RES1    0.0000
     40 H19        2.9464   14.7610    9.1517 H         1 RES1    0.0000
     41 C22        3.6620   13.0603    8.4445 C.ar      1 RES1    0.0000
     42 H20        3.8693   13.3984    7.6034 H         1 RES1    0.0000
     43 C23        3.9230   11.7167    8.7163 C.ar      1 RES1    0.0000
     44 H21        4.2816   11.1665    8.0578 H         1 RES1    0.0000
     45 N1        11.0705    7.1723    7.9769 N.3       1 RES1    0.0000
     46 N2         8.9467    5.1777    8.3066 N.pl3     1 RES1    0.0000
     47 N3         5.3381    9.4148   10.0759 N.am      1 RES1    0.0000
     48 O1         7.9633    4.4238    8.3250 O.2       1 RES1    0.0000
     49 O2        10.0968    4.7307    8.1735 O.2       1 RES1    0.0000
     50 O3         7.7627   10.5911    8.5523 O.3       1 RES1    0.0000
     51 O4         4.8479    8.3079    8.1608 O.2       1 RES1    0.0000
     52 H22       11.2609    6.2939    8.0226 H         1 RES1    0.0000
     53 H23       11.7105    7.8100    7.7887 H         1 RES1    0.0000
@<TRIPOS>BOND
     1    1    2 ar
     2    2    3 ar
     3    3    4 1
     4    5    3 ar
     5    6    5 ar
     6    7    1 ar
     7    8    7 1
     8    9   10 1
     9   11    9 1
    10   12    9 1
    11   13   12 1
    12   14   12 1
    13   15   12 1
    14   16    1 1
    15   17   18 1
    16   19   17 1
    17   20   17 1
    18   21   20 ar
    19   22   21 1
    20   23   21 ar
    21   24   23 1
    22   25   23 ar
    23   26   25 1
    24   27   25 ar
    25   28   27 1
    26   29   20 ar
    27   30   29 1
    28   31   32 1
    29   33   31 1
    30   34   31 1
    31   35   34 ar
    32   36   35 1
    33   37   35 ar
    34   38   37 1
    35   39   37 ar
    36   40   39 1
    37   41   39 ar
    38   42   41 1
    39   43   34 ar
    40   44   43 1
    41   45    5 1
    42   46    6 1
    43   47   16 1
    44   48   46 2
    45   49   46 2
    46   50    2 1
    47   51   16 2
    48   52   45 1
    49   53   45 1
    50    6    7 ar
    51    9   50 1
    52   17   47 1
    53   27   29 ar
    54   31   47 1
    55   41   43 ar
@<TRIPOS>SUBSTRUCTURE
     1 RES1 1

@<TRIPOS>CRYSIN
   8.9255   17.2482   13.5773  90.0000  95.1710  90.0000  14 1

