# MOL2 file generated by ConQuest
# Please check atom types

@<TRIPOS>MOLECULE
KUFYUH
    53    55     1
SMALL
NO_CHARGES
****
Generated from CSD

@<TRIPOS>ATOM
      1 C1         3.2548    4.3087    5.0164 C.2       1 RES1    0.0000
      2 C2         4.5093    4.8068    5.0100 C.2       1 RES1    0.0000
      3 C3         5.5502    4.2515    5.9146 C.2       1 RES1    0.0000
      4 C4         5.1945    2.9661    6.6514 C.3       1 RES1    0.0000
      5 C5         3.7677    3.0898    7.1683 C.3       1 RES1    0.0000
      6 H1         3.5345    2.2951    7.6740 H         1 RES1    0.0000
      7 H2         3.7016    3.8550    7.7602 H         1 RES1    0.0000
      8 C6         2.8057    3.2573    6.0118 C.3       1 RES1    0.0000
      9 H3         1.9341    3.5032    6.3601 H         1 RES1    0.0000
     10 H4         2.7124    2.4082    5.5537 H         1 RES1    0.0000
     11 C7         2.2031    4.6937    4.0343 C.2       1 RES1    0.0000
     12 C8         0.0428    4.1129    3.2390 C.3       1 RES1    0.0000
     13 H5        -0.3504    4.9601    3.4597 H         1 RES1    0.0000
     14 H6        -0.6137    3.4195    3.3427 H         1 RES1    0.0000
     15 H7         0.3509    4.1287    2.3296 H         1 RES1    0.0000
     16 C9         6.7570    4.8163    6.0545 C.2       1 RES1    0.0000
     17 H8         6.9174    5.5992    5.5800 H         1 RES1    0.0000
     18 C10        7.8729    4.2917    6.9138 C.3       1 RES1    0.0000
     19 H9         8.6884    4.3006    6.3698 H         1 RES1    0.0000
     20 C11        7.6282    2.8342    7.3461 C.3       1 RES1    0.0000
     21 H10        7.7013    2.2623    6.5536 H         1 RES1    0.0000
     22 C12        6.1789    2.7976    7.8301 C.3       1 RES1    0.0000
     23 H11        6.0457    3.5473    8.4479 H         1 RES1    0.0000
     24 C13        4.9654    5.9203    4.0903 C.3       1 RES1    0.0000
     25 H12        4.3188    6.0426    3.3911 H         1 RES1    0.0000
     26 H13        5.8133    5.6897    3.7051 H         1 RES1    0.0000
     27 H14        5.0528    6.7337    4.5916 H         1 RES1    0.0000
     28 C14        8.1096    5.2347    8.1093 C.3       1 RES1    0.0000
     29 H15        8.3647    6.1105    7.7795 H         1 RES1    0.0000
     30 H16        7.2819    5.3334    8.6062 H         1 RES1    0.0000
     31 C15        9.2018    4.7104    9.0468 C.3       1 RES1    0.0000
     32 H17       10.0461    4.6649    8.5710 H         1 RES1    0.0000
     33 H18        9.3093    5.3187    9.7952 H         1 RES1    0.0000
     34 C16        8.8282    3.3217    9.5622 C.3       1 RES1    0.0000
     35 H19        7.9515    3.3991    9.9939 H         1 RES1    0.0000
     36 C17        8.6653    2.3666    8.3731 C.3       1 RES1    0.0000
     37 H20        9.5229    2.2691    7.9308 H         1 RES1    0.0000
     38 H21        8.4051    1.4931    8.7065 H         1 RES1    0.0000
     39 C18        9.7813    2.7398   10.5858 C.2       1 RES1    0.0000
     40 C19       11.0168    3.1898   10.7854 C.2       1 RES1    0.0000
     41 H22       11.5619    2.7849   11.4204 H         1 RES1    0.0000
     42 H23       11.3343    3.9104   10.2912 H         1 RES1    0.0000
     43 C20        9.2456    1.5791   11.3720 C.3       1 RES1    0.0000
     44 H24        9.0669    0.8461   10.7793 H         1 RES1    0.0000
     45 H25        8.4337    1.8392   11.8144 H         1 RES1    0.0000
     46 H26        9.8938    1.3099   12.0272 H         1 RES1    0.0000
     47 N1         5.8938    1.5196    8.5764 N.pl3     1 RES1    0.0000
     48 O1         5.3238    1.9042    5.7158 O.3       1 RES1    0.0000
     49 H27        4.7996    1.3042    5.9098 H         1 RES1    0.0000
     50 O2         5.4464    1.6249    9.7070 O.2       1 RES1    0.0000
     51 O3         6.1230    0.4502    8.0406 O.2       1 RES1    0.0000
     52 O4         2.2102    5.6069    3.2397 O.2       1 RES1    0.0000
     53 O5         1.1583    3.8544    4.1211 O.3       1 RES1    0.0000
@<TRIPOS>BOND
     1    1    2 2
     2    2    3 1
     3    3    4 1
     4    4    5 1
     5    5    6 1
     6    7    5 1
     7    8    1 1
     8    9    8 1
     9   10    8 1
    10   11    1 1
    11   12   13 1
    12   14   12 1
    13   15   12 1
    14   16    3 2
    15   17   16 1
    16   18   16 1
    17   19   18 1
    18   20   18 1
    19   21   20 1
    20   22    4 1
    21   23   22 1
    22   24    2 1
    23   25   24 1
    24   26   24 1
    25   27   24 1
    26   28   18 1
    27   29   28 1
    28   30   28 1
    29   31   28 1
    30   32   31 1
    31   33   31 1
    32   34   31 1
    33   35   34 1
    34   36   20 1
    35   37   36 1
    36   38   36 1
    37   39   34 1
    38   40   39 2
    39   41   40 1
    40   42   40 1
    41   43   39 1
    42   44   43 1
    43   45   43 1
    44   46   43 1
    45   47   22 1
    46   48    4 1
    47   49   48 1
    48   50   47 2
    49   51   47 2
    50   52   11 2
    51   53   11 1
    52    5    8 1
    53   12   53 1
    54   20   22 1
    55   34   36 1
@<TRIPOS>SUBSTRUCTURE
     1 RES1 1

@<TRIPOS>CRYSIN
   8.9810   11.3115    9.4917  90.0000 112.0990  90.0000   4 1

