# MOL2 file generated by ConQuest
# Please check atom types

@<TRIPOS>MOLECULE
KUGSUA
    30    31     1
SMALL
NO_CHARGES
****
Generated from CSD

@<TRIPOS>ATOM
      1 O1         0.9988   15.0672    8.8877 O.3       1 RES1    0.0000
      2 O2        -2.9623   14.3235   11.4579 O.2       1 RES1    0.0000
      3 N1         1.2281   16.4540    8.9517 N.2       1 RES1    0.0000
      4 N2        -2.4244   12.8925   13.0773 N.am      1 RES1    0.0000
      5 C1        -0.7767   14.5459   12.3636 C.ar      1 RES1    0.0000
      6 C2        -0.4141   15.4040   11.3429 C.ar      1 RES1    0.0000
      7 C3         0.8052   16.0612   11.3405 C.ar      1 RES1    0.0000
      8 C4         1.6636   15.8744   12.4110 C.ar      1 RES1    0.0000
      9 C5         1.3058   15.0259   13.4483 C.ar      1 RES1    0.0000
     10 C6         0.1015   14.3513   13.4151 C.ar      1 RES1    0.0000
     11 C7        -2.1237   13.9040   12.2699 C.2       1 RES1    0.0000
     12 C8         1.1670   16.9050   10.1633 C.2       1 RES1    0.0000
     13 C9         1.3939   18.3648   10.3198 C.ar      1 RES1    0.0000
     14 C10        0.8742   19.0477   11.4140 C.ar      1 RES1    0.0000
     15 C11        1.0028   20.4281   11.5076 C.ar      1 RES1    0.0000
     16 C12        1.6470   21.1260   10.5095 C.ar      1 RES1    0.0000
     17 C13        2.1880   20.4566    9.4461 C.ar      1 RES1    0.0000
     18 C14        2.0761   19.0840    9.3358 C.ar      1 RES1    0.0000
     19 H1        -1.0075   15.5448   10.7051 H         1 RES1    0.0000
     20 H2         2.5228   16.3103   12.4122 H         1 RES1    0.0000
     21 H3         1.9595   14.8832   14.2023 H         1 RES1    0.0000
     22 H4        -0.0714   13.7337   14.1312 H         1 RES1    0.0000
     23 H5         0.4046   18.5625   12.1158 H         1 RES1    0.0000
     24 H6         0.6188   20.8873   12.2818 H         1 RES1    0.0000
     25 H7         1.6501   22.1328   10.5035 H         1 RES1    0.0000
     26 H8         2.6339   20.9133    8.6541 H         1 RES1    0.0000
     27 H9         2.4752   18.5884    8.5475 H         1 RES1    0.0000
     28 H10       -1.8009   12.4987   13.5147 H         1 RES1    0.0000
     29 H11       -3.2209   12.4442   13.0286 H         1 RES1    0.0000
     30 H12        1.1503   14.8676    8.0614 H         1 RES1    0.0000
@<TRIPOS>BOND
     1    1    3 1
     2    2   11 2
     3    3   12 2
     4    4   11 1
     5    5    6 ar
     6    6    7 ar
     7    7    8 ar
     8    8    9 ar
     9    9   10 ar
    10   10    5 ar
    11   11    5 1
    12   12    7 1
    13   13   12 1
    14   14   13 ar
    15   15   14 ar
    16   16   15 ar
    17   17   16 ar
    18   18   13 ar
    19   19    6 1
    20   20    8 1
    21   21    9 1
    22   22   10 1
    23   23   14 1
    24   24   15 1
    25   25   16 1
    26   26   17 1
    27   27   18 1
    28   28    4 1
    29   29    4 1
    30   30    1 1
    31   17   18 ar
@<TRIPOS>SUBSTRUCTURE
     1 RES1 1

@<TRIPOS>CRYSIN
   7.9333   25.9470   11.8550  90.0000  90.0000  90.0000  61 1

