# MOL2 file generated by ConQuest
# Please check atom types

@<TRIPOS>MOLECULE
KUHCEW
    30    31     1
SMALL
NO_CHARGES
****
Generated from CSD

@<TRIPOS>ATOM
      1 N1         7.7810    3.0115   10.7362 N.2       1 RES1    0.0000
      2 N2         6.6618    2.5742    6.6790 N.pl3     1 RES1    0.0000
      3 O1         5.9991    2.1448    5.7650 O.2       1 RES1    0.0000
      4 O2         6.6267    3.7427    7.0201 O.2       1 RES1    0.0000
      5 C1         7.9905    1.8778    8.6808 C.ar      1 RES1    0.0000
      6 C2         7.6005    1.6676    7.3570 C.ar      1 RES1    0.0000
      7 C3         8.0667    0.6127    6.5996 C.ar      1 RES1    0.0000
      8 C4         8.9483   -0.2759    7.1510 C.ar      1 RES1    0.0000
      9 C5         9.3387   -0.1185    8.4641 C.ar      1 RES1    0.0000
     10 C6         8.8734    0.9424    9.2043 C.ar      1 RES1    0.0000
     11 C7         7.5068    2.9587    9.5540 C.2       1 RES1    0.0000
     12 C8         7.3304    4.0535   11.5815 C.ar      1 RES1    0.0000
     13 C9         7.7804    4.0316   12.8924 C.ar      1 RES1    0.0000
     14 C10        7.3806    4.9979   13.7893 C.ar      1 RES1    0.0000
     15 C11        6.5245    6.0091   13.4224 C.ar      1 RES1    0.0000
     16 C12        6.0847    6.0330   12.1158 C.ar      1 RES1    0.0000
     17 C13        6.4810    5.0746   11.2061 C.ar      1 RES1    0.0000
     18 C14        6.0731    7.0641   14.4072 C.3       1 RES1    0.0000
     19 H1         7.7727    0.5021    5.6921 H         1 RES1    0.0000
     20 H2         9.2948   -1.0032    6.6275 H         1 RES1    0.0000
     21 H3         9.9380   -0.7511    8.8674 H         1 RES1    0.0000
     22 H4         9.1583    1.0380   10.1161 H         1 RES1    0.0000
     23 H5         6.9731    3.6580    9.1700 H         1 RES1    0.0000
     24 H6         8.3762    3.3353   13.1778 H         1 RES1    0.0000
     25 H7         7.7040    4.9641   14.6925 H         1 RES1    0.0000
     26 H8         5.4880    6.7323   11.8390 H         1 RES1    0.0000
     27 H9         6.1700    5.1245   10.2985 H         1 RES1    0.0000
     28 H10        6.4703    6.9017   15.2654 H         1 RES1    0.0000
     29 H11        5.1176    7.0282   14.4844 H         1 RES1    0.0000
     30 H12        6.3359    7.9327   14.0918 H         1 RES1    0.0000
@<TRIPOS>BOND
     1    1   11 2
     2    2    3 2
     3    4    2 2
     4    5    6 ar
     5    6    2 1
     6    7    6 ar
     7    8    7 ar
     8    9    8 ar
     9   10    5 ar
    10   11    5 1
    11   12    1 1
    12   13   12 ar
    13   14   13 ar
    14   15   14 ar
    15   16   15 ar
    16   17   12 ar
    17   18   15 1
    18   19    7 1
    19   20    8 1
    20   21    9 1
    21   22   10 1
    22   23   11 1
    23   24   13 1
    24   25   14 1
    25   26   16 1
    26   27   17 1
    27   28   18 1
    28   29   18 1
    29   30   18 1
    30    9   10 ar
    31   16   17 ar
@<TRIPOS>SUBSTRUCTURE
     1 RES1 1

@<TRIPOS>CRYSIN
  11.3620    9.9620   22.1130  90.0000 104.0100  90.0000  15 1

