# MOL2 file generated by ConQuest
# Please check atom types

@<TRIPOS>MOLECULE
KUHVUE
    34    35     1
SMALL
USER_CHARGES
****
Generated from CSD

@<TRIPOS>ATOM
      1 C1         3.5123    2.7460   -0.8539 C.2       1 RES1    0.0000
      2 C2         4.5608    2.0117   -1.1958 C.2       1 RES1    0.0000
      3 C3         5.2355    1.2564   -0.2249 C.2       1 RES1    0.0000
      4 C4         4.8612    1.2486    1.0778 C.2       1 RES1    0.0000
      5 N1         3.7762    2.0150    1.4003 N.pl3     1 RES1    0.0000
      6 C5         3.0905    2.7738    0.4906 C.2       1 RES1    0.0000
      7 N2         3.3156    2.1577    2.6426 N.2       1 RES1    0.0000
      8 N3         2.3219    3.0434    2.4911 N.pl3     1 RES1    1.0000
      9 C6         2.1298    3.4371    1.2209 C.2       1 RES1    0.0000
     10 C7         1.0504    4.3305    0.7638 C.3       1 RES1    0.0000
     11 C8         1.6667    3.5145    3.6814 C.2       1 RES1    0.0000
     12 C9         1.1870    2.6643    4.6124 C.2       1 RES1    0.0000
     13 C10        1.0302    1.2745    4.6663 C.2       1 RES1   -1.0000
     14 N4         0.9224    0.4814    3.5150 N.pl3     1 RES1    0.0000
     15 O1         0.5582    1.0396    2.4669 O.2       1 RES1    0.0000
     16 O2         1.1819   -0.7202    3.5420 O.2       1 RES1    0.0000
     17 N5         0.8809    0.6670    5.9179 N.pl3     1 RES1    0.0000
     18 O3         0.5513   -0.5076    6.0517 O.2       1 RES1    0.0000
     19 O4         1.0932    1.3818    6.9149 O.2       1 RES1    0.0000
     20 C11        1.8424    4.9442    3.8886 C.2       1 RES1    0.0000
     21 O5         2.5228    5.6494    3.1973 O.2       1 RES1    0.0000
     22 O6         1.1803    5.3820    4.9701 O.3       1 RES1    0.0000
     23 C12        1.2653    6.8014    5.2126 C.3       1 RES1    0.0000
     24 H1         3.0754    3.2632   -1.3715 H         1 RES1    0.0000
     25 H2         4.8380    1.8884   -2.1064 H         1 RES1    0.0000
     26 H3         5.9707    0.6392   -0.4683 H         1 RES1    0.0000
     27 H4         5.2376    0.7931    1.7831 H         1 RES1    0.0000
     28 H5         1.1645    4.5493   -0.1645 H         1 RES1    0.0000
     29 H6         1.0466    5.1373    1.2841 H         1 RES1    0.0000
     30 H7         0.2169    3.8688    0.8827 H         1 RES1    0.0000
     31 H8         0.9212    3.1137    5.4384 H         1 RES1    0.0000
     32 H9         0.8439    6.9656    6.0591 H         1 RES1    0.0000
     33 H10        0.8801    7.3746    4.5464 H         1 RES1    0.0000
     34 H11        2.2062    6.9799    5.2842 H         1 RES1    0.0000
@<TRIPOS>BOND
     1    1    2 2
     2    2    3 1
     3    3    4 2
     4    4    5 1
     5    5    6 1
     6    6    1 1
     7    7    5 1
     8    8    7 2
     9    9    6 2
    10   10    9 1
    11   11    8 1
    12   12   11 2
    13   13   12 1
    14   14   13 1
    15   15   14 2
    16   16   14 2
    17   17   13 1
    18   18   17 2
    19   19   17 2
    20   20   11 1
    21   21   20 2
    22   22   20 1
    23   23   22 1
    24   24    1 1
    25   25    2 1
    26   26    3 1
    27   27    4 1
    28   28   10 1
    29   29   10 1
    30   30   10 1
    31   31   12 1
    32   32   23 1
    33   33   23 1
    34   34   23 1
    35    8    9 1
@<TRIPOS>SUBSTRUCTURE
     1 RES1 1

@<TRIPOS>CRYSIN
   7.4560   10.2350   10.3710 116.1100  92.4400  92.2900   2 1

