# MOL2 file generated by ConQuest
# Please check atom types

@<TRIPOS>MOLECULE
KUKFIG
    30    32     1
SMALL
NO_CHARGES
****
Generated from CSD

@<TRIPOS>ATOM
      1 O1        -1.0541    4.0353    1.5895 O.3       1 RES1    0.0000
      2 O2         0.0138    5.8051    3.6926 O.3       1 RES1    0.0000
      3 H1        -0.1942    6.1350    4.4490 H         1 RES1    0.0000
      4 N1        -0.4372    4.4360    3.9162 N.3       1 RES1    0.0000
      5 C1         1.1972    3.4005    2.2740 C.3       1 RES1    0.0000
      6 H2         1.1302    2.4744    1.9604 H         1 RES1    0.0000
      7 C2         2.6834    3.8069    2.3039 C.3       1 RES1    0.0000
      8 H3         3.2522    3.0214    2.2944 H         1 RES1    0.0000
      9 H4         2.9020    4.3578    1.5361 H         1 RES1    0.0000
     10 C3         2.8738    4.5852    3.5859 C.3       1 RES1    0.0000
     11 H5         2.6439    5.5193    3.4616 H         1 RES1    0.0000
     12 H6         3.7912    4.5240    3.8952 H         1 RES1    0.0000
     13 C4         1.9141    3.9117    4.5795 C.3       1 RES1    0.0000
     14 H7         1.6477    4.5358    5.2731 H         1 RES1    0.0000
     15 H8         2.3377    3.1458    4.9967 H         1 RES1    0.0000
     16 C5         0.6923    3.4697    3.7516 C.3       1 RES1    0.0000
     17 C6         0.3454    4.2864    1.3724 C.3       1 RES1    0.0000
     18 H9         0.5396    5.2190    1.5566 H         1 RES1    0.0000
     19 H10        0.5656    4.1111    0.4439 H         1 RES1    0.0000
     20 C7        -1.4939    4.1467    2.9565 C.3       1 RES1    0.0000
     21 H11       -2.1646    4.8597    3.0095 H         1 RES1    0.0000
     22 C8        -2.1474    2.8347    3.3866 C.3       1 RES1    0.0000
     23 H12       -2.8406    2.5977    2.7516 H         1 RES1    0.0000
     24 H13       -2.5644    2.9527    4.2548 H         1 RES1    0.0000
     25 C9        -1.1241    1.7025    3.4657 C.3       1 RES1    0.0000
     26 H14       -0.8647    1.4394    2.5687 H         1 RES1    0.0000
     27 H15       -1.5262    0.9342    3.8993 H         1 RES1    0.0000
     28 C10        0.1214    2.1356    4.2487 C.3       1 RES1    0.0000
     29 H16        0.8024    1.4490    4.1675 H         1 RES1    0.0000
     30 H17       -0.1069    2.2180    5.1878 H         1 RES1    0.0000
@<TRIPOS>BOND
     1    1   17 1
     2    2    3 1
     3    4    2 1
     4    5    6 1
     5    7    5 1
     6    8    7 1
     7    9    7 1
     8   10    7 1
     9   11   10 1
    10   12   10 1
    11   13   10 1
    12   14   13 1
    13   15   13 1
    14   16    4 1
    15   17    5 1
    16   18   17 1
    17   19   17 1
    18   20    1 1
    19   21   20 1
    20   22   20 1
    21   23   22 1
    22   24   22 1
    23   25   22 1
    24   26   25 1
    25   27   25 1
    26   28   16 1
    27   29   28 1
    28   30   28 1
    29    4   20 1
    30    5   16 1
    31   13   16 1
    32   25   28 1
@<TRIPOS>SUBSTRUCTURE
     1 RES1 1

@<TRIPOS>CRYSIN
   8.5510   10.7255   10.3379  90.0000  96.3300  90.0000 231 1

