# MOL2 file generated by ConQuest
# Please check atom types

@<TRIPOS>MOLECULE
KUKLAE
    45    47     1
SMALL
NO_CHARGES
****
Generated from CSD

@<TRIPOS>ATOM
      1 O1         3.5257   13.4126    4.4288 O.3       1 RES1    0.0000
      2 O2         4.2737    9.5477    1.4663 O.2       1 RES1    0.0000
      3 O3         5.8211    7.5550    1.1519 O.3       1 RES1    0.0000
      4 O4         9.0982    8.1243    6.3704 O.2       1 RES1    0.0000
      5 O5         7.5745    9.5690    6.7925 O.2       1 RES1    0.0000
      6 N1         8.0861    8.7291    6.0682 N.pl3     1 RES1    0.0000
      7 C1         2.2101   11.3512    4.6980 C.3       1 RES1    0.0000
      8 C2         1.3984   10.5915    3.6856 C.2       1 RES1    0.0000
      9 C3         1.8935   10.8103    2.4872 C.2       1 RES1    0.0000
     10 C4         3.0705   11.7429    2.6634 C.3       1 RES1    0.0000
     11 C5         4.2118   10.9625    3.3724 C.3       1 RES1    0.0000
     12 C6         3.5956   10.6440    4.7689 C.3       1 RES1    0.0000
     13 C7         2.5537   12.5715    3.8489 C.3       1 RES1    0.0000
     14 C8         4.7299    9.7981    2.5802 C.2       1 RES1    0.0000
     15 C9         5.8381    8.9537    3.1106 C.ar      1 RES1    0.0000
     16 C10        6.3188    7.8854    2.3527 C.ar      1 RES1    0.0000
     17 C11        7.3702    7.0890    2.8341 C.ar      1 RES1    0.0000
     18 C12        7.9326    7.3566    4.0453 C.ar      1 RES1    0.0000
     19 C13        7.4678    8.4229    4.7806 C.ar      1 RES1    0.0000
     20 C14        6.4336    9.2198    4.3352 C.ar      1 RES1    0.0000
     21 C15        3.2719   14.8252    4.4613 C.3       1 RES1    0.0000
     22 C16        4.4980   15.4026    5.1274 C.3       1 RES1    0.0000
     23 C17        3.1368   15.3803    3.0641 C.3       1 RES1    0.0000
     24 C18        2.0277   15.1460    5.2828 C.3       1 RES1    0.0000
     25 H1         1.8848   11.5907    5.6033 H         1 RES1    0.0000
     26 H2         0.7412    9.9879    3.8844 H         1 RES1    0.0000
     27 H3         1.6404   10.4631    1.5721 H         1 RES1    0.0000
     28 H4         3.3514   12.2203    1.8902 H         1 RES1    0.0000
     29 H5         4.9847   11.6611    3.4990 H         1 RES1    0.0000
     30 H6         3.5024    9.6823    4.9243 H         1 RES1    0.0000
     31 H7         4.1101   11.0833    5.5422 H         1 RES1    0.0000
     32 H8         5.2170    8.2561    0.9359 H         1 RES1    0.0000
     33 H9         7.6367    6.3495    2.2389 H         1 RES1    0.0000
     34 H10        8.6197    6.8140    4.4227 H         1 RES1    0.0000
     35 H11        6.1628   10.0242    4.8876 H         1 RES1    0.0000
     36 H12        1.7582   13.0927    3.5724 H         1 RES1    0.0000
     37 H13        4.4125   16.4179    5.1262 H         1 RES1    0.0000
     38 H14        4.5521   15.1221    6.0866 H         1 RES1    0.0000
     39 H15        5.2530   15.1691    4.5940 H         1 RES1    0.0000
     40 H16        3.9319   15.1271    2.5753 H         1 RES1    0.0000
     41 H17        2.4530   14.9361    2.5753 H         1 RES1    0.0000
     42 H18        3.0180   16.3879    3.1320 H         1 RES1    0.0000
     43 H19        1.2150   14.6706    4.8509 H         1 RES1    0.0000
     44 H20        1.9558   16.2881    5.3709 H         1 RES1    0.0000
     45 H21        2.2217   14.7454    6.1722 H         1 RES1    0.0000
@<TRIPOS>BOND
     1    1   13 1
     2    2   14 2
     3    3   16 1
     4    4    6 2
     5    5    6 2
     6    6   19 1
     7    7    8 1
     8    8    9 2
     9    9   10 1
    10   10   11 1
    11   11   12 1
    12   12    7 1
    13   13    7 1
    14   14   11 1
    15   15   14 1
    16   16   15 ar
    17   17   16 ar
    18   18   17 ar
    19   19   18 ar
    20   20   15 ar
    21   21    1 1
    22   22   21 1
    23   23   21 1
    24   24   21 1
    25   25    7 1
    26   26    8 1
    27   27    9 1
    28   28   10 1
    29   29   11 1
    30   30   12 1
    31   31   12 1
    32   32    3 1
    33   33   17 1
    34   34   18 1
    35   35   20 1
    36   36   13 1
    37   37   22 1
    38   38   22 1
    39   39   22 1
    40   40   23 1
    41   41   23 1
    42   42   23 1
    43   43   24 1
    44   44   24 1
    45   45   24 1
    46   10   13 1
    47   19   20 ar
@<TRIPOS>SUBSTRUCTURE
     1 RES1 1

@<TRIPOS>CRYSIN
   9.2340   14.7140    6.1550  96.3300  90.9200  86.8000   2 1

