# MOL2 file generated by ConQuest
# Please check atom types

@<TRIPOS>MOLECULE
KUKLIM
    45    47     1
SMALL
NO_CHARGES
****
Generated from CSD

@<TRIPOS>ATOM
      1 O1         3.3251   12.9422    3.8205 O.3       1 RES1    0.0000
      2 O2        -1.0349   10.9622    1.0047 O.2       1 RES1    0.0000
      3 O3        -0.9321    9.7884   -1.2426 O.3       1 RES1    0.0000
      4 O4         2.6334    6.0648    2.2168 O.2       1 RES1    0.0000
      5 O5         3.1915    5.4047    0.2534 O.2       1 RES1    0.0000
      6 N1         2.5774    6.1416    0.9940 N.pl3     1 RES1    0.0000
      7 C1         0.9122   12.8674    3.7195 C.3       1 RES1    0.0000
      8 C2         1.0052   13.4866    2.3603 C.2       1 RES1    0.0000
      9 C3         1.6136   12.6394    1.5666 C.2       1 RES1    0.0000
     10 C4         1.9578   11.4211    2.3794 C.3       1 RES1    0.0000
     11 C5         0.6051   10.6900    2.7135 C.3       1 RES1    0.0000
     12 C6        -0.1234   11.7250    3.5838 C.3       1 RES1    0.0000
     13 C7         2.2146   12.0742    3.7529 C.3       1 RES1    0.0000
     14 C8         4.5451   12.4812    4.4056 C.3       1 RES1    0.0000
     15 C9         5.0568   11.2646    3.6597 C.3       1 RES1    0.0000
     16 C10        5.4990   13.6462    4.1898 C.3       1 RES1    0.0000
     17 C11        4.3766   12.1950    5.8909 C.3       1 RES1    0.0000
     18 C12       -0.1023   10.2889    1.4452 C.2       1 RES1    0.0000
     19 C13        0.3716    9.1293    0.6622 C.ar      1 RES1    0.0000
     20 C14       -0.0444    8.9542   -0.6736 C.ar      1 RES1    0.0000
     21 C15        0.4576    7.9156   -1.4410 C.ar      1 RES1    0.0000
     22 C16        1.3235    7.0106   -0.9133 C.ar      1 RES1    0.0000
     23 C17        1.6910    7.1424    0.4142 C.ar      1 RES1    0.0000
     24 C18        1.2468    8.1805    1.1918 C.ar      1 RES1    0.0000
     25 H1         0.7554   13.3892    4.4648 H         1 RES1    0.0000
     26 H2         0.5594   14.2874    2.1577 H         1 RES1    0.0000
     27 H3         1.7739   12.6918    0.6037 H         1 RES1    0.0000
     28 H4         2.6144   10.8093    2.0202 H         1 RES1    0.0000
     29 H5         0.8189    9.9150    3.2276 H         1 RES1    0.0000
     30 H6        -0.9226   12.0605    3.2036 H         1 RES1    0.0000
     31 H7        -0.3416   11.3809    4.5006 H         1 RES1    0.0000
     32 H8         2.2488   11.3857    4.4767 H         1 RES1    0.0000
     33 H9         4.4625   10.5334    3.8551 H         1 RES1    0.0000
     34 H10        5.2066   11.5040    2.6538 H         1 RES1    0.0000
     35 H11        5.9685   11.0200    4.0583 H         1 RES1    0.0000
     36 H12        5.6244   13.8050    3.2455 H         1 RES1    0.0000
     37 H13        6.3960   13.4236    4.6022 H         1 RES1    0.0000
     38 H14        5.0972   14.4306    4.6859 H         1 RES1    0.0000
     39 H15        5.2432   12.0026    6.1921 H         1 RES1    0.0000
     40 H16        3.8273   13.1482    6.1264 H         1 RES1    0.0000
     41 H17        3.7724   11.4121    6.0427 H         1 RES1    0.0000
     42 H18        0.1722    7.8441   -2.2892 H         1 RES1    0.0000
     43 H19        1.7171    6.3036   -1.4165 H         1 RES1    0.0000
     44 H20        1.5084    8.2306    2.0381 H         1 RES1    0.0000
     45 H21       -1.2107   10.3070   -0.5738 H         1 RES1    0.0000
@<TRIPOS>BOND
     1    1   13 1
     2    2   18 2
     3    3   20 1
     4    4    6 2
     5    5    6 2
     6    6   23 1
     7    7    8 1
     8    8    9 2
     9    9   10 1
    10   10   11 1
    11   11   12 1
    12   12    7 1
    13   13    7 1
    14   14    1 1
    15   15   14 1
    16   16   14 1
    17   17   14 1
    18   18   11 1
    19   19   18 1
    20   20   19 ar
    21   21   20 ar
    22   22   21 ar
    23   23   22 ar
    24   24   19 ar
    25   25    7 1
    26   26    8 1
    27   27    9 1
    28   28   10 1
    29   29   11 1
    30   30   12 1
    31   31   12 1
    32   32   13 1
    33   33   15 1
    34   34   15 1
    35   35   15 1
    36   36   16 1
    37   37   16 1
    38   38   16 1
    39   39   17 1
    40   40   17 1
    41   41   17 1
    42   42   21 1
    43   43   22 1
    44   44   24 1
    45   45    3 1
    46   10   13 1
    47   23   24 ar
@<TRIPOS>SUBSTRUCTURE
     1 RES1 1

@<TRIPOS>CRYSIN
   9.1110   15.6980    6.1400 100.0900  96.8200  98.8200   2 1

