# MOL2 file generated by ConQuest
# Please check atom types

@<TRIPOS>MOLECULE
KULRUG
    25    25     1
SMALL
NO_CHARGES
****
Generated from CSD

@<TRIPOS>ATOM
      1 O1         5.7140    5.2528    9.3811 O.3       1 RES1    0.0000
      2 O2        -0.0134    3.2156   -0.1629 O.2       1 RES1    0.0000
      3 O3        -1.7125    1.9397   -0.4332 O.2       1 RES1    0.0000
      4 N1        -0.7039    2.2547    0.1662 N.pl3     1 RES1    0.0000
      5 C1         4.8243    4.5990    8.4904 C.3       1 RES1    0.0000
      6 H1         4.2235    5.2527    8.0993 H         1 RES1    0.0000
      7 H2         4.2892    3.9577    8.9845 H         1 RES1    0.0000
      8 C2         5.5670    3.8891    7.3970 C.3       1 RES1    0.0000
      9 H3         6.1244    4.5264    6.9228 H         1 RES1    0.0000
     10 H4         6.1473    3.2177    7.7880 H         1 RES1    0.0000
     11 C3         4.6506    3.2444    6.4453 C.1       1 RES1    0.0000
     12 C4         3.8602    2.7541    5.7086 C.1       1 RES1    0.0000
     13 C5         2.9292    2.2034    4.8556 C.1       1 RES1    0.0000
     14 C6         2.1192    1.7426    4.1178 C.1       1 RES1    0.0000
     15 C7         1.1114    1.2233    3.2360 C.ar      1 RES1    0.0000
     16 C8         0.7248    1.9692    2.1226 C.ar      1 RES1    0.0000
     17 H5         1.1381    2.7784    1.9232 H         1 RES1    0.0000
     18 C9        -0.2874    1.4742    1.3283 C.ar      1 RES1    0.0000
     19 C10       -0.9050    0.2691    1.5676 C.ar      1 RES1    0.0000
     20 H6        -1.5830   -0.0392    1.0103 H         1 RES1    0.0000
     21 C11       -0.4948   -0.4669    2.6510 C.ar      1 RES1    0.0000
     22 H7        -0.8956   -1.2868    2.8294 H         1 RES1    0.0000
     23 C12        0.5037   -0.0035    3.4764 C.ar      1 RES1    0.0000
     24 H8         0.7746   -0.5170    4.2042 H         1 RES1    0.0000
     25 H9         6.0901    4.4314    9.9372 H         1 RES1    0.0000
@<TRIPOS>BOND
     1    1    5 1
     2    2    4 2
     3    3    4 2
     4    4   18 1
     5    5    6 1
     6    7    5 1
     7    8    5 1
     8    9    8 1
     9   10    8 1
    10   11    8 1
    11   12   11 3
    12   13   12 1
    13   14   13 3
    14   15   14 1
    15   16   15 ar
    16   17   16 1
    17   18   16 ar
    18   19   18 ar
    19   20   19 1
    20   21   19 ar
    21   22   21 1
    22   23   15 ar
    23   24   23 1
    24   25    1 1
    25   21   23 ar
@<TRIPOS>SUBSTRUCTURE
     1 RES1 1

@<TRIPOS>CRYSIN
   4.9159    9.8984   11.3114  88.7850  78.3490  82.9130   2 1

