# MOL2 file generated by ConQuest
# Please check atom types

@<TRIPOS>MOLECULE
KUMJEJ
    66    68     1
SMALL
NO_CHARGES
****
Generated from CSD

@<TRIPOS>ATOM
      1 N1         4.8492   11.7878    1.8423 N.am      1 RES1    0.0000
      2 N2         2.0381    9.2701    8.4780 N.pl3     1 RES1    0.0000
      3 O1         4.7539   11.8972    4.1521 O.2       1 RES1    0.0000
      4 O2         5.1881   13.4475    0.3786 O.3       1 RES1    0.0000
      5 O3         4.5476   13.9740    2.4755 O.2       1 RES1    0.0000
      6 O4         6.1525    9.4922    6.9416 O.3       1 RES1    0.0000
      7 O5         6.0115    7.5758    5.8546 O.2       1 RES1    0.0000
      8 O6         1.6254    8.1337    8.5760 O.2       1 RES1    0.0000
      9 O7         1.5657   10.1693    9.1376 O.2       1 RES1    0.0000
     10 C1         4.7054   11.2494    3.1341 C.2       1 RES1    0.0000
     11 C2         4.5065    9.7620    2.9707 C.2       1 RES1    0.0000
     12 C3         4.6018    9.5356    1.5262 C.ar      1 RES1    0.0000
     13 C4         4.4832    8.3905    0.7471 C.ar      1 RES1    0.0000
     14 H1         4.2806    7.5671    1.1536 H         1 RES1    0.0000
     15 C5         4.6624    8.4533   -0.6226 C.ar      1 RES1    0.0000
     16 H2         4.6260    7.6646   -1.1333 H         1 RES1    0.0000
     17 C6         4.8921    9.6580   -1.2426 C.ar      1 RES1    0.0000
     18 H3         4.9845    9.6883   -2.1777 H         1 RES1    0.0000
     19 C7         4.9892   10.8226   -0.5080 C.ar      1 RES1    0.0000
     20 H4         5.1685   11.6427   -0.9300 H         1 RES1    0.0000
     21 C8         4.8174   10.7576    0.8640 C.ar      1 RES1    0.0000
     22 C9         4.0267    7.4339    3.6845 C.3       1 RES1    0.0000
     23 H5         3.2480    7.3559    3.1128 H         1 RES1    0.0000
     24 H6         3.8633    6.9680    4.5205 H         1 RES1    0.0000
     25 H7         4.7950    7.0417    3.2398 H         1 RES1    0.0000
     26 C10        4.3021    8.9040    3.9686 C.2       1 RES1    0.0000
     27 C11        4.3544    9.3091    5.4361 C.3       1 RES1    0.0000
     28 H8         4.4253   10.2950    5.4887 H         1 RES1    0.0000
     29 C12        3.1052    8.8563    6.2591 C.3       1 RES1    0.0000
     30 H9         3.1491    7.8770    6.3984 H         1 RES1    0.0000
     31 C13        3.2041    9.5529    7.6115 C.3       1 RES1    0.0000
     32 H10        4.0211    9.2571    8.0653 H         1 RES1    0.0000
     33 H11        3.2723   10.5203    7.4707 H         1 RES1    0.0000
     34 C14        4.8436   13.1940    1.6174 C.2       1 RES1    0.0000
     35 C15        5.1619   14.8493   -0.1347 C.3       1 RES1    0.0000
     36 C16        3.7737   15.3791   -0.1169 C.3       1 RES1    0.0000
     37 H12        3.1855   14.7605   -0.5768 H         1 RES1    0.0000
     38 H13        3.7494   16.2403   -0.5616 H         1 RES1    0.0000
     39 H14        3.4796   15.4820    0.8004 H         1 RES1    0.0000
     40 C17        6.1320   15.6976    0.6708 C.3       1 RES1    0.0000
     41 H15        5.7585   15.8698    1.5500 H         1 RES1    0.0000
     42 H16        6.2841   16.5394    0.2134 H         1 RES1    0.0000
     43 H17        6.9741   15.2242    0.7649 H         1 RES1    0.0000
     44 C18        5.7230   14.6803   -1.5475 C.3       1 RES1    0.0000
     45 H18        6.6109   14.2947   -1.4992 H         1 RES1    0.0000
     46 H19        5.7697   15.5459   -1.9820 H         1 RES1    0.0000
     47 H20        5.1433   14.0932   -2.0583 H         1 RES1    0.0000
     48 C19        5.6007    8.7014    6.0642 C.2       1 RES1    0.0000
     49 C20        7.2467    8.9181    7.7477 C.3       1 RES1    0.0000
     50 H21        6.9573    8.0763    8.1593 H         1 RES1    0.0000
     51 H22        8.0244    8.7350    7.1810 H         1 RES1    0.0000
     52 C21        7.5893    9.8671    8.7615 C.3       1 RES1    0.0000
     53 H23        7.9329   10.6731    8.3448 H         1 RES1    0.0000
     54 H24        8.2671    9.4890    9.3409 H         1 RES1    0.0000
     55 H25        6.8004   10.0826    9.2825 H         1 RES1    0.0000
     56 C22        1.8121    9.1965    5.5524 C.ar      1 RES1    0.0000
     57 C23        1.4536   10.5062    5.3006 C.ar      1 RES1    0.0000
     58 H26        2.0371   11.1985    5.5497 H         1 RES1    0.0000
     59 C24        0.2474   10.8215    4.6832 C.ar      1 RES1    0.0000
     60 H27        0.0084   11.7174    4.5307 H         1 RES1    0.0000
     61 C25       -0.5984    9.7923    4.2969 C.ar      1 RES1    0.0000
     62 H28       -1.4098    9.9927    3.8649 H         1 RES1    0.0000
     63 C26       -0.2595    8.4836    4.5358 C.ar      1 RES1    0.0000
     64 H29       -0.8365    7.7925    4.2664 H         1 RES1    0.0000
     65 C27        0.9383    8.1814    5.1761 C.ar      1 RES1    0.0000
     66 H30        1.1586    7.2855    5.3565 H         1 RES1    0.0000
@<TRIPOS>BOND
     1    1   10 1
     2    2    8 2
     3    3   10 2
     4    4   34 1
     5    5   34 2
     6    6   48 1
     7    7   48 2
     8    9    2 2
     9   10   11 1
    10   11   12 1
    11   12   13 ar
    12   13   14 1
    13   15   13 ar
    14   16   15 1
    15   17   15 ar
    16   18   17 1
    17   19   17 ar
    18   20   19 1
    19   21    1 1
    20   22   23 1
    21   24   22 1
    22   25   22 1
    23   26   11 2
    24   27   26 1
    25   28   27 1
    26   29   27 1
    27   30   29 1
    28   31    2 1
    29   32   31 1
    30   33   31 1
    31   34    1 1
    32   35    4 1
    33   36   35 1
    34   37   36 1
    35   38   36 1
    36   39   36 1
    37   40   35 1
    38   41   40 1
    39   42   40 1
    40   43   40 1
    41   44   35 1
    42   45   44 1
    43   46   44 1
    44   47   44 1
    45   48   27 1
    46   49    6 1
    47   50   49 1
    48   51   49 1
    49   52   49 1
    50   53   52 1
    51   54   52 1
    52   55   52 1
    53   56   29 1
    54   57   56 ar
    55   58   57 1
    56   59   57 ar
    57   60   59 1
    58   61   59 ar
    59   62   61 1
    60   63   61 ar
    61   64   63 1
    62   65   56 ar
    63   66   65 1
    64   12   21 ar
    65   19   21 ar
    66   22   26 1
    67   29   31 1
    68   63   65 ar
@<TRIPOS>SUBSTRUCTURE
     1 RES1 1

@<TRIPOS>CRYSIN
   9.3361   10.8334   25.4105  90.0000  90.0000  90.0000  19 1

