# MOL2 file generated by ConQuest
# Please check atom types

@<TRIPOS>MOLECULE
KUMMIP
    46    48     1
SMALL
NO_CHARGES
****
Generated from CSD

@<TRIPOS>ATOM
      1 N1         0.1481    2.5747    3.3982 N.am      1 RES1    0.0000
      2 C1        -0.2457    2.3884    4.7964 C.3       1 RES1    0.0000
      3 H1         0.5794    2.3354    5.3224 H         1 RES1    0.0000
      4 C2        -0.9319    1.0076    4.8908 C.3       1 RES1    0.0000
      5 H2        -0.2767    0.3283    4.6268 H         1 RES1    0.0000
      6 C3        -2.1123    0.8836    3.9806 C.3       1 RES1    0.0000
      7 H3        -2.3619   -0.0501    3.8969 H         1 RES1    0.0000
      8 H4        -2.8656    1.3646    4.3573 H         1 RES1    0.0000
      9 C4        -1.7911    1.4327    2.6450 C.2       1 RES1    0.0000
     10 H5        -2.3638    1.2111    1.9465 H         1 RES1    0.0000
     11 C5        -0.7646    2.2083    2.3572 C.2       1 RES1    0.0000
     12 C6         1.4260    3.0414    3.2234 C.2       1 RES1    0.0000
     13 O1         2.0916    3.5106    4.1090 O.2       1 RES1    0.0000
     14 O2         1.8532    2.8937    1.9755 O.3       1 RES1    0.0000
     15 C7         3.1640    3.4417    1.6704 C.3       1 RES1    0.0000
     16 H6         3.8562    2.9764    2.1655 H         1 RES1    0.0000
     17 H7         3.2026    4.3860    1.8886 H         1 RES1    0.0000
     18 C8         3.3267    3.2306    0.2117 C.ar      1 RES1    0.0000
     19 C9         3.9849    2.1280   -0.2651 C.ar      1 RES1    0.0000
     20 H8         4.4009    1.5470    0.3299 H         1 RES1    0.0000
     21 C10        4.0358    1.8740   -1.6058 C.ar      1 RES1    0.0000
     22 H9         4.4770    1.1152   -1.9134 H         1 RES1    0.0000
     23 C11        3.4606    2.7014   -2.4798 C.ar      1 RES1    0.0000
     24 H10        3.5021    2.5131   -3.3896 H         1 RES1    0.0000
     25 C12        2.8135    3.8188   -2.0500 C.ar      1 RES1    0.0000
     26 H11        2.4225    4.4005   -2.6612 H         1 RES1    0.0000
     27 C13        2.7444    4.0800   -0.6874 C.ar      1 RES1    0.0000
     28 H12        2.2989    4.8380   -0.3848 H         1 RES1    0.0000
     29 C14       -1.0651    3.5221    5.3706 C.ar      1 RES1    0.0000
     30 C15       -0.8174    3.9245    6.6566 C.ar      1 RES1    0.0000
     31 H13       -0.1359    3.5178    7.1416 H         1 RES1    0.0000
     32 C16       -1.5687    4.9290    7.2436 C.ar      1 RES1    0.0000
     33 H14       -1.3946    5.1928    8.1183 H         1 RES1    0.0000
     34 C17       -2.5645    5.5282    6.5326 C.ar      1 RES1    0.0000
     35 H15       -3.0852    6.1897    6.9276 H         1 RES1    0.0000
     36 C18       -2.7952    5.1602    5.2506 C.ar      1 RES1    0.0000
     37 H16       -3.4641    5.5833    4.7623 H         1 RES1    0.0000
     38 C19       -2.0493    4.1673    4.6657 C.ar      1 RES1    0.0000
     39 H17       -2.2129    3.9294    3.7816 H         1 RES1    0.0000
     40 N2        -1.2901    0.7663    6.3210 N.pl3     1 RES1    0.0000
     41 O3        -2.4348    0.9566    6.6959 O.2       1 RES1    0.0000
     42 O4        -0.3943    0.4160    7.0589 O.2       1 RES1    0.0000
     43 C20       -0.6214    2.8386    1.0104 C.3       1 RES1    0.0000
     44 H18       -1.2992    2.4959    0.4231 H         1 RES1    0.0000
     45 H19        0.2455    2.6345    0.6522 H         1 RES1    0.0000
     46 H20       -0.7187    3.7902    1.0905 H         1 RES1    0.0000
@<TRIPOS>BOND
     1    1    2 1
     2    2    3 1
     3    4    2 1
     4    5    4 1
     5    6    4 1
     6    7    6 1
     7    8    6 1
     8    9    6 1
     9   10    9 1
    10   11    1 1
    11   12    1 1
    12   13   12 2
    13   14   12 1
    14   15   14 1
    15   16   15 1
    16   17   15 1
    17   18   15 1
    18   19   18 ar
    19   20   19 1
    20   21   19 ar
    21   22   21 1
    22   23   21 ar
    23   24   23 1
    24   25   23 ar
    25   26   25 1
    26   27   18 ar
    27   28   27 1
    28   29    2 1
    29   30   29 ar
    30   31   30 1
    31   32   30 ar
    32   33   32 1
    33   34   32 ar
    34   35   34 1
    35   36   34 ar
    36   37   36 1
    37   38   29 ar
    38   39   38 1
    39   40    4 1
    40   41   40 2
    41   42   40 2
    42   43   11 1
    43   44   43 1
    44   45   43 1
    45   46   43 1
    46    9   11 2
    47   25   27 ar
    48   36   38 ar
@<TRIPOS>SUBSTRUCTURE
     1 RES1 1

@<TRIPOS>CRYSIN
  16.8637   11.4353   19.0576  90.0000  90.0000  90.0000  61 1

