# MOL2 file generated by ConQuest
# Please check atom types

@<TRIPOS>MOLECULE
KUMMOV
    56    57     1
SMALL
NO_CHARGES
****
Generated from CSD

@<TRIPOS>ATOM
      1 C1        -1.9859    6.3117    8.1224 C.ar      1 RES1    0.0000
      2 H1        -1.8935    6.1059    9.0555 H         1 RES1    0.0000
      3 C2        -3.2384    6.2652    7.5298 C.ar      1 RES1    0.0000
      4 H2        -4.0049    6.0186    8.0525 H         1 RES1    0.0000
      5 C3        -3.3870    6.5672    6.2119 C.ar      1 RES1    0.0000
      6 H3        -4.2601    6.5615    5.8129 H         1 RES1    0.0000
      7 C4        -2.2932    6.8783    5.4575 C.ar      1 RES1    0.0000
      8 H4        -2.3949    7.0685    4.5220 H         1 RES1    0.0000
      9 C5        -1.0303    6.9207    6.0418 C.ar      1 RES1    0.0000
     10 H5        -0.2652    7.1394    5.5048 H         1 RES1    0.0000
     11 C6        -0.8680    6.6518    7.3820 C.ar      1 RES1    0.0000
     12 C7         0.4771    6.7536    8.0567 C.3       1 RES1    0.0000
     13 H6         0.3708    6.5644    8.9918 H         1 RES1    0.0000
     14 N1         1.0116    8.1046    7.9054 N.2       1 RES1    0.0000
     15 C8         1.1867    8.7772    8.9637 C.2       1 RES1    0.0000
     16 H7         0.9917    8.3531    9.8026 H         1 RES1    0.0000
     17 C9         1.6658   10.1560    8.9910 C.ar      1 RES1    0.0000
     18 C10        2.0420   10.8362    7.8453 C.ar      1 RES1    0.0000
     19 H8         2.0084   10.3980    6.9919 H         1 RES1    0.0000
     20 C11        2.4639   12.1428    7.9348 C.ar      1 RES1    0.0000
     21 H9         2.7150   12.6149    7.1375 H         1 RES1    0.0000
     22 C12        2.5307   12.7778    9.1445 C.ar      1 RES1    0.0000
     23 H10        2.8346   13.6871    9.1935 H         1 RES1    0.0000
     24 C13        2.1647   12.1168   10.2832 C.ar      1 RES1    0.0000
     25 H11        2.2080   12.5612   11.1330 H         1 RES1    0.0000
     26 C14        1.7345   10.8146   10.2075 C.ar      1 RES1    0.0000
     27 H12        1.4776   10.3541   11.0097 H         1 RES1    0.0000
     28 C15        1.4652    5.7495    7.4571 C.3       1 RES1    0.0000
     29 H13        1.5540    5.9301    6.5184 H         1 RES1    0.0000
     30 N2         2.8033    5.9764    8.1205 N.pl3     1 RES1    0.0000
     31 O1         2.8801    5.7614    9.3054 O.2       1 RES1    0.0000
     32 O2         3.7194    6.3556    7.4313 O.2       1 RES1    0.0000
     33 C16        1.0674    4.3053    7.6340 C.3       1 RES1    0.0000
     34 H14        0.1977    4.1743    7.2494 H         1 RES1    0.0000
     35 H15        1.0029    4.1147    8.5727 H         1 RES1    0.0000
     36 C17        2.0380    3.3214    6.9992 C.3       1 RES1    0.0000
     37 H16        2.0511    3.4683    6.0506 H         1 RES1    0.0000
     38 H17        2.9204    3.4980    7.3336 H         1 RES1    0.0000
     39 C18        1.6996    1.8773    7.2619 C.3       1 RES1    0.0000
     40 O3         2.7220    1.1635    6.5867 O.3       1 RES1    0.0000
     41 C19        2.6697   -0.2520    6.6634 C.3       1 RES1    0.0000
     42 H18        3.5466   -0.6132    6.5142 H         1 RES1    0.0000
     43 H19        2.0678   -0.5867    5.9947 H         1 RES1    0.0000
     44 H20        2.3595   -0.5141    7.5333 H         1 RES1    0.0000
     45 O4         1.7162    1.5623    8.6475 O.3       1 RES1    0.0000
     46 C20        2.9643    1.7422    9.3154 C.3       1 RES1    0.0000
     47 H21        3.6829    1.5713    8.7022 H         1 RES1    0.0000
     48 H22        3.0226    1.1322   10.0544 H         1 RES1    0.0000
     49 H23        3.0272    2.6437    9.6389 H         1 RES1    0.0000
     50 C21        0.3088    1.4794    6.8199 C.3       1 RES1    0.0000
     51 H24        0.1906    0.5406    6.9816 H         1 RES1    0.0000
     52 H25       -0.3322    1.9501    7.3577 H         1 RES1    0.0000
     53 C22        0.0216    1.7606    5.3664 C.3       1 RES1    0.0000
     54 H26       -0.8613    1.4525    5.1493 H         1 RES1    0.0000
     55 H27        0.6638    1.3030    4.8190 H         1 RES1    0.0000
     56 H28        0.0794    2.7053    5.2058 H         1 RES1    0.0000
@<TRIPOS>BOND
     1    1    2 1
     2    3    1 ar
     3    4    3 1
     4    5    3 ar
     5    6    5 1
     6    7    5 ar
     7    8    7 1
     8    9    7 ar
     9   10    9 1
    10   11    1 ar
    11   12   11 1
    12   13   12 1
    13   14   12 1
    14   15   14 2
    15   16   15 1
    16   17   15 1
    17   18   17 ar
    18   19   18 1
    19   20   18 ar
    20   21   20 1
    21   22   20 ar
    22   23   22 1
    23   24   22 ar
    24   25   24 1
    25   26   17 ar
    26   27   26 1
    27   28   12 1
    28   29   28 1
    29   30   28 1
    30   31   30 2
    31   32   30 2
    32   33   28 1
    33   34   33 1
    34   35   33 1
    35   36   33 1
    36   37   36 1
    37   38   36 1
    38   39   36 1
    39   40   39 1
    40   41   40 1
    41   42   41 1
    42   43   41 1
    43   44   41 1
    44   45   39 1
    45   46   45 1
    46   47   46 1
    47   48   46 1
    48   49   46 1
    49   50   39 1
    50   51   50 1
    51   52   50 1
    52   53   50 1
    53   54   53 1
    54   55   53 1
    55   56   53 1
    56    9   11 ar
    57   24   26 ar
@<TRIPOS>SUBSTRUCTURE
     1 RES1 1

@<TRIPOS>CRYSIN
  10.2960   11.4140   11.5680 114.8600  90.7700 112.9100   2 1

