# MOL2 file generated by ConQuest
# Please check atom types

@<TRIPOS>MOLECULE
KUMSUI
    50    51     1
SMALL
NO_CHARGES
****
Generated from CSD

@<TRIPOS>ATOM
      1 O1        -0.9677   11.6710    2.8942 O.3       1 RES1    0.0000
      2 H1        -0.3168   12.1348    3.2921 H         1 RES1    0.0000
      3 O2         1.1966   10.7569    4.7634 O.3       1 RES1    0.0000
      4 N1         1.1699   12.1858    4.4528 N.3       1 RES1    0.0000
      5 C1        -3.0476    7.6826    0.9221 C.ar      1 RES1    0.0000
      6 H2        -3.4995    7.0840    0.3395 H         1 RES1    0.0000
      7 C2        -2.0606    8.5207    0.4287 C.ar      1 RES1    0.0000
      8 H3        -1.8380    8.4990   -0.4943 H         1 RES1    0.0000
      9 C3        -1.3972    9.3904    1.2806 C.ar      1 RES1    0.0000
     10 H4        -0.7219    9.9627    0.9346 H         1 RES1    0.0000
     11 C4        -1.7091    9.4358    2.6370 C.ar      1 RES1    0.0000
     12 C5        -3.3712    7.7227    2.2642 C.ar      1 RES1    0.0000
     13 H5        -4.0494    7.1507    2.6046 H         1 RES1    0.0000
     14 C6        -2.7073    8.5971    3.1186 C.ar      1 RES1    0.0000
     15 H6        -2.9387    8.6216    4.0395 H         1 RES1    0.0000
     16 C7        -0.9827   10.4018    3.5450 C.3       1 RES1    0.0000
     17 H7        -1.4861   10.4818    4.4054 H         1 RES1    0.0000
     18 C8         0.4460    9.9176    3.8429 C.3       1 RES1    0.0000
     19 H8         0.9496    9.8563    2.9813 H         1 RES1    0.0000
     20 C9         0.4776    8.5623    4.5232 C.3       1 RES1    0.0000
     21 H9         1.4006    8.3404    4.7665 H         1 RES1    0.0000
     22 H10        0.1283    7.8807    3.9111 H         1 RES1    0.0000
     23 H11       -0.0765    8.5892    5.3316 H         1 RES1    0.0000
     24 C10        2.4815   12.5656    3.8237 C.3       1 RES1    0.0000
     25 C11        2.4191   14.0804    3.5872 C.3       1 RES1    0.0000
     26 H12        3.2932   14.3843    3.2369 H         1 RES1    0.0000
     27 H13        1.7365   14.2672    2.8949 H         1 RES1    0.0000
     28 C12        2.0846   14.8851    4.8369 C.3       1 RES1    0.0000
     29 H14        2.8159   14.7953    5.4984 H         1 RES1    0.0000
     30 H15        1.9929   15.8426    4.6046 H         1 RES1    0.0000
     31 C13        0.7868   14.3764    5.4344 C.3       1 RES1    0.0000
     32 H16        0.0473   14.5682    4.8049 H         1 RES1    0.0000
     33 H17        0.6050   14.8710    6.2722 H         1 RES1    0.0000
     34 C14        0.8022   12.8763    5.7377 C.3       1 RES1    0.0000
     35 C15       -0.6195   12.4531    6.1137 C.3       1 RES1    0.0000
     36 H18       -1.2215   12.6251    5.3604 H         1 RES1    0.0000
     37 H19       -0.9177   12.9657    6.8936 H         1 RES1    0.0000
     38 H20       -0.6299   11.4967    6.3274 H         1 RES1    0.0000
     39 C16        1.7038   12.5596    6.9403 C.3       1 RES1    0.0000
     40 H21        1.8575   11.5922    6.9872 H         1 RES1    0.0000
     41 H22        1.2673   12.8612    7.7646 H         1 RES1    0.0000
     42 H23        2.5618   13.0216    6.8361 H         1 RES1    0.0000
     43 C17        2.5678   11.8683    2.4611 C.3       1 RES1    0.0000
     44 H24        2.7528   10.9144    2.5926 H         1 RES1    0.0000
     45 H25        3.2888   12.2718    1.9328 H         1 RES1    0.0000
     46 H26        1.7175   11.9725    1.9856 H         1 RES1    0.0000
     47 C18        3.7391   12.1710    4.6155 C.3       1 RES1    0.0000
     48 H27        3.8639   12.7945    5.3616 H         1 RES1    0.0000
     49 H28        4.5207   12.2069    4.0263 H         1 RES1    0.0000
     50 H29        3.6333   11.2605    4.9645 H         1 RES1    0.0000
@<TRIPOS>BOND
     1    1    2 1
     2    3    4 1
     3    4   24 1
     4    5    6 1
     5    7    5 ar
     6    8    7 1
     7    9    7 ar
     8   10    9 1
     9   11    9 ar
    10   12    5 ar
    11   13   12 1
    12   14   11 ar
    13   15   14 1
    14   16    1 1
    15   17   16 1
    16   18    3 1
    17   19   18 1
    18   20   18 1
    19   21   20 1
    20   22   20 1
    21   23   20 1
    22   24   25 1
    23   25   26 1
    24   27   25 1
    25   28   25 1
    26   29   28 1
    27   30   28 1
    28   31   28 1
    29   32   31 1
    30   33   31 1
    31   34    4 1
    32   35   34 1
    33   36   35 1
    34   37   35 1
    35   38   35 1
    36   39   34 1
    37   40   39 1
    38   41   39 1
    39   42   39 1
    40   43   24 1
    41   44   43 1
    42   45   43 1
    43   46   43 1
    44   47   24 1
    45   48   47 1
    46   49   47 1
    47   50   47 1
    48   11   16 1
    49   12   14 ar
    50   16   18 1
    51   31   34 1
@<TRIPOS>SUBSTRUCTURE
     1 RES1 1

@<TRIPOS>CRYSIN
   7.8001   18.0255   12.3448  90.0000 103.6270  90.0000 231 1

