# MOL2 file generated by ConQuest
# Please check atom types

@<TRIPOS>MOLECULE
KUMTIX
    58    59     2
SMALL
NO_CHARGES
****
Generated from CSD

@<TRIPOS>ATOM
      1 C1        15.6722    6.8575    3.2338 C.3       1 RES1    0.0000
      2 C2        14.8606    5.8931    4.1214 C.3       1 RES1    0.0000
      3 H1        14.1838    6.4224    4.6320 H         1 RES1    0.0000
      4 C3        15.9251    5.3309    5.1330 C.3       1 RES1    0.0000
      5 H2        15.6807    5.5970    6.0658 H         1 RES1    0.0000
      6 C4        17.2076    6.0676    4.6985 C.3       1 RES1    0.0000
      7 H3        17.9171    6.1009    5.4013 H         1 RES1    0.0000
      8 C5        17.6692    5.4658    3.3682 C.3       1 RES1    0.0000
      9 H4        17.6664    4.4763    3.4038 H         1 RES1    0.0000
     10 H5        18.5773    5.7804    3.1290 H         1 RES1    0.0000
     11 C6        16.6065    5.9950    2.3603 C.3       1 RES1    0.0000
     12 H6        17.0318    6.5384    1.6502 H         1 RES1    0.0000
     13 H7        16.1106    5.2470    1.9418 H         1 RES1    0.0000
     14 C7        16.6600    7.4608    4.2806 C.3       1 RES1    0.0000
     15 C8        17.7183    8.3822    3.6584 C.3       1 RES1    0.0000
     16 H8        18.1705    7.9121    2.9268 H         1 RES1    0.0000
     17 H9        18.3752    8.6332    4.3411 H         1 RES1    0.0000
     18 H10       17.2851    9.1888    3.3097 H         1 RES1    0.0000
     19 C9        15.9926    8.2428    5.4161 C.3       1 RES1    0.0000
     20 H11       15.3097    7.6833    5.8401 H         1 RES1    0.0000
     21 H12       15.5732    9.0517    5.0533 H         1 RES1    0.0000
     22 H13       16.6684    8.4940    6.0806 H         1 RES1    0.0000
     23 C10       14.7935    7.8235    2.4584 C.3       1 RES1    0.0000
     24 H14       14.2401    8.3348    3.0840 H         1 RES1    0.0000
     25 H15       14.2170    7.3206    1.8464 H         1 RES1    0.0000
     26 H16       15.3583    8.4381    1.9444 H         1 RES1    0.0000
     27 C11       14.6656    2.6115    6.5220 C.3       1 RES1    0.0000
     28 C12       14.6833    1.8993    7.8866 C.3       1 RES1    0.0000
     29 H17       14.6955    2.5808    8.6042 H         1 RES1    0.0000
     30 H18       13.8511    1.3737    7.9847 H         1 RES1    0.0000
     31 C13       15.8785    0.9697    8.0674 C.3       1 RES1    0.0000
     32 H19       15.8675    0.5767    8.9758 H         1 RES1    0.0000
     33 H20       15.8368    0.2319    7.4083 H         1 RES1    0.0000
     34 C14       17.1541    1.7714    7.8665 C.3       1 RES1    0.0000
     35 H21       17.9325    1.1660    7.9619 H         1 RES1    0.0000
     36 H22       17.2160    2.4574    8.5767 H         1 RES1    0.0000
     37 C15       17.2288    2.4670    6.4918 C.3       1 RES1    0.0000
     38 C16       18.4095    3.4382    6.5113 C.3       1 RES1    0.0000
     39 H23       18.2703    4.1073    7.2134 H         1 RES1    0.0000
     40 H24       18.4775    3.8859    5.6425 H         1 RES1    0.0000
     41 H25       19.2375    2.9434    6.6900 H         1 RES1    0.0000
     42 C17       17.4737    1.4473    5.3691 C.3       1 RES1    0.0000
     43 H26       16.7247    0.8160    5.3328 H         1 RES1    0.0000
     44 H27       18.3035    0.9594    5.5471 H         1 RES1    0.0000
     45 H28       17.5461    1.9166    4.5117 H         1 RES1    0.0000
     46 C18       13.6134    3.7185    6.5953 C.3       1 RES1    0.0000
     47 H29       13.8434    4.3414    7.3155 H         1 RES1    0.0000
     48 H30       12.7354    3.3230    6.7747 H         1 RES1    0.0000
     49 H31       13.5875    4.2011    5.7426 H         1 RES1    0.0000
     50 C19       14.2715    1.6499    5.3892 C.3       1 RES1    0.0000
     51 H32       14.9386    0.9362    5.3194 H         1 RES1    0.0000
     52 H33       14.2298    2.1422    4.5426 H         1 RES1    0.0000
     53 H34       13.3931    1.2588    5.5834 H         1 RES1    0.0000
     54 N1        15.9875    3.2876    6.3654 N.3       1 RES1    0.0000
     55 O1        14.1838    4.8762    3.3862 O.3       1 RES1    0.0000
     56 H35       13.3700    5.2501    3.2519 H         1 RES1    0.0000
     57 O2        16.0151    3.8992    5.0418 O.3       1 RES1    0.0000
     58 H36       14.5983    4.1326    3.6551 Du        2 SUP2    0.0000
@<TRIPOS>BOND
     1    1    2 1
     2    2    3 1
     3    4    2 1
     4    5    4 1
     5    6    4 1
     6    7    6 1
     7    8    6 1
     8    9    8 1
     9   10    8 1
    10   11    1 1
    11   12   11 1
    12   13   11 1
    13   14    1 1
    14   15   14 1
    15   16   15 1
    16   17   15 1
    17   18   15 1
    18   19   14 1
    19   20   19 1
    20   21   19 1
    21   22   19 1
    22   23    1 1
    23   24   23 1
    24   25   23 1
    25   26   23 1
    26   27   28 1
    27   28   29 1
    28   30   28 1
    29   31   28 1
    30   32   31 1
    31   33   31 1
    32   34   31 1
    33   35   34 1
    34   36   34 1
    35   37   34 1
    36   38   37 1
    37   39   38 1
    38   40   38 1
    39   41   38 1
    40   42   37 1
    41   43   42 1
    42   44   42 1
    43   45   42 1
    44   46   27 1
    45   47   46 1
    46   48   46 1
    47   49   46 1
    48   50   27 1
    49   51   50 1
    50   52   50 1
    51   53   50 1
    52   54   27 1
    53   55    2 1
    54   56   55 1
    55   57    4 1
    56    6   14 1
    57    8   11 1
    58   37   54 1
    59   54   57 1
@<TRIPOS>SUBSTRUCTURE
     1 RES1 1
     2 SUP2 58

@<TRIPOS>CRYSIN
  25.5886   10.5424    6.7189  90.0000  90.0000  90.0000  18 1

