# MOL2 file generated by ConQuest
# Please check atom types

@<TRIPOS>MOLECULE
KUNLUA
    64    64     1
SMALL
NO_CHARGES
****
Generated from CSD

@<TRIPOS>ATOM
      1 C1         2.5328    6.3326    1.6999 C.3       1 RES1    0.0000
      2 C2         3.9668    6.4404    1.1825 C.3       1 RES1    0.0000
      3 C3         1.5799    6.1893    0.5004 C.3       1 RES1    0.0000
      4 C4         2.1553    7.5428    2.5381 C.3       1 RES1    0.0000
      5 N1         2.4011    5.0799    2.5158 N.pl3     1 RES1    0.0000
      6 O1         2.4777    3.9696    1.8954 O.2       1 RES1    0.0000
      7 C5         2.4814    5.0226    3.9543 C.ar      1 RES1    0.0000
      8 C6         1.4938    4.4412    4.7533 C.ar      1 RES1    0.0000
      9 C7         3.6705    5.5011    4.5121 C.ar      1 RES1    0.0000
     10 C8         0.1331    3.8688    4.2826 C.3       1 RES1    0.0000
     11 C9        -0.8761    3.8174    5.4375 C.3       1 RES1    0.0000
     12 C10       -0.5009    4.7270    3.1905 C.3       1 RES1    0.0000
     13 C11        0.3382    2.4164    3.8322 C.3       1 RES1    0.0000
     14 H1         4.1525    5.6158    0.6906 H         1 RES1    0.0000
     15 H2         4.0390    7.2373    0.5312 H         1 RES1    0.0000
     16 H3         4.6348    6.5551    1.8699 H         1 RES1    0.0000
     17 H4         0.6248    6.1201    0.7862 H         1 RES1    0.0000
     18 H5         1.7243    7.0494   -0.0637 H         1 RES1    0.0000
     19 H6         1.8712    5.4280   -0.0425 H         1 RES1    0.0000
     20 H7         2.7851    7.6921    3.2935 H         1 RES1    0.0000
     21 H8         2.2048    8.3150    1.9442 H         1 RES1    0.0000
     22 H9         1.2443    7.3460    2.9217 H         1 RES1    0.0000
     23 H10        4.3209    5.8828    3.8991 H         1 RES1    0.0000
     24 H11       -0.9634    4.7359    5.8221 H         1 RES1    0.0000
     25 H12       -1.6918    3.4901    5.0784 H         1 RES1    0.0000
     26 H13       -0.5780    3.1243    6.2046 H         1 RES1    0.0000
     27 H14       -1.4362    4.3997    3.0173 H         1 RES1    0.0000
     28 H15        0.0750    4.5184    2.3373 H         1 RES1    0.0000
     29 H16       -0.4996    5.7345    3.4954 H         1 RES1    0.0000
     30 H17       -0.4831    2.0466    3.5272 H         1 RES1    0.0000
     31 H18        0.9225    2.4619    3.0279 H         1 RES1    0.0000
     32 H19        0.8135    1.7698    4.6428 H         1 RES1    0.0000
     33 C7B        1.8050    4.3859    6.1121 C.ar      1 RES1    0.0000
     34 C6B        3.9817    5.4458    5.8710 C.ar      1 RES1    0.0000
     35 C5B        2.9940    4.8644    6.6699 C.ar      1 RES1    0.0000
     36 H10B       1.1545    4.0042    6.7251 H         1 RES1    0.0000
     37 C8B        5.3423    6.0182    6.3416 C.3       1 RES1    0.0000
     38 N1B        3.0744    4.8071    8.1084 N.3       1 RES1    0.0000
     39 C9B        6.3515    6.0696    5.1868 C.3       1 RES1    0.0000
     40 C10B       5.9763    5.1600    7.4338 C.3       1 RES1    0.0000
     41 C11B       5.1373    7.4706    6.7921 C.3       1 RES1    0.0000
     42 C1B        2.9427    3.5544    8.9244 C.3       1 RES1    0.0000
     43 O1B        2.9978    5.9174    8.7289 O.2       1 RES1    0.0000
     44 H11B       6.4389    5.1511    4.8022 H         1 RES1    0.0000
     45 H12B       7.1673    6.3969    5.5459 H         1 RES1    0.0000
     46 H13B       6.0535    6.7627    4.4197 H         1 RES1    0.0000
     47 H14B       6.9117    5.4873    7.6070 H         1 RES1    0.0000
     48 H15B       5.4004    5.3686    8.2869 H         1 RES1    0.0000
     49 H16B       5.9750    4.1525    7.1289 H         1 RES1    0.0000
     50 H17B       5.9586    7.8404    7.0970 H         1 RES1    0.0000
     51 H18B       4.5530    7.4251    7.5963 H         1 RES1    0.0000
     52 H19B       4.6620    8.1172    5.9814 H         1 RES1    0.0000
     53 C2B        1.5087    3.4466    9.4418 C.3       1 RES1    0.0000
     54 C3B        3.8955    3.6977   10.1238 C.3       1 RES1    0.0000
     55 C4B        3.3202    2.3442    8.0861 C.3       1 RES1    0.0000
     56 H1B        1.3229    4.2712    9.9337 H         1 RES1    0.0000
     57 H2B        1.4364    2.6497   10.0930 H         1 RES1    0.0000
     58 H3B        0.8407    3.3319    8.7544 H         1 RES1    0.0000
     59 H4B        4.8506    3.7669    9.8380 H         1 RES1    0.0000
     60 H5B        3.7512    2.8376   10.6880 H         1 RES1    0.0000
     61 H6B        3.6043    4.4590   10.6667 H         1 RES1    0.0000
     62 H7B        2.6903    2.1949    7.3307 H         1 RES1    0.0000
     63 H8B        3.2707    1.5720    8.6800 H         1 RES1    0.0000
     64 H9B        4.2312    2.5410    7.7026 H         1 RES1    0.0000
@<TRIPOS>BOND
     1    1    2 1
     2    2   14 1
     3    3    1 1
     4    4    1 1
     5    5    1 1
     6    6    5 1
     7    7    5 1
     8    8    7 ar
     9    9    7 ar
    10   10    8 1
    11   11   10 1
    12   12   10 1
    13   13   10 1
    14   15    2 1
    15   16    2 1
    16   17    3 1
    17   18    3 1
    18   19    3 1
    19   20    4 1
    20   21    4 1
    21   22    4 1
    22   23    9 1
    23   24   11 1
    24   25   11 1
    25   26   11 1
    26   27   12 1
    27   28   12 1
    28   29   12 1
    29   30   13 1
    30   31   13 1
    31   32   13 1
    32   33    8 ar
    33   34    9 ar
    34   35   33 ar
    35   36   33 1
    36   37   34 1
    37   38   35 1
    38   39   37 1
    39   40   37 1
    40   41   37 1
    41   42   38 1
    42   43   38 1
    43   44   39 1
    44   45   39 1
    45   46   39 1
    46   47   40 1
    47   48   40 1
    48   49   40 1
    49   50   41 1
    50   51   41 1
    51   52   41 1
    52   53   42 1
    53   54   42 1
    54   55   42 1
    55   56   53 1
    56   57   53 1
    57   58   53 1
    58   59   54 1
    59   60   54 1
    60   61   54 1
    61   62   55 1
    62   63   55 1
    63   64   55 1
    64   34   35 ar
@<TRIPOS>SUBSTRUCTURE
     1 RES1 1

@<TRIPOS>CRYSIN
  10.4590    9.8870   11.7350  90.0000 115.1300  90.0000  14 1

