# MOL2 file generated by ConQuest
# Please check atom types

@<TRIPOS>MOLECULE
KUPCIJ
    24    23     1
SMALL
NO_CHARGES
****
Generated from CSD

@<TRIPOS>ATOM
      1 O1         1.3295    9.8737    0.6065 O.3       1 RES1    0.0000
      2 O2         1.8774   10.6175    2.6388 O.2       1 RES1    0.0000
      3 C1         1.9441   10.6867    1.4602 C.2       1 RES1    0.0000
      4 N1         2.6432   11.5953    0.7160 N.am      1 RES1    0.0000
      5 O3         3.4873   12.7189    2.4401 O.2       1 RES1    0.0000
      6 N2         3.4439   12.5662    1.2501 N.pl3     1 RES1    0.0000
      7 O4         4.0352   13.2339    0.4520 O.2       1 RES1    0.0000
      8 C2         0.5839    8.8037    1.1927 C.3       1 RES1    0.0000
      9 H1         0.2486    9.0739    2.0614 H         1 RES1    0.0000
     10 H2         1.1582    8.0309    1.3154 H         1 RES1    0.0000
     11 C3        -0.5574    8.4457    0.3019 C.3       1 RES1    0.0000
     12 H3        -1.1243    9.2280    0.2198 H         1 RES1    0.0000
     13 H4        -1.0799    7.7631    0.7522 H         1 RES1    0.0000
     14 C4        -0.2591    7.9503   -1.0832 C.3       1 RES1    0.0000
     15 N3        -1.5908    7.6682   -1.8566 N.pl3     1 RES1    0.0000
     16 N4         0.3935    9.0289   -2.0155 N.pl3     1 RES1    0.0000
     17 O5        -1.4258    7.4573   -3.0087 O.2       1 RES1    0.0000
     18 O6        -0.0888   10.1169   -1.8813 O.2       1 RES1    0.0000
     19 O7         1.2534    8.6259   -2.6529 O.2       1 RES1    0.0000
     20 O8         1.6553    6.9097   -0.6930 O.2       1 RES1    0.0000
     21 O9         0.0931    5.7696   -1.5829 O.2       1 RES1    0.0000
     22 O10       -2.4898    7.4762   -1.2492 O.2       1 RES1    0.0000
     23 N5         0.5003    6.6442   -1.0417 N.pl3     1 RES1    0.0000
     24 H5         2.7395   11.5273   -0.2207 H         1 RES1    0.0000
@<TRIPOS>BOND
     1    1    3 1
     2    2    3 2
     3    3    4 1
     4    4    6 1
     5    5    6 2
     6    6    7 2
     7    8    1 1
     8    9    8 1
     9   10    8 1
    10   11    8 1
    11   12   11 1
    12   13   11 1
    13   14   11 1
    14   15   14 1
    15   16   14 1
    16   17   15 2
    17   18   16 2
    18   19   16 2
    19   20   23 2
    20   21   23 2
    21   22   15 2
    22   23   14 1
    23   24    4 1
@<TRIPOS>SUBSTRUCTURE
     1 RES1 1

@<TRIPOS>CRYSIN
  10.5771   23.7040    8.8283  90.0000  90.0000  90.0000  56 1

