# MOL2 file generated by ConQuest
# Please check atom types

@<TRIPOS>MOLECULE
KUPCEF
    22    21     1
SMALL
NO_CHARGES
****
Generated from CSD

@<TRIPOS>ATOM
      1 C1         1.7909    5.1729    0.9083 C.2       1 RES1    0.0000
      2 C2         3.5422    4.4542    2.3573 C.3       1 RES1    0.0000
      3 C3         3.6751    4.8869    3.8032 C.3       1 RES1    0.0000
      4 C4         4.4197    6.1715    4.0774 C.3       1 RES1    0.0000
      5 N1         1.2945    6.2205    0.2656 N.am      1 RES1    0.0000
      6 N2         5.7904    6.2756    3.4150 N.pl3     1 RES1    0.0000
      7 N3         4.6754    6.3448    5.5888 N.pl3     1 RES1    0.0000
      8 N4         3.6624    7.4419    3.6827 N.pl3     1 RES1    0.0000
      9 O1         1.3393    4.0360    0.8836 O.2       1 RES1    0.0000
     10 O2         2.9110    5.5017    1.5964 O.3       1 RES1    0.0000
     11 O3         6.7539    6.4396    4.1296 O.2       1 RES1    0.0000
     12 O4         5.7884    6.1965    2.2058 O.2       1 RES1    0.0000
     13 O5         4.9926    5.3407    6.1874 O.2       1 RES1    0.0000
     14 O6         4.5698    7.4639    6.0402 O.2       1 RES1    0.0000
     15 O7         4.3106    8.3626    3.2303 O.2       1 RES1    0.0000
     16 O8         2.4757    7.4283    3.9161 O.2       1 RES1    0.0000
     17 H1         0.5530    6.1117   -0.1537 H         1 RES1    0.0000
     18 H2         1.6370    6.9889    0.3932 H         1 RES1    0.0000
     19 H3         3.0085    3.6630    2.3313 H         1 RES1    0.0000
     20 H4         4.4095    4.2739    1.9331 H         1 RES1    0.0000
     21 H5         4.1441    4.1865    4.2972 H         1 RES1    0.0000
     22 H6         2.8094    5.0267    4.2039 H         1 RES1    0.0000
@<TRIPOS>BOND
     1    1    5 1
     2    2    3 1
     3    3    4 1
     4    4    6 1
     5    5   17 1
     6    6   11 2
     7    7    4 1
     8    8    4 1
     9    9    1 2
    10   10    1 1
    11   12    6 2
    12   13    7 2
    13   14    7 2
    14   15    8 2
    15   16    8 2
    16   18    5 1
    17   19    2 1
    18   20    2 1
    19   21    3 1
    20   22    3 1
    21    2   10 1
@<TRIPOS>SUBSTRUCTURE
     1 RES1 1

@<TRIPOS>CRYSIN
   7.3738    9.7135   25.2033  90.0000  90.0000  90.0000  61 1

