# MOL2 file generated by ConQuest
# Please check atom types

@<TRIPOS>MOLECULE
KUPCAB
    38    37     1
SMALL
NO_CHARGES
****
Generated from CSD

@<TRIPOS>ATOM
      1 C1        -0.1048    0.3204    0.6924 C.2       1 RES1    0.0000
      2 C2         0.9658    1.5276    2.3914 C.3       1 RES1    0.0000
      3 C3         2.3479    2.0622    2.6948 C.3       1 RES1    0.0000
      4 C4         2.8680    3.1497    1.7955 C.3       1 RES1    0.0000
      5 N1         1.9972    4.3914    1.8167 N.pl3     1 RES1    0.0000
      6 N2         4.2668    3.6127    2.2468 N.pl3     1 RES1    0.0000
      7 N3         3.0683    2.7057    0.3436 N.pl3     1 RES1    0.0000
      8 O1        -1.1152    0.2406    1.3301 O.2       1 RES1    0.0000
      9 O2         1.0000    0.9570    1.0540 O.3       1 RES1    0.0000
     10 O3         0.8818    4.2630    1.3546 O.2       1 RES1    0.0000
     11 O4         2.4526    5.3816    2.3365 O.2       1 RES1    0.0000
     12 O5         4.4948    3.5715    3.4219 O.2       1 RES1    0.0000
     13 O6         5.0039    4.0021    1.3899 O.2       1 RES1    0.0000
     14 O7         2.6577    3.4201   -0.5385 O.2       1 RES1    0.0000
     15 O8         3.6627    1.6567    0.2232 O.2       1 RES1    0.0000
     16 H1         0.2968    2.2170    2.4181 H         1 RES1    0.0000
     17 H2         0.7723    0.8314    3.0182 H         1 RES1    0.0000
     18 H3         2.3519    2.4130    3.5736 H         1 RES1    0.0000
     19 H4         2.9755    1.3653    2.6405 H         1 RES1    0.0000
     20 C1B        0.1048   -0.3204   -0.6924 C.2       1 RES1    0.0000
     21 C2B       -0.9658   -1.5276   -2.3914 C.3       1 RES1    0.0000
     22 C3B       -2.3479   -2.0622   -2.6948 C.3       1 RES1    0.0000
     23 C4B       -2.8680   -3.1497   -1.7955 C.3       1 RES1    0.0000
     24 N1B       -1.9972   -4.3914   -1.8167 N.pl3     1 RES1    0.0000
     25 N2B       -4.2668   -3.6127   -2.2468 N.pl3     1 RES1    0.0000
     26 N3B       -3.0683   -2.7057   -0.3436 N.pl3     1 RES1    0.0000
     27 O1B        1.1152   -0.2406   -1.3301 O.2       1 RES1    0.0000
     28 O2B       -1.0000   -0.9570   -1.0540 O.3       1 RES1    0.0000
     29 O3B       -0.8818   -4.2630   -1.3546 O.2       1 RES1    0.0000
     30 O4B       -2.4526   -5.3816   -2.3365 O.2       1 RES1    0.0000
     31 O5B       -4.4948   -3.5715   -3.4219 O.2       1 RES1    0.0000
     32 O6B       -5.0039   -4.0021   -1.3899 O.2       1 RES1    0.0000
     33 O7B       -2.6577   -3.4201    0.5385 O.2       1 RES1    0.0000
     34 O8B       -3.6627   -1.6567   -0.2232 O.2       1 RES1    0.0000
     35 H1B       -0.2968   -2.2170   -2.4181 H         1 RES1    0.0000
     36 H2B       -0.7723   -0.8314   -3.0182 H         1 RES1    0.0000
     37 H3B       -2.3519   -2.4130   -3.5736 H         1 RES1    0.0000
     38 H4B       -2.9755   -1.3653   -2.6405 H         1 RES1    0.0000
@<TRIPOS>BOND
     1    1    8 2
     2    2    3 1
     3    3    4 1
     4    4    5 1
     5    5   10 2
     6    6    4 1
     7    7    4 1
     8    9    1 1
     9   11    5 2
    10   12    6 2
    11   13    6 2
    12   14    7 2
    13   15    7 2
    14   16    2 1
    15   17    2 1
    16   18    3 1
    17   19    3 1
    18   20    1 1
    19   21   22 1
    20   22   23 1
    21   23   24 1
    22   24   29 2
    23   25   23 1
    24   26   23 1
    25   27   20 2
    26   28   20 1
    27   30   24 2
    28   31   25 2
    29   32   25 2
    30   33   26 2
    31   34   26 2
    32   35   21 1
    33   36   21 1
    34   37   22 1
    35   38   22 1
    36    2    9 1
    37   21   28 1
@<TRIPOS>SUBSTRUCTURE
     1 RES1 1

@<TRIPOS>CRYSIN
  10.9196    6.7591   11.8923  90.0000  98.3300  90.0000  14 1

