# MOL2 file generated by ConQuest
# Please check atom types

@<TRIPOS>MOLECULE
KUQZOM
    36    39     1
SMALL
NO_CHARGES
****
Generated from CSD

@<TRIPOS>ATOM
      1 N1         1.2202    1.0856    9.6279 N.pl3     1 RES1    0.0000
      2 H1         0.4779    0.6616    9.8360 H         1 RES1    0.0000
      3 N2         1.7942    1.0663    8.3952 N.2       1 RES1    0.0000
      4 C1         2.8979    1.8068    8.4767 C.2       1 RES1    0.0000
      5 C2         3.0410    2.3645    9.7916 C.ar      1 RES1    0.0000
      6 C3         3.8792    3.2744   10.4751 C.ar      1 RES1    0.0000
      7 C4         3.5676    3.4951   11.8083 C.ar      1 RES1    0.0000
      8 H2         4.1149    4.0755   12.3239 H         1 RES1    0.0000
      9 C5         2.4607    2.8784   12.4118 C.ar      1 RES1    0.0000
     10 H3         2.3032    3.0564   13.3321 H         1 RES1    0.0000
     11 N3         1.6134    2.0598   11.7842 N.ar      1 RES1    0.0000
     12 C6         1.9355    1.8402   10.4955 C.ar      1 RES1    0.0000
     13 C7         3.7889    1.9139    7.3006 C.ar      1 RES1    0.0000
     14 C8         3.2618    2.1768    6.0328 C.ar      1 RES1    0.0000
     15 H4         2.3215    2.2479    5.9161 H         1 RES1    0.0000
     16 C9         4.1042    2.3345    4.9469 C.ar      1 RES1    0.0000
     17 H5         3.7523    2.5169    4.0838 H         1 RES1    0.0000
     18 C10        5.4696    2.2210    5.1422 C.ar      1 RES1    0.0000
     19 C11        6.0204    1.9007    6.3701 C.ar      1 RES1    0.0000
     20 H6         6.9576    1.7816    6.4692 H         1 RES1    0.0000
     21 C12        5.1666    1.7587    7.4501 C.ar      1 RES1    0.0000
     22 H7         5.5241    1.5530    8.3059 H         1 RES1    0.0000
     23 N4         6.3672    2.4674    4.0074 N.pl3     1 RES1    0.0000
     24 O1         5.8947    2.9572    2.9819 O.2       1 RES1    0.0000
     25 O2         7.5584    2.1902    4.1370 O.2       1 RES1    0.0000
     26 C13        4.9994    4.0014    9.8245 C.ar      1 RES1    0.0000
     27 C14        4.8312    4.6142    8.5837 C.ar      1 RES1    0.0000
     28 H8         3.9807    4.6021    8.1609 H         1 RES1    0.0000
     29 C15        5.9047    5.2425    7.9630 C.ar      1 RES1    0.0000
     30 H9         5.7866    5.6511    7.1138 H         1 RES1    0.0000
     31 C16        7.1473    5.2755    8.5788 C.ar      1 RES1    0.0000
     32 H10        7.8830    5.6905    8.1453 H         1 RES1    0.0000
     33 C17        7.3100    4.7021    9.8254 C.ar      1 RES1    0.0000
     34 H11        8.1567    4.7387   10.2553 H         1 RES1    0.0000
     35 C18        6.2434    4.0727   10.4531 C.ar      1 RES1    0.0000
     36 H12        6.3612    3.6888   11.3136 H         1 RES1    0.0000
@<TRIPOS>BOND
     1    1    2 1
     2    3    1 1
     3    4    3 2
     4    5    4 1
     5    6    5 ar
     6    7    6 ar
     7    8    7 1
     8    9    7 ar
     9   10    9 1
    10   11    9 ar
    11   12    1 1
    12   13    4 1
    13   14   13 ar
    14   15   14 1
    15   16   14 ar
    16   17   16 1
    17   18   16 ar
    18   19   18 ar
    19   20   19 1
    20   21   13 ar
    21   22   21 1
    22   23   18 1
    23   24   23 2
    24   25   23 2
    25   26    6 1
    26   27   26 ar
    27   28   27 1
    28   29   27 ar
    29   30   29 1
    30   31   29 ar
    31   32   31 1
    32   33   31 ar
    33   34   33 1
    34   35   26 ar
    35   36   35 1
    36    5   12 ar
    37   11   12 ar
    38   19   21 ar
    39   33   35 ar
@<TRIPOS>SUBSTRUCTURE
     1 RES1 1

@<TRIPOS>CRYSIN
   7.0408    9.6360   11.1961  84.9060  89.1770  81.0120   2 1

