# MOL2 file generated by ConQuest
# Please check atom types

@<TRIPOS>MOLECULE
KURJOY
    37    37     1
SMALL
NO_CHARGES
****
Generated from CSD

@<TRIPOS>ATOM
      1 O1         2.8552    2.6077    1.9693 O.2       1 RES1    0.0000
      2 N1         2.7409    3.8719    1.7542 N.3       1 RES1    0.0000
      3 C1         1.3729    4.4447    1.9768 C.3       1 RES1    0.0000
      4 C2         0.3822    3.5799    1.1986 C.3       1 RES1    0.0000
      5 H1         0.6476    3.5468    0.2554 H         1 RES1    0.0000
      6 H2        -0.5154    3.9656    1.2716 H         1 RES1    0.0000
      7 H3         0.3801    2.6728    1.5684 H         1 RES1    0.0000
      8 C3         1.0277    4.3866    3.4702 C.3       1 RES1    0.0000
      9 H4         1.1766    3.4773    3.8047 H         1 RES1    0.0000
     10 H5         0.0875    4.6320    3.5980 H         1 RES1    0.0000
     11 H6         1.5986    5.0130    3.9619 H         1 RES1    0.0000
     12 C4         1.3199    5.8769    1.4489 C.3       1 RES1    0.0000
     13 H7         1.2862    5.8516    0.4603 H         1 RES1    0.0000
     14 H8         0.4855    6.3034    1.7669 H         1 RES1    0.0000
     15 C5         2.5060    6.7350    1.8790 C.3       1 RES1    0.0000
     16 H9         2.5455    6.7740    2.8777 H         1 RES1    0.0000
     17 C6         3.7797    6.0986    1.3450 C.3       1 RES1    0.0000
     18 H10        4.5525    6.6549    1.6171 H         1 RES1    0.0000
     19 H11        3.7450    6.0970    0.3556 H         1 RES1    0.0000
     20 C7         4.0086    4.6628    1.8326 C.3       1 RES1    0.0000
     21 C8         5.0366    3.9878    0.9247 C.3       1 RES1    0.0000
     22 H12        5.1815    3.0656    1.2238 H         1 RES1    0.0000
     23 H13        5.8818    4.4810    0.9657 H         1 RES1    0.0000
     24 H14        4.7053    3.9833    0.0028 H         1 RES1    0.0000
     25 C9         4.5125    4.6295    3.2833 C.3       1 RES1    0.0000
     26 H15        3.8332    5.0165    3.8737 H         1 RES1    0.0000
     27 H16        5.3401    5.1486    3.3536 H         1 RES1    0.0000
     28 H17        4.6852    3.7014    3.5484 H         1 RES1    0.0000
     29 N2         2.3684    8.0851    1.3438 N.am      1 RES1    0.0000
     30 H18        2.5948    8.2319    0.5292 H         1 RES1    0.0000
     31 C10        1.7674    9.0740    2.0235 C.2       1 RES1    0.0000
     32 O2         1.3507    8.9385    3.1816 O.2       1 RES1    0.0000
     33 C11        1.6640   10.3588    1.2754 C.2       1 RES1    0.0000
     34 H19        1.9539   10.3905    0.3712 H         1 RES1    0.0000
     35 C12        1.1819   11.4510    1.8314 C.2       1 RES1    0.0000
     36 H20        0.8882   11.4344    2.7343 H         1 RES1    0.0000
     37 H21        1.1286   12.2553    1.3295 H         1 RES1    0.0000
@<TRIPOS>BOND
     1    1    2 1
     2    2    3 1
     3    3    4 1
     4    4    5 1
     5    6    4 1
     6    7    4 1
     7    8    3 1
     8    9    8 1
     9   10    8 1
    10   11    8 1
    11   12    3 1
    12   13   12 1
    13   14   12 1
    14   15   12 1
    15   16   15 1
    16   17   15 1
    17   18   17 1
    18   19   17 1
    19   20    2 1
    20   21   20 1
    21   22   21 1
    22   23   21 1
    23   24   21 1
    24   25   20 1
    25   26   25 1
    26   27   25 1
    27   28   25 1
    28   29   15 1
    29   30   29 1
    30   31   29 1
    31   32   31 2
    32   33   31 1
    33   34   33 1
    34   35   33 2
    35   36   35 1
    36   37   35 1
    37   17   20 1
@<TRIPOS>SUBSTRUCTURE
     1 RES1 1

@<TRIPOS>CRYSIN
  11.5408   11.7953    9.7964  90.0000 110.2990  90.0000  14 1

