# MOL2 file generated by ConQuest
# Please check atom types

@<TRIPOS>MOLECULE
KUSBIL
    57    49     2
SMALL
NO_CHARGES
****
Generated from CSD

@<TRIPOS>ATOM
      1 O1         5.3546   12.4087    4.3930 O.3       1 RES1    0.0000
      2 O2         6.6679   16.3469    3.7385 O.2       1 RES1    0.0000
      3 O3        10.0004   19.4082    5.6835 O.2       1 RES1    0.0000
      4 O4        11.8033   18.6181    6.5791 O.2       1 RES1    0.0000
      5 N1         6.7759   14.1710    4.3835 N.am      1 RES1    0.0000
      6 N2         8.7664   13.2480    5.3318 N.3       1 RES1    0.0000
      7 N3        10.7081   18.4654    6.0376 N.pl3     1 RES1    0.0000
      8 C1         7.2930   13.1872    5.3268 C.3       1 RES1    0.0000
      9 H1         6.9462   13.3866    6.2431 H         1 RES1    0.0000
     10 C2         6.6286   11.8994    4.7904 C.3       1 RES1    0.0000
     11 C3         6.3327   10.8616    5.8470 C.3       1 RES1    0.0000
     12 H2         5.6976   10.2057    5.4913 H         1 RES1    0.0000
     13 H3         5.9453   11.2978    6.6340 H         1 RES1    0.0000
     14 H4         7.1631   10.4075    6.1009 H         1 RES1    0.0000
     15 C4         7.3530   11.3095    3.5840 C.3       1 RES1    0.0000
     16 H5         8.1590   10.8389    3.8843 H         1 RES1    0.0000
     17 H6         7.6054   12.0309    2.9699 H         1 RES1    0.0000
     18 H7         6.7598   10.6795    3.1227 H         1 RES1    0.0000
     19 C5         5.4282   13.7612    3.9354 C.3       1 RES1    0.0000
     20 C6         4.3390   14.5459    4.6399 C.3       1 RES1    0.0000
     21 H8         3.4704   14.1260    4.4684 H         1 RES1    0.0000
     22 H9         4.3291   15.4668    4.3029 H         1 RES1    0.0000
     23 H10        4.5133   14.5531    5.6044 H         1 RES1    0.0000
     24 C7         5.2886   13.8287    2.4260 C.3       1 RES1    0.0000
     25 H11        5.9642   13.2527    2.0092 H         1 RES1    0.0000
     26 H12        5.4173   14.7528    2.1267 H         1 RES1    0.0000
     27 H13        4.3948   13.5225    2.1664 H         1 RES1    0.0000
     28 C8         7.2401   15.4383    4.3301 C.2       1 RES1    0.0000
     29 C9         8.5442   15.6315    5.0206 C.ar      1 RES1    0.0000
     30 C10        9.2945   14.5161    5.4707 C.ar      1 RES1    0.0000
     31 C11       10.5818   14.7367    6.0396 C.ar      1 RES1    0.0000
     32 C12       11.0226   16.0462    6.1960 C.ar      1 RES1    0.0000
     33 H14       11.8790   16.2105    6.5719 H         1 RES1    0.0000
     34 C13       10.2294   17.1121    5.8112 C.ar      1 RES1    0.0000
     35 C14        9.0024   16.9187    5.1986 C.ar      1 RES1    0.0000
     36 H15        8.4859   17.6596    4.9064 H         1 RES1    0.0000
     37 C15        9.4194   12.1590    6.0679 C.3       1 RES1    0.0000
     38 H16        9.1130   11.2872    5.7122 H         1 RES1    0.0000
     39 H17        9.1694   12.2073    7.0242 H         1 RES1    0.0000
     40 C16       10.9258   12.2651    5.9286 C.3       1 RES1    0.0000
     41 H18       11.3568   11.5294    6.4304 H         1 RES1    0.0000
     42 H19       11.1779   12.1775    4.9753 H         1 RES1    0.0000
     43 C17       11.4111   13.5827    6.4564 C.2       1 RES1    0.0000
     44 C18       12.4861   13.6853    7.2256 C.2       1 RES1    0.0000
     45 H20       12.7642   14.5361    7.5431 H         1 RES1    0.0000
     46 H21       12.9782   12.9085    7.4600 H         1 RES1    0.0000
     47 C19        7.7101   12.9573    4.5283 Du        2 SUP2    0.0000
     48 H22        8.0062   12.6089    3.6387 Du        2 SUP2    0.0000
     49 C20        6.6991   12.0734    5.1521 Du        2 SUP2    0.0000
     50 C21        6.8664   10.5669    4.9649 Du        2 SUP2    0.0000
     51 H23        6.1397   10.0994    5.4239 Du        2 SUP2    0.0000
     52 H24        6.8376   10.3544    4.0071 Du        2 SUP2    0.0000
     53 H25        7.7265   10.2821    5.3355 Du        2 SUP2    0.0000
     54 C22        6.3790   12.3326    6.6558 Du        2 SUP2    0.0000
     55 H26        5.7031   11.6930    6.9598 Du        2 SUP2    0.0000
     56 H27        7.1940   12.2264    7.1889 Du        2 SUP2    0.0000
     57 H28        6.0364   13.2442    6.7636 Du        2 SUP2    0.0000
@<TRIPOS>BOND
     1    1   10 1
     2    2   28 2
     3    3    7 2
     4    4    7 2
     5    5    8 1
     6    6    8 1
     7    7   34 1
     8    8    9 1
     9   10    8 1
    10   11   10 1
    11   12   11 1
    12   13   11 1
    13   14   11 1
    14   15   10 1
    15   16   15 1
    16   17   15 1
    17   18   15 1
    18   19    1 1
    19   20   19 1
    20   21   20 1
    21   22   20 1
    22   23   20 1
    23   24   19 1
    24   25   24 1
    25   26   24 1
    26   27   24 1
    27   28    5 1
    28   29   28 1
    29   30    6 1
    30   31   30 ar
    31   32   31 ar
    32   33   32 1
    33   34   32 ar
    34   35   29 ar
    35   36   35 1
    36   37    6 1
    37   38   37 1
    38   39   37 1
    39   40   37 1
    40   41   40 1
    41   42   40 1
    42   43   31 1
    43   44   43 2
    44   45   44 1
    45   46   44 1
    46    5   19 1
    47   29   30 ar
    48   34   35 ar
    49   40   43 1
@<TRIPOS>SUBSTRUCTURE
     1 RES1 1
     2 SUP2 47

@<TRIPOS>CRYSIN
  10.3503   21.2485    7.4970  90.0000  92.7326  90.0000  14 1

