# MOL2 file generated by ConQuest
# Please check atom types

@<TRIPOS>MOLECULE
KUSVOL
    65    70     1
SMALL
NO_CHARGES
****
Generated from CSD

@<TRIPOS>ATOM
      1 O1         6.8554    4.4941   20.4121 O.3       1 RES1    0.0000
      2 O2         9.0809    3.8025   18.5968 O.2       1 RES1    0.0000
      3 O3         6.7367    0.9959   17.4159 O.2       1 RES1    0.0000
      4 N1         6.1283    5.5985   19.7928 N.3       1 RES1    0.0000
      5 N2         6.4989   -0.9470   18.6163 N.am      1 RES1    0.0000
      6 C1         6.8723    3.3275   19.5344 C.3       1 RES1    0.0000
      7 C2         6.0232    3.7443   18.3263 C.3       1 RES1    0.0000
      8 H1         6.5493    4.1101   17.5897 H         1 RES1    0.0000
      9 C3         5.1940    4.8934   18.9061 C.3       1 RES1    0.0000
     10 H2         4.5480    4.5165   19.4969 H         1 RES1    0.0000
     11 H3         5.4441    3.0105   17.9164 H         1 RES1    0.0000
     12 C4         4.5140    5.8274   17.9159 C.3       1 RES1    0.0000
     13 H4         3.9505    5.2445   17.2850 H         1 RES1    0.0000
     14 H5         3.8908    6.4122   18.4819 H         1 RES1    0.0000
     15 C5         5.5061    6.7108   17.1767 C.3       1 RES1    0.0000
     16 H6         6.0938    6.1338   16.6230 H         1 RES1    0.0000
     17 H7         4.9736    7.3754   16.5879 H         1 RES1    0.0000
     18 C6         6.3709    7.4395   18.1945 C.3       1 RES1    0.0000
     19 H8         5.7876    8.0170   18.7187 H         1 RES1    0.0000
     20 H9         6.9974    8.0365   17.7476 H         1 RES1    0.0000
     21 C7         7.1210    6.4535   19.0846 C.3       1 RES1    0.0000
     22 H10        7.6695    5.8332   18.4512 H         1 RES1    0.0000
     23 C8         7.9727    7.1587   20.1160 C.3       1 RES1    0.0000
     24 H11        8.6777    7.6843   19.7030 H         1 RES1    0.0000
     25 H12        7.4231    7.8152   20.6982 H         1 RES1    0.0000
     26 H13        8.4462    6.4971   20.7771 H         1 RES1    0.0000
     27 C9         8.3349    3.0236   19.1440 C.2       1 RES1    0.0000
     28 C10        8.7110    1.6155   19.5508 C.3       1 RES1    0.0000
     29 H14        9.2303    1.1483   18.8217 H         1 RES1    0.0000
     30 H15        9.2453    1.6298   20.4044 H         1 RES1    0.0000
     31 C11        7.3700    0.9030   19.7957 C.3       1 RES1    0.0000
     32 C12        6.4310    2.0605   20.3459 C.3       1 RES1    0.0000
     33 C13        6.7424    2.2958   21.8342 C.3       1 RES1    0.0000
     34 H16        6.2581    3.0704   22.2151 H         1 RES1    0.0000
     35 H17        6.4971    1.5255   22.3489 H         1 RES1    0.0000
     36 H18        7.6695    2.5164   21.9674 H         1 RES1    0.0000
     37 C14        4.9562    1.6795   20.2247 C.3       1 RES1    0.0000
     38 H19        4.4285    2.3258   20.6280 H         1 RES1    0.0000
     39 H20        4.8989    0.8156   20.5798 H         1 RES1    0.0000
     40 H21        4.5778    1.5895   19.3982 H         1 RES1    0.0000
     41 C15        6.8359    0.3702   18.4532 C.2       1 RES1    0.0000
     42 C16        6.8518   -1.3998   19.9059 C.ar      1 RES1    0.0000
     43 C17        6.7446   -2.6890   20.3992 C.ar      1 RES1    0.0000
     44 H22        6.3627   -3.4142   19.8476 H         1 RES1    0.0000
     45 C18        7.2361   -2.9209   21.6853 C.ar      1 RES1    0.0000
     46 H23        7.1617   -3.7608   22.0529 H         1 RES1    0.0000
     47 C19        7.8281   -1.9053   22.4146 C.ar      1 RES1    0.0000
     48 H24        8.1699   -2.0989   23.3419 H         1 RES1    0.0000
     49 C20        7.9438   -0.6082   21.8909 C.ar      1 RES1    0.0000
     50 H25        8.3416    0.0459   22.3927 H         1 RES1    0.0000
     51 C21        7.4141   -0.3537   20.6322 C.ar      1 RES1    0.0000
     52 C22        6.0155   -1.8088   17.5542 C.3       1 RES1    0.0000
     53 H26        6.6763   -2.5151   17.4407 H         1 RES1    0.0000
     54 H27        5.9444   -1.2318   16.7129 H         1 RES1    0.0000
     55 C23        4.6871   -2.4533   17.8760 C.ar      1 RES1    0.0000
     56 C24        3.7702   -1.8324   18.7152 C.ar      1 RES1    0.0000
     57 H28        4.0103   -1.0188   19.1593 H         1 RES1    0.0000
     58 C25        2.5315   -2.4121   18.9624 C.ar      1 RES1    0.0000
     59 H29        1.8670   -2.0112   19.5999 H         1 RES1    0.0000
     60 C26        2.2009   -3.6242   18.3710 C.ar      1 RES1    0.0000
     61 H30        1.2621   -4.0322   18.5214 H         1 RES1    0.0000
     62 C27        3.1074   -4.2515   17.5422 C.ar      1 RES1    0.0000
     63 H31        2.9424   -5.0788   17.0790 H         1 RES1    0.0000
     64 C28        4.3568   -3.6774   17.3001 C.ar      1 RES1    0.0000
     65 H32        5.0632   -4.1143   16.7260 H         1 RES1    0.0000
@<TRIPOS>BOND
     1    1    4 1
     2    2   27 2
     3    3   41 2
     4    4    9 1
     5    5   41 1
     6    6    1 1
     7    7    6 1
     8    8    7 1
     9    9    7 1
    10   10    9 1
    11   11    7 1
    12   12    9 1
    13   13   12 1
    14   14   12 1
    15   15   12 1
    16   16   15 1
    17   17   15 1
    18   18   15 1
    19   19   18 1
    20   20   18 1
    21   21    4 1
    22   22   21 1
    23   23   21 1
    24   24   23 1
    25   25   23 1
    26   26   23 1
    27   27    6 1
    28   28   27 1
    29   29   28 1
    30   30   28 1
    31   31   28 1
    32   32    6 1
    33   33   32 1
    34   34   33 1
    35   35   33 1
    36   36   33 1
    37   37   32 1
    38   38   37 1
    39   39   37 1
    40   40   37 1
    41   41   31 1
    42   42    5 1
    43   43   42 ar
    44   44   43 1
    45   45   43 ar
    46   46   45 1
    47   47   45 ar
    48   48   47 1
    49   49   47 ar
    50   50   49 1
    51   51   31 1
    52   52    5 1
    53   53   52 1
    54   54   52 1
    55   55   52 1
    56   56   55 ar
    57   57   56 1
    58   58   56 ar
    59   59   58 1
    60   60   58 ar
    61   61   60 1
    62   62   60 ar
    63   63   62 1
    64   64   55 ar
    65   65   64 1
    66   18   21 1
    67   31   32 1
    68   42   51 ar
    69   49   51 ar
    70   62   64 ar
@<TRIPOS>SUBSTRUCTURE
     1 RES1 1

@<TRIPOS>CRYSIN
   7.4679   13.9184   21.9214  90.0000  90.0000  90.0000  19 1

