# MOL2 file generated by ConQuest
# Please check atom types

@<TRIPOS>MOLECULE
KUSVUQ
    53    57     1
SMALL
NO_CHARGES
****
Generated from CSD

@<TRIPOS>ATOM
      1 N1         6.8971    6.7489    7.4393 N.pl3     1 RES1    0.0000
      2 N2         6.0262    7.7198    7.0214 N.2       1 RES1    0.0000
      3 N3        11.0004   11.3643   11.3519 N.pl3     1 RES1    0.0000
      4 C1         5.3229    8.0626    8.1124 C.2       1 RES1    0.0000
      5 C2         5.7440    7.3131    9.2266 C.2       1 RES1    0.0000
      6 H1         5.4019    7.3635   10.1110 H         1 RES1    0.0000
      7 C3         6.7538    6.4916    8.7727 C.2       1 RES1    0.0000
      8 O1         9.6262    6.6127    8.7897 O.3       1 RES1    0.0000
      9 O2         4.6589    9.4428    5.6276 O.3       1 RES1    0.0000
     10 H2         5.2797    8.8130    5.7918 H         1 RES1    0.0000
     11 O3        10.4712   11.6438   12.4292 O.2       1 RES1    0.0000
     12 O4        11.7575   12.1382   10.7617 O.2       1 RES1    0.0000
     13 C4         7.7455    6.1310    6.4638 C.ar      1 RES1    0.0000
     14 C5         8.3399    6.9346    5.5054 C.ar      1 RES1    0.0000
     15 H3         8.1969    7.8739    5.5036 H         1 RES1    0.0000
     16 C6         9.1489    6.3404    4.5483 C.ar      1 RES1    0.0000
     17 H4         9.5508    6.8759    3.8744 H         1 RES1    0.0000
     18 C7         9.3772    4.9802    4.5635 C.ar      1 RES1    0.0000
     19 H5         9.9427    4.5865    3.9090 H         1 RES1    0.0000
     20 C8         8.7814    4.1862    5.5339 C.ar      1 RES1    0.0000
     21 H6         8.9432    3.2503    5.5464 H         1 RES1    0.0000
     22 C9         7.9494    4.7572    6.4868 C.ar      1 RES1    0.0000
     23 H7         7.5258    4.2167    7.1442 H         1 RES1    0.0000
     24 C10        7.5891    5.5258    9.5104 C.ar      1 RES1    0.0000
     25 C11        8.9870    5.5966    9.5145 C.ar      1 RES1    0.0000
     26 C12        9.7556    4.6782   10.1881 C.ar      1 RES1    0.0000
     27 H8        10.7036    4.7261   10.1406 H         1 RES1    0.0000
     28 C13        9.1506    3.6851   10.9361 C.ar      1 RES1    0.0000
     29 H9         9.6791    3.0573   11.4156 H         1 RES1    0.0000
     30 C14        7.7748    3.6119   10.9824 C.ar      1 RES1    0.0000
     31 H10        7.3548    2.9373   11.5029 H         1 RES1    0.0000
     32 C15        7.0008    4.5191   10.2713 C.ar      1 RES1    0.0000
     33 H11        6.0541    4.4523   10.3037 H         1 RES1    0.0000
     34 C16        9.9769    7.7375    9.5004 C.ar      1 RES1    0.0000
     35 C17        9.5223    8.0065   10.7775 C.ar      1 RES1    0.0000
     36 H12        8.9698    7.3809   11.2311 H         1 RES1    0.0000
     37 C18        9.8792    9.1955   11.3890 C.ar      1 RES1    0.0000
     38 H13        9.5603    9.3998   12.2607 H         1 RES1    0.0000
     39 C19       10.6967   10.0776   10.7284 C.ar      1 RES1    0.0000
     40 C20       11.1996    9.7967    9.4750 C.ar      1 RES1    0.0000
     41 H14       11.7909   10.4044    9.0469 H         1 RES1    0.0000
     42 C21       10.8325    8.6201    8.8512 C.ar      1 RES1    0.0000
     43 H15       11.1627    8.4149    7.9844 H         1 RES1    0.0000
     44 C22        4.2853    9.1088    7.9987 C.ar      1 RES1    0.0000
     45 C23        4.0061    9.7460    6.7888 C.ar      1 RES1    0.0000
     46 C24        3.0187   10.7332    6.7108 C.ar      1 RES1    0.0000
     47 H16        2.8328   11.1548    5.8791 H         1 RES1    0.0000
     48 C25        2.3181   11.0934    7.8366 C.ar      1 RES1    0.0000
     49 H17        1.6464   11.7634    7.7817 H         1 RES1    0.0000
     50 C26        2.5838   10.4893    9.0426 C.ar      1 RES1    0.0000
     51 H18        2.1022   10.7490    9.8194 H         1 RES1    0.0000
     52 C27        3.5538    9.5026    9.1279 C.ar      1 RES1    0.0000
     53 H19        3.7249    9.0868    9.9644 H         1 RES1    0.0000
@<TRIPOS>BOND
     1    1    2 1
     2    2    4 2
     3    3   11 2
     4    4    5 1
     5    5    6 1
     6    7    1 1
     7    8   25 1
     8    9   10 1
     9   12    3 2
    10   13    1 1
    11   14   13 ar
    12   15   14 1
    13   16   14 ar
    14   17   16 1
    15   18   16 ar
    16   19   18 1
    17   20   18 ar
    18   21   20 1
    19   22   13 ar
    20   23   22 1
    21   24    7 1
    22   25   24 ar
    23   26   25 ar
    24   27   26 1
    25   28   26 ar
    26   29   28 1
    27   30   28 ar
    28   31   30 1
    29   32   24 ar
    30   33   32 1
    31   34    8 1
    32   35   34 ar
    33   36   35 1
    34   37   35 ar
    35   38   37 1
    36   39    3 1
    37   40   39 ar
    38   41   40 1
    39   42   34 ar
    40   43   42 1
    41   44    4 1
    42   45    9 1
    43   46   45 ar
    44   47   46 1
    45   48   46 ar
    46   49   48 1
    47   50   48 ar
    48   51   50 1
    49   52   44 ar
    50   53   52 1
    51    5    7 2
    52   20   22 ar
    53   30   32 ar
    54   37   39 ar
    55   40   42 ar
    56   44   45 ar
    57   50   52 ar
@<TRIPOS>SUBSTRUCTURE
     1 RES1 1

@<TRIPOS>CRYSIN
  12.1361   10.9072   16.6380  90.0000  98.0810  90.0000 231 1

