# MOL2 file generated by ConQuest
# Please check atom types

@<TRIPOS>MOLECULE
KUSYEC
    31    34     1
SMALL
NO_CHARGES
****
Generated from CSD

@<TRIPOS>ATOM
      1 C1         0.8734    2.1675    9.6460 C.ar      1 RES1    0.0000
      2 C2         1.2969    1.0745   10.3601 C.ar      1 RES1    0.0000
      3 C3         0.8304    0.8999   11.6565 C.ar      1 RES1    0.0000
      4 C4        -0.0428    1.7869   12.1895 C.ar      1 RES1    0.0000
      5 C5        -0.4914    2.8716   11.4650 C.ar      1 RES1    0.0000
      6 O1        -1.3613    3.7053   12.1041 O.3       1 RES1    0.0000
      7 C6        -1.8991    4.7945   11.3511 C.3       1 RES1    0.0000
      8 C7        -0.8940    5.3966   10.3886 C.3       1 RES1    0.0000
      9 C8        -1.4715    6.6477    9.7003 C.3       1 RES1    0.0000
     10 C9        -0.6374    6.9381    8.4842 C.2       1 RES1    0.0000
     11 C10       -0.5321    8.0209    7.5942 C.2       1 RES1    0.0000
     12 C11       -1.3202    9.2894    7.5890 C.3       1 RES1    0.0000
     13 N1         0.3650    7.8187    6.6601 N.2       1 RES1    0.0000
     14 O2         0.9136    6.5153    6.9369 O.3       1 RES1    0.0000
     15 C12        0.2638    6.0483    8.0237 C.2       1 RES1    0.0000
     16 N2         0.5751    4.8157    8.5024 N.3       1 RES1    0.0000
     17 C13       -0.4866    4.3000    9.4054 C.3       1 RES1    0.0000
     18 C14       -0.0221    3.0894   10.1609 C.ar      1 RES1    0.0000
     19 H1         1.2176    2.3090    8.7611 H         1 RES1    0.0000
     20 H2         1.8817    0.4320    9.9539 H         1 RES1    0.0000
     21 H3         1.1568    0.1636   12.1765 H         1 RES1    0.0000
     22 H4        -0.3851    1.6454   13.0744 H         1 RES1    0.0000
     23 H5        -2.2199    5.4720   11.9514 H         1 RES1    0.0000
     24 H6        -2.6470    4.4710   10.8440 H         1 RES1    0.0000
     25 H7        -2.5002    6.4804    9.4183 H         1 RES1    0.0000
     26 H8        -1.4257    7.4869   10.3783 H         1 RES1    0.0000
     27 H9        -1.0012    9.8290    6.8619 H         1 RES1    0.0000
     28 H10       -2.2507    9.0927    7.4570 H         1 RES1    0.0000
     29 H11       -1.2084    9.7665    8.4144 H         1 RES1    0.0000
     30 H12        0.9653    4.1833    7.8969 H         1 RES1    0.0000
     31 H13       -1.2543    4.0583    8.8827 H         1 RES1    0.0000
@<TRIPOS>BOND
     1    1    2 ar
     2    2    3 ar
     3    3    4 ar
     4    4    5 ar
     5    5    6 1
     6    6    7 1
     7    7    8 1
     8    8    9 1
     9    9   10 1
    10   10   11 1
    11   11   12 1
    12   12   27 1
    13   13   11 2
    14   14   13 1
    15   15   10 2
    16   16   15 1
    17   17    8 1
    18   18    1 ar
    19   19    1 1
    20   20    2 1
    21   21    3 1
    22   22    4 1
    23   23    7 1
    24   24    7 1
    25   25    9 1
    26   26    9 1
    27   28   12 1
    28   29   12 1
    29   30   16 1
    30   31   17 1
    31    5   18 ar
    32   14   15 1
    33   16   17 1
    34   17   18 1
@<TRIPOS>SUBSTRUCTURE
     1 RES1 1

@<TRIPOS>CRYSIN
   5.0560    9.1920   25.8830  90.0000  91.4700  90.0000 231 1

