# MOL2 file generated by ConQuest
# Please check atom types

@<TRIPOS>MOLECULE
KUTGAI
    32    32     1
SMALL
NO_CHARGES
****
Generated from CSD

@<TRIPOS>ATOM
      1 O1         2.7579    0.6505    8.0191 O.2       1 RES1    0.0000
      2 O2         4.5953    1.3836    8.8764 O.2       1 RES1    0.0000
      3 O3        -0.5233    3.4136    5.9079 O.2       1 RES1    0.0000
      4 O4        -0.2291    5.6480    5.9703 O.3       1 RES1    0.0000
      5 O5         7.4305    4.9591    7.7232 O.3       1 RES1    0.0000
      6 N1         3.4980    1.5841    8.3236 N.pl3     1 RES1    0.0000
      7 N2         5.0073    3.9835    9.1013 N.3       1 RES1    0.0000
      8 C1         1.8699    3.0684    7.3535 C.ar      1 RES1    0.0000
      9 H1         1.4011    2.3078    7.0951 H         1 RES1    0.0000
     10 C2         3.0730    2.9300    8.0383 C.ar      1 RES1    0.0000
     11 C3         3.8326    4.0660    8.4584 C.ar      1 RES1    0.0000
     12 C4         3.2515    5.3340    8.1667 C.ar      1 RES1    0.0000
     13 H2         3.6904    6.1046    8.4456 H         1 RES1    0.0000
     14 C5         2.0685    5.4544    7.4904 C.ar      1 RES1    0.0000
     15 H3         1.7246    6.3011    7.3151 H         1 RES1    0.0000
     16 C6         1.3625    4.3101    7.0526 C.ar      1 RES1    0.0000
     17 C7         0.1104    4.3911    6.2648 C.2       1 RES1    0.0000
     18 C8        -1.4118    5.8118    5.1280 C.3       1 RES1    0.0000
     19 H4        -2.1424    5.2739    5.4707 H         1 RES1    0.0000
     20 H5        -1.2180    5.5258    4.2217 H         1 RES1    0.0000
     21 C9        -1.7915    7.2638    5.1393 C.3       1 RES1    0.0000
     22 H6        -2.5847    7.3912    4.6135 H         1 RES1    0.0000
     23 H7        -1.0746    7.7856    4.7703 H         1 RES1    0.0000
     24 H8        -1.9583    7.5442    6.0427 H         1 RES1    0.0000
     25 C10        5.7988    5.1211    9.5555 C.3       1 RES1    0.0000
     26 H9         6.4361    4.8135   10.2190 H         1 RES1    0.0000
     27 H10        5.2100    5.7597    9.9870 H         1 RES1    0.0000
     28 C11        6.5552    5.8277    8.4350 C.3       1 RES1    0.0000
     29 H11        5.9151    6.2096    7.8140 H         1 RES1    0.0000
     30 H12        7.0720    6.5560    8.8132 H         1 RES1    0.0000
     31 H13        5.2587    3.2105    9.2965 H         1 RES1    0.0000
     32 H14        8.0617    4.7206    8.2036 H         1 RES1    0.0000
@<TRIPOS>BOND
     1    1    6 2
     2    2    6 2
     3    3   17 2
     4    4   17 1
     5    5   28 1
     6    6   10 1
     7    7   11 1
     8    8    9 1
     9   10    8 ar
    10   11   10 ar
    11   12   11 ar
    12   13   12 1
    13   14   12 ar
    14   15   14 1
    15   16    8 ar
    16   17   16 1
    17   18    4 1
    18   19   18 1
    19   20   18 1
    20   21   18 1
    21   22   21 1
    22   23   21 1
    23   24   21 1
    24   25    7 1
    25   26   25 1
    26   27   25 1
    27   28   25 1
    28   29   28 1
    29   30   28 1
    30   31    7 1
    31   32    5 1
    32   14   16 ar
@<TRIPOS>SUBSTRUCTURE
     1 RES1 1

@<TRIPOS>CRYSIN
  10.6422   14.9954    7.1975  90.0000  99.6070  90.0000  14 1

