# MOL2 file generated by ConQuest
# Please check atom types

@<TRIPOS>MOLECULE
KUTKOA
    33    34     1
SMALL
NO_CHARGES
****
Generated from CSD

@<TRIPOS>ATOM
      1 O1        -2.5010    1.8054    4.6673 O.2       1 RES1    0.0000
      2 O2        -3.5802    3.1770    3.4021 O.2       1 RES1    0.0000
      3 N1         0.0922    2.6274    4.8907 N.3       1 RES1    0.0000
      4 H1        -0.2030    2.0100    4.3692 H         1 RES1    0.0000
      5 N2        -0.2080    4.6850    5.8575 N.3       1 RES1    0.0000
      6 N3         1.5540    3.2678    6.6891 N.3       1 RES1    0.0000
      7 N4        -1.8516    3.9550    4.4610 N.2       1 RES1    0.0000
      8 N5        -2.6417    2.9283    4.1740 N.pl3     1 RES1    0.0000
      9 C1        -0.6610    3.7015    5.0825 C.2       1 RES1    0.0000
     10 C2        -0.9989    5.8620    6.1714 C.3       1 RES1    0.0000
     11 H2        -1.8757    5.7692    5.7916 H         1 RES1    0.0000
     12 H3        -0.5721    6.6407    5.8058 H         1 RES1    0.0000
     13 H4        -1.0717    5.9542    7.1246 H         1 RES1    0.0000
     14 C3         1.1879    4.6090    6.3467 C.3       1 RES1    0.0000
     15 H5         1.7871    4.9390    5.6597 H         1 RES1    0.0000
     16 H6         1.2856    5.1769    7.1261 H         1 RES1    0.0000
     17 C4         1.4043    2.4370    5.5207 C.3       1 RES1    0.0000
     18 H7         1.5070    1.5058    5.7732 H         1 RES1    0.0000
     19 H8         2.1013    2.6518    4.8826 H         1 RES1    0.0000
     20 C5         0.8544    2.7541    7.8701 C.3       1 RES1    0.0000
     21 H9        -0.0634    2.5515    7.6309 H         1 RES1    0.0000
     22 H10        0.8364    3.4447    8.5513 H         1 RES1    0.0000
     23 C6         1.4962    1.5187    8.4407 C.ar      1 RES1    0.0000
     24 C7         0.7317    0.6059    9.1544 C.ar      1 RES1    0.0000
     25 H11       -0.1842    0.7448    9.2405 H         1 RES1    0.0000
     26 C8         1.3096   -0.5083    9.7398 C.ar      1 RES1    0.0000
     27 H12        0.7858   -1.1060   10.2232 H         1 RES1    0.0000
     28 C9         2.6661   -0.7292    9.6044 C.ar      1 RES1    0.0000
     29 H13        3.0585   -1.4780    9.9921 H         1 RES1    0.0000
     30 C10        3.4331    0.1620    8.8949 C.ar      1 RES1    0.0000
     31 H14        4.3466    0.0122    8.8051 H         1 RES1    0.0000
     32 C11        2.8629    1.2822    8.3117 C.ar      1 RES1    0.0000
     33 H15        3.3939    1.8772    7.8337 H         1 RES1    0.0000
@<TRIPOS>BOND
     1    1    8 2
     2    2    8 2
     3    3    4 1
     4    5    9 1
     5    6   14 1
     6    7    8 1
     7    9    3 1
     8   10    5 1
     9   11   10 1
    10   12   10 1
    11   13   10 1
    12   14    5 1
    13   15   14 1
    14   16   14 1
    15   17    3 1
    16   18   17 1
    17   19   17 1
    18   20    6 1
    19   21   20 1
    20   22   20 1
    21   23   20 1
    22   24   23 ar
    23   25   24 1
    24   26   24 ar
    25   27   26 1
    26   28   26 ar
    27   29   28 1
    28   30   28 ar
    29   31   30 1
    30   32   23 ar
    31   33   32 1
    32    6   17 1
    33    7    9 2
    34   30   32 ar
@<TRIPOS>SUBSTRUCTURE
     1 RES1 1

@<TRIPOS>CRYSIN
  12.2930    6.7769   14.8580  90.0000 107.3600  90.0000  14 1

