# MOL2 file generated by ConQuest
# Please check atom types

@<TRIPOS>MOLECULE
KUTNUJ
    18    17     1
SMALL
NO_CHARGES
****
Generated from CSD

@<TRIPOS>ATOM
      1 O1        -6.9591    2.1410   11.4024 O.3       1 RES1    0.0000
      2 O2        -3.9267    4.6589   11.6232 O.3       1 RES1    0.0000
      3 O3        -6.2749    1.3932    9.3936 O.2       1 RES1    0.0000
      4 N1        -4.9810    3.7496   11.5706 N.2       1 RES1    0.0000
      5 C1        -4.9919    3.0707   10.4874 C.2       1 RES1    0.0000
      6 C2        -6.1298    2.1052   10.3541 C.2       1 RES1    0.0000
      7 C3        -8.1307    1.2826   11.3114 C.3       1 RES1    0.0000
      8 H1        -7.8646    0.3503   11.3050 H         1 RES1    0.0000
      9 H2        -8.6200    1.4688   10.4951 H         1 RES1    0.0000
     10 C4        -8.9875    1.5678   12.5057 C.3       1 RES1    0.0000
     11 H3        -9.2449    2.4931   12.5018 H         1 RES1    0.0000
     12 H4        -8.4956    1.3759   13.3079 H         1 RES1    0.0000
     13 H5        -9.7750    1.0177   12.4749 H         1 RES1    0.0000
     14 C5        -4.0379    3.1826    9.3661 C.3       1 RES1    0.0000
     15 H6        -3.1495    3.0008    9.6827 H         1 RES1    0.0000
     16 H7        -4.0731    4.0707    9.0035 H         1 RES1    0.0000
     17 H8        -4.2700    2.5484    8.6831 H         1 RES1    0.0000
     18 H9        -4.0401    4.9711   12.4301 H         1 RES1    0.0000
@<TRIPOS>BOND
     1    1    6 1
     2    2    4 1
     3    3    6 2
     4    4    5 2
     5    5    6 1
     6    7    1 1
     7    8    7 1
     8    9    7 1
     9   10    7 1
    10   11   10 1
    11   12   10 1
    12   13   10 1
    13   14    5 1
    14   15   14 1
    15   16   14 1
    16   17   14 1
    17   18    2 1
@<TRIPOS>SUBSTRUCTURE
     1 RES1 1

@<TRIPOS>CRYSIN
  11.7430    4.4227   16.8600  90.0000 130.5310  90.0000  14 1

