# MOL2 file generated by ConQuest
# Please check atom types

@<TRIPOS>MOLECULE
KUVKER
    27    28     1
SMALL
NO_CHARGES
****
Generated from CSD

@<TRIPOS>ATOM
      1 O1         8.6430    1.7311    0.2901 O.2       1 RES1    0.0000
      2 N1         8.0341   -0.2779   -2.3474 N.pl3     1 RES1    0.0000
      3 N2         7.9668    0.0318   -0.9944 N.2       1 RES1    0.0000
      4 N3         8.5461    1.1574   -0.8360 N.pl3     1 RES1    0.0000
      5 N4         8.9440    0.6124   -4.3341 N.2       1 RES1    0.0000
      6 C1         8.7161    0.6869   -3.0892 C.2       1 RES1    0.0000
      7 C2         9.0915    1.7678   -2.0948 C.3       1 RES1    0.0000
      8 C3         8.3560    3.0761   -2.3570 C.3       1 RES1    0.0000
      9 C4        10.5916    1.9485   -1.9610 C.3       1 RES1    0.0000
     10 C5         7.4714   -1.5137   -2.7520 C.ar      1 RES1    0.0000
     11 C6         7.2650   -2.5152   -1.8026 C.ar      1 RES1    0.0000
     12 C7         6.7580   -3.7441   -2.2018 C.ar      1 RES1    0.0000
     13 C8         6.4634   -3.9843   -3.5377 C.ar      1 RES1    0.0000
     14 C9         6.6410   -2.9709   -4.4679 C.ar      1 RES1    0.0000
     15 C10        7.1356   -1.7271   -4.0879 C.ar      1 RES1    0.0000
     16 H1         9.4321    1.3132   -4.5792 H         1 RES1    0.0000
     17 H2         8.5995    3.6855   -1.6506 H         1 RES1    0.0000
     18 H3         8.6827    3.4384   -3.2069 H         1 RES1    0.0000
     19 H4         7.3704    2.9421   -2.4266 H         1 RES1    0.0000
     20 H5        11.0179    1.1375   -1.6977 H         1 RES1    0.0000
     21 H6        10.7834    2.6393   -1.3091 H         1 RES1    0.0000
     22 H7        10.9599    2.2195   -2.8633 H         1 RES1    0.0000
     23 H8         7.4749   -2.3564   -0.8884 H         1 RES1    0.0000
     24 H9         6.5797   -4.4468   -1.5285 H         1 RES1    0.0000
     25 H10        6.0925   -4.8330   -3.8085 H         1 RES1    0.0000
     26 H11        6.4013   -3.1138   -5.4088 H         1 RES1    0.0000
     27 H12        7.2798   -1.0254   -4.7376 H         1 RES1    0.0000
@<TRIPOS>BOND
     1    1    4 1
     2    2    3 1
     3    3    4 2
     4    4    7 1
     5    5    6 2
     6    6    2 1
     7    7    6 1
     8    8    7 1
     9    9    7 1
    10   10    2 1
    11   11   10 ar
    12   12   11 ar
    13   13   12 ar
    14   14   13 ar
    15   15   10 ar
    16   16    5 1
    17   17    8 1
    18   18    8 1
    19   19    8 1
    20   20    9 1
    21   21    9 1
    22   22    9 1
    23   23   11 1
    24   24   12 1
    25   25   13 1
    26   26   14 1
    27   27   15 1
    28   14   15 ar
@<TRIPOS>SUBSTRUCTURE
     1 RES1 1

@<TRIPOS>CRYSIN
   9.5920    9.9260   11.3470  90.0000 109.3800  90.0000  14 1

