# MOL2 file generated by ConQuest
# Please check atom types

@<TRIPOS>MOLECULE
KUWGOZ
    33    34     1
SMALL
NO_CHARGES
****
Generated from CSD

@<TRIPOS>ATOM
      1 N1        -0.9605   -2.0967   10.3594 N.3       1 RES1    0.0000
      2 N2        -1.8707   -1.6337   11.2531 N.2       1 RES1    0.0000
      3 C1        -1.4083   -1.9254    9.0837 C.2       1 RES1    0.0000
      4 C2        -2.6399   -1.3337    9.1762 C.2       1 RES1    0.0000
      5 H1        -3.2030   -1.0912    8.4763 H         1 RES1    0.0000
      6 C3        -2.8687   -1.1741   10.5243 C.2       1 RES1    0.0000
      7 H2        -3.6371   -0.7881   10.8793 H         1 RES1    0.0000
      8 C4         0.3048   -2.7102   10.8667 C.3       1 RES1    0.0000
      9 C5         1.4967   -1.9549   10.3001 C.3       1 RES1    0.0000
     10 H3         1.5180   -2.0603    9.3461 H         1 RES1    0.0000
     11 H4         2.3057   -2.3042   10.6793 H         1 RES1    0.0000
     12 H5         1.4173   -1.0235   10.5173 H         1 RES1    0.0000
     13 C6         0.3719   -4.1640   10.4114 C.3       1 RES1    0.0000
     14 H6        -0.3837   -4.6438   10.7589 H         1 RES1    0.0000
     15 H7         1.1817   -4.5645   10.7372 H         1 RES1    0.0000
     16 H8         0.3607   -4.2003    9.4520 H         1 RES1    0.0000
     17 C7         0.3204   -2.6364   12.3790 C.3       1 RES1    0.0000
     18 H9         0.2643   -1.7186   12.6551 H         1 RES1    0.0000
     19 H10        1.1343   -3.0213   12.7103 H         1 RES1    0.0000
     20 H11       -0.4295   -3.1227   12.7312 H         1 RES1    0.0000
     21 C8        -0.7064   -2.2830    7.8251 C.ar      1 RES1    0.0000
     22 C9         0.3974   -2.8492    5.3737 C.ar      1 RES1    0.0000
     23 C10       -0.9421   -3.5088    7.2090 C.ar      1 RES1    0.0000
     24 H12       -1.4765   -4.1419    7.6309 H         1 RES1    0.0000
     25 C11       -0.3880   -3.7926    5.9772 C.ar      1 RES1    0.0000
     26 H13       -0.5463   -4.6111    5.5646 H         1 RES1    0.0000
     27 C12        0.0994   -1.3561    7.1819 C.ar      1 RES1    0.0000
     28 H14        0.2648   -0.5347    7.5866 H         1 RES1    0.0000
     29 C13        0.6597   -1.6296    5.9544 C.ar      1 RES1    0.0000
     30 H15        1.2020   -1.0060    5.5284 H         1 RES1    0.0000
     31 N3         0.9859   -3.1481    4.0586 N.pl3     1 RES1    0.0000
     32 O1         0.7877   -4.2330    3.5757 O.2       1 RES1    0.0000
     33 O2         1.6625   -2.3191    3.5218 O.2       1 RES1    0.0000
@<TRIPOS>BOND
     1    1    2 1
     2    2    6 2
     3    3    1 1
     4    4    3 2
     5    5    4 1
     6    6    4 1
     7    7    6 1
     8    8    1 1
     9    9    8 1
    10   10    9 1
    11   11    9 1
    12   12    9 1
    13   13    8 1
    14   14   13 1
    15   15   13 1
    16   16   13 1
    17   17    8 1
    18   18   17 1
    19   19   17 1
    20   20   17 1
    21   21    3 1
    22   22   25 ar
    23   23   21 ar
    24   24   23 1
    25   25   23 ar
    26   26   25 1
    27   27   21 ar
    28   28   27 1
    29   29   22 ar
    30   30   29 1
    31   31   22 1
    32   32   31 2
    33   33   31 2
    34   27   29 ar
@<TRIPOS>SUBSTRUCTURE
     1 RES1 1

@<TRIPOS>CRYSIN
   8.1347    9.5170   10.2211 106.5160 102.4200 114.6970   2 1

