# MOL2 file generated by ConQuest
# Please check atom types

@<TRIPOS>MOLECULE
KUXCUB
    56    60     1
SMALL
NO_CHARGES
****
Generated from CSD

@<TRIPOS>ATOM
      1 O1         2.9646    1.8969   11.5047 O.2       1 RES1    0.0000
      2 N1         2.2925    0.8152   11.3606 N.pl3     1 RES1    0.0000
      3 N2         2.5554   -0.5656    7.0283 N.3       1 RES1    0.0000
      4 C1         1.6042    1.2402    7.8849 C.2       1 RES1    0.0000
      5 C2         2.5449    0.2856    8.0764 C.2       1 RES1    0.0000
      6 C3         1.5889   -0.1338    6.1204 C.ar      1 RES1    0.0000
      7 C4         1.1816   -0.5656    4.8415 C.ar      1 RES1    0.0000
      8 C5         0.1749    0.1383    4.1981 C.ar      1 RES1    0.0000
      9 C6        -0.3805    1.2413    4.7606 C.ar      1 RES1    0.0000
     10 C7        -0.0201    1.7080    6.0139 C.ar      1 RES1    0.0000
     11 C8         0.9770    1.0007    6.6810 C.ar      1 RES1    0.0000
     12 C9         3.4798    0.2035    9.2488 C.3       1 RES1    0.0000
     13 C10        2.8632   -0.3160   10.5534 C.3       1 RES1    0.0000
     14 C11        1.7514   -1.3088   10.4764 C.3       1 RES1    0.0000
     15 C12        0.7505   -0.9164   11.5797 C.3       1 RES1    0.0000
     16 C13        1.1281    0.5386   11.9093 C.2       1 RES1    0.0000
     17 C14        3.4435   -1.7473    6.8112 C.3       1 RES1    0.0000
     18 C15        1.3938    2.4939    8.6724 C.3       1 RES1    0.0000
     19 C16        2.1520   -2.7604   10.5257 C.ar      1 RES1    0.0000
     20 C17        1.7648   -3.6487    9.5251 C.ar      1 RES1    0.0000
     21 C18        2.0812   -4.9766    9.6257 C.ar      1 RES1    0.0000
     22 C19        2.7609   -5.4961   10.6738 C.ar      1 RES1    0.0000
     23 C20        3.1185   -4.6674   11.6350 C.ar      1 RES1    0.0000
     24 C21        2.8355   -3.2461   11.5836 C.ar      1 RES1    0.0000
     25 C22        0.3289    1.4145   12.7481 C.ar      1 RES1    0.0000
     26 C23       -0.7610    0.8995   13.3856 C.ar      1 RES1    0.0000
     27 C24       -1.5946    1.7001   14.1949 C.ar      1 RES1    0.0000
     28 C25       -1.2562    3.0066   14.3646 C.ar      1 RES1    0.0000
     29 C26       -0.1291    3.5599   13.7310 C.ar      1 RES1    0.0000
     30 C27        0.6147    2.7390   12.9317 C.ar      1 RES1    0.0000
     31 H1         1.5927   -1.3549    4.4369 H         1 RES1    0.0000
     32 H2        -0.1396   -0.1788    3.3336 H         1 RES1    0.0000
     33 H3        -1.0134    1.7664    4.2533 H         1 RES1    0.0000
     34 H4        -0.4732    2.4692    6.4086 H         1 RES1    0.0000
     35 H5         3.8144    1.1143    9.4126 H         1 RES1    0.0000
     36 H6         4.2140   -0.3238    8.9902 H         1 RES1    0.0000
     37 H7         3.5678   -0.7196   11.0764 H         1 RES1    0.0000
     38 H8         1.2944   -1.1761    9.6218 H         1 RES1    0.0000
     39 H9         0.8910   -1.4685   12.3790 H         1 RES1    0.0000
     40 H10       -0.1539   -0.9973   11.3350 H         1 RES1    0.0000
     41 H11        3.8661   -1.8699    6.0987 H         1 RES1    0.0000
     42 H12        3.0735   -2.8346    7.2060 H         1 RES1    0.0000
     43 H13        4.3402   -1.5809    7.4843 H         1 RES1    0.0000
     44 H14        1.2743    3.2439    8.1987 H         1 RES1    0.0000
     45 H15        0.3432    2.4220    9.1955 H         1 RES1    0.0000
     46 H16        1.9483    2.5074    9.5014 H         1 RES1    0.0000
     47 H17        1.2466   -3.3001    8.7790 H         1 RES1    0.0000
     48 H18        1.8298   -5.5838    8.8974 H         1 RES1    0.0000
     49 H19        2.9942   -6.4496   10.6777 H         1 RES1    0.0000
     50 H20        3.5238   -5.0294   12.4619 H         1 RES1    0.0000
     51 H21        3.2093   -2.6075   12.2705 H         1 RES1    0.0000
     52 H22       -0.9608   -0.0877   13.2633 H         1 RES1    0.0000
     53 H23       -2.3967    1.3223   14.6172 H         1 RES1    0.0000
     54 H24       -1.8403    3.5542   14.9330 H         1 RES1    0.0000
     55 H25        0.1032    4.5111   13.8356 H         1 RES1    0.0000
     56 H26        1.3671    3.1258   12.5271 H         1 RES1    0.0000
@<TRIPOS>BOND
     1    1    2 1
     2    2   13 1
     3    3    5 1
     4    4    5 2
     5    5   12 1
     6    6    3 1
     7    7    6 ar
     8    8    7 ar
     9    9    8 ar
    10   10    9 ar
    11   11    4 1
    12   12   13 1
    13   13   14 1
    14   14   15 1
    15   15   16 1
    16   16    2 2
    17   17    3 1
    18   18    4 1
    19   19   14 1
    20   20   19 ar
    21   21   20 ar
    22   22   21 ar
    23   23   22 ar
    24   24   19 ar
    25   25   16 1
    26   26   25 ar
    27   27   26 ar
    28   28   27 ar
    29   29   28 ar
    30   30   25 ar
    31   31    7 1
    32   32    8 1
    33   33    9 1
    34   34   10 1
    35   35   12 1
    36   36   12 1
    37   37   13 1
    38   38   14 1
    39   39   15 1
    40   40   15 1
    41   41   17 1
    42   42   17 1
    43   43   17 1
    44   44   18 1
    45   45   18 1
    46   46   18 1
    47   47   20 1
    48   48   21 1
    49   49   22 1
    50   50   23 1
    51   51   24 1
    52   52   26 1
    53   53   27 1
    54   54   28 1
    55   55   29 1
    56   56   30 1
    57    6   11 ar
    58   10   11 ar
    59   23   24 ar
    60   29   30 ar
@<TRIPOS>SUBSTRUCTURE
     1 RES1 1

@<TRIPOS>CRYSIN
   9.5600   11.2440   19.7370  90.0000  90.0000  90.0000  19 1

