# MOL2 file generated by ConQuest
# Please check atom types

@<TRIPOS>MOLECULE
KUXDAI
    32    35     1
SMALL
NO_CHARGES
****
Generated from CSD

@<TRIPOS>ATOM
      1 N1        10.4930    8.0235    0.5350 N.3       1 RES1    0.0000
      2 C1        11.3323    6.8373    0.3095 C.3       1 RES1    0.0000
      3 C2        11.9081    6.9524   -1.1012 C.3       1 RES1    0.0000
      4 C3        12.7335    8.2247   -1.2324 C.3       1 RES1    0.0000
      5 C4        11.8803    9.4161   -0.8611 C.3       1 RES1    0.0000
      6 C5        11.2942    9.2398    0.5146 C.3       1 RES1    0.0000
      7 O1         9.9954    7.9717    1.9273 O.3       1 RES1    0.0000
      8 C6         9.1318    6.8269    2.0687 C.3       1 RES1    0.0000
      9 C7         9.9520    5.5588    1.9610 C.3       1 RES1    0.0000
     10 C8        10.4757    5.5713    0.5420 C.3       1 RES1    0.0000
     11 O2        11.3237    4.4296    0.2433 O.3       1 RES1    0.0000
     12 C9        10.7705    3.7266   -0.7936 C.2       1 RES1    0.0000
     13 O3        11.3254    2.7540   -1.2273 O.2       1 RES1    0.0000
     14 C10        9.5063    4.3508   -1.1522 C.2       1 RES1    0.0000
     15 C11        9.3069    5.3971   -0.3541 C.2       1 RES1    0.0000
     16 C12        8.1277    6.2110   -0.0911 C.2       1 RES1    0.0000
     17 C13        8.0410    6.8674    1.0611 C.2       1 RES1    0.0000
     18 H1        12.1214    6.7710    1.0445 H         1 RES1    0.0000
     19 H2        11.0982    7.0302   -1.7833 H         1 RES1    0.0000
     20 H3        12.5722    6.1177   -1.3311 H         1 RES1    0.0000
     21 H4        13.6647    8.1500   -0.6751 H         1 RES1    0.0000
     22 H5        13.0578    8.2745   -2.2164 H         1 RES1    0.0000
     23 H6        12.1040   10.1927   -0.8980 H         1 RES1    0.0000
     24 H7        11.0982    9.5498   -1.6623 H         1 RES1    0.0000
     25 H8        10.7514    9.9542    0.7961 H         1 RES1    0.0000
     26 H9        11.9479    9.1455    1.2483 H         1 RES1    0.0000
     27 H10        8.8613    6.9161    3.0189 H         1 RES1    0.0000
     28 H11       10.6127    5.6200    2.5030 H         1 RES1    0.0000
     29 H12        9.3121    4.7075    2.1718 H         1 RES1    0.0000
     30 H13        9.0347    3.9610   -1.7451 H         1 RES1    0.0000
     31 H14        7.2485    6.2214   -0.7452 H         1 RES1    0.0000
     32 H15        7.1965    7.4657    1.2420 H         1 RES1    0.0000
@<TRIPOS>BOND
     1    1    2 1
     2    2    3 1
     3    3    4 1
     4    4    5 1
     5    5    6 1
     6    6    1 1
     7    7    1 1
     8    8    7 1
     9    9    8 1
    10   10    2 1
    11   11   10 1
    12   12   11 1
    13   13   12 2
    14   14   12 1
    15   15   10 1
    16   16   15 1
    17   17    8 1
    18   18    2 1
    19   19    3 1
    20   20    3 1
    21   21    4 1
    22   22    4 1
    23   23    5 1
    24   24    5 1
    25   25    6 1
    26   26    6 1
    27   27    8 1
    28   28    9 1
    29   29    9 1
    30   30   14 1
    31   31   16 1
    32   32   17 1
    33    9   10 1
    34   14   15 2
    35   16   17 2
@<TRIPOS>SUBSTRUCTURE
     1 RES1 1

@<TRIPOS>CRYSIN
  17.3410   10.3690    6.3690  90.0000  90.0000  90.0000  19 1

