# MOL2 file generated by ConQuest
# Please check atom types

@<TRIPOS>MOLECULE
KUXZUZ
    48    50     1
SMALL
NO_CHARGES
****
Generated from CSD

@<TRIPOS>ATOM
      1 C1         8.8588    4.0462    3.7812 C.ar      1 RES1    0.0000
      2 H1         8.1620    4.6077    4.0308 H         1 RES1    0.0000
      3 C2        10.0240    4.5896    3.2628 C.ar      1 RES1    0.0000
      4 H2        10.0984    5.5109    3.1573 H         1 RES1    0.0000
      5 C3        11.0709    3.7675    2.9038 C.ar      1 RES1    0.0000
      6 H3        11.8539    4.1345    2.5634 H         1 RES1    0.0000
      7 C4        10.9542    2.3953    3.0505 C.ar      1 RES1    0.0000
      8 H4        11.6581    1.8407    2.8053 H         1 RES1    0.0000
      9 C5         9.7858    1.8454    3.5637 C.ar      1 RES1    0.0000
     10 H5         9.7107    0.9231    3.6617 H         1 RES1    0.0000
     11 C6         8.7241    2.6689    3.9315 C.ar      1 RES1    0.0000
     12 C7         7.4259    2.1303    4.4942 C.3       1 RES1    0.0000
     13 H6         6.7785    2.8635    4.4458 H         1 RES1    0.0000
     14 C8         6.8183    0.9518    3.6870 C.3       1 RES1    0.0000
     15 H7         7.5394    0.4987    3.2008 H         1 RES1    0.0000
     16 C9         6.1436   -0.0586    4.6275 C.3       1 RES1    0.0000
     17 H8         5.5939   -0.7004    4.1306 H         1 RES1    0.0000
     18 C10        7.2937   -0.7631    5.3794 C.3       1 RES1    0.0000
     19 H9         6.9331   -1.3774    6.0382 H         1 RES1    0.0000
     20 H10        7.8380   -1.2677    4.7554 H         1 RES1    0.0000
     21 C11        8.1308    0.2957    6.0607 C.2       1 RES1    0.0000
     22 C12        7.4748    1.6814    5.9858 C.3       1 RES1    0.0000
     23 C13        5.3394    0.6561    5.6852 C.2       1 RES1    0.0000
     24 C14        8.1218    2.7167    6.8737 C.3       1 RES1    0.0000
     25 H11        7.5990    3.5328    6.8292 H         1 RES1    0.0000
     26 H12        9.0052    2.9145    6.5254 H         1 RES1    0.0000
     27 C15        8.2558    2.3064    8.3251 C.2       1 RES1    0.0000
     28 C16        9.6020    2.9043   10.3073 C.3       1 RES1    0.0000
     29 C17       10.1766    1.5141   10.4768 C.3       1 RES1    0.0000
     30 H13        9.4725    0.8655   10.4049 H         1 RES1    0.0000
     31 H14       10.5914    1.4428   11.3393 H         1 RES1    0.0000
     32 H15       10.8302    1.3531    9.7928 H         1 RES1    0.0000
     33 C18       10.6790    3.9613   10.4519 C.3       1 RES1    0.0000
     34 H16       11.3848    3.7866    9.8249 H         1 RES1    0.0000
     35 H17       11.0314    3.9395   11.3450 H         1 RES1    0.0000
     36 H18       10.3023    4.8271   10.2777 H         1 RES1    0.0000
     37 C19        8.4529    3.1843   11.2483 C.3       1 RES1    0.0000
     38 H19        8.0769    4.0459   11.0492 H         1 RES1    0.0000
     39 H20        8.7718    3.1760   12.1544 H         1 RES1    0.0000
     40 H21        7.7778    2.5100   11.1398 H         1 RES1    0.0000
     41 O1         9.2158    0.1164    6.5460 O.2       1 RES1    0.0000
     42 O2         6.0820    1.5356    6.4072 O.3       1 RES1    0.0000
     43 O3         4.1904    0.4819    5.9723 O.2       1 RES1    0.0000
     44 O4         6.3816    2.1733    1.7653 O.2       1 RES1    0.0000
     45 O5         4.6714    1.4315    2.8695 O.2       1 RES1    0.0000
     46 O6         7.6315    1.4284    8.8625 O.2       1 RES1    0.0000
     47 O7         9.1647    3.0946    8.8982 O.3       1 RES1    0.0000
     48 N1         5.8655    1.5542    2.6891 N.pl3     1 RES1    0.0000
@<TRIPOS>BOND
     1    1    2 1
     2    3    1 ar
     3    4    3 1
     4    5    3 ar
     5    6    5 1
     6    7    5 ar
     7    8    7 1
     8    9    7 ar
     9   10    9 1
    10   11    1 ar
    11   12   11 1
    12   13   12 1
    13   14   12 1
    14   15   14 1
    15   16   14 1
    16   17   16 1
    17   18   16 1
    18   19   18 1
    19   20   18 1
    20   21   18 1
    21   22   12 1
    22   23   16 1
    23   24   22 1
    24   25   24 1
    25   26   24 1
    26   27   24 1
    27   28   29 1
    28   29   30 1
    29   31   29 1
    30   32   29 1
    31   33   28 1
    32   34   33 1
    33   35   33 1
    34   36   33 1
    35   37   28 1
    36   38   37 1
    37   39   37 1
    38   40   37 1
    39   41   21 2
    40   42   22 1
    41   43   23 2
    42   44   48 2
    43   45   48 2
    44   46   27 2
    45   47   27 1
    46   48   14 1
    47    9   11 ar
    48   21   22 1
    49   23   42 1
    50   28   47 1
@<TRIPOS>SUBSTRUCTURE
     1 RES1 1

@<TRIPOS>CRYSIN
  28.8976   11.0816   12.2137  90.0000 110.1760  90.0000  15 1

