# MOL2 file generated by ConQuest
# Please check atom types

@<TRIPOS>MOLECULE
KUYFUH
    47    48     1
SMALL
NO_CHARGES
****
Generated from CSD

@<TRIPOS>ATOM
      1 C1         3.0218    4.5674    8.4889 C.ar      1 RES1    0.0000
      2 H1         3.9140    4.6735    8.7361 H         1 RES1    0.0000
      3 N1         3.5278    5.7718    6.4052 N.pl3     1 RES1    0.0000
      4 O1         4.7047    5.7727    6.7241 O.2       1 RES1    0.0000
      5 C2         2.5426    5.0838    7.3033 C.ar      1 RES1    0.0000
      6 N2        -1.0429    4.1704    7.3083 N.pl3     1 RES1    0.0000
      7 O2         3.0906    6.2909    5.3861 O.2       1 RES1    0.0000
      8 C3         1.2246    4.9636    6.8805 C.ar      1 RES1    0.0000
      9 H2         0.9294    5.3235    6.0763 H         1 RES1    0.0000
     10 O3        -1.4069    4.7717    6.2862 O.2       1 RES1    0.0000
     11 C4         0.3924    4.2844    7.7230 C.ar      1 RES1    0.0000
     12 O4        -1.7997    3.4956    8.0166 O.2       1 RES1    0.0000
     13 O5         1.8318    2.5600   11.2889 O.2       1 RES1    0.0000
     14 C5         0.8048    3.7424    8.9096 C.ar      1 RES1    0.0000
     15 H3         0.2003    3.2834    9.4484 H         1 RES1    0.0000
     16 O6         3.8552    3.4894   10.8570 O.3       1 RES1    0.0000
     17 C6         2.1200    3.8803    9.3042 C.ar      1 RES1    0.0000
     18 C7         2.5665    3.2383   10.6048 C.2       1 RES1    0.0000
     19 C8         4.4413    2.8890   12.0769 C.3       1 RES1    0.0000
     20 H4         4.1375    1.9631   12.1849 H         1 RES1    0.0000
     21 C9         5.9697    2.9394   11.9064 C.3       1 RES1    0.0000
     22 H5         6.1891    2.8722   10.9539 H         1 RES1    0.0000
     23 C10        6.2596    4.3596   12.3877 C.3       1 RES1    0.0000
     24 H6         5.8412    4.9370   11.7147 H         1 RES1    0.0000
     25 C11        5.3560    4.4984   13.6278 C.3       1 RES1    0.0000
     26 H7         5.7919    4.1314   14.4138 H         1 RES1    0.0000
     27 H8         5.1412    5.4296   13.7943 H         1 RES1    0.0000
     28 C12        4.0906    3.6981   13.2817 C.3       1 RES1    0.0000
     29 H9         3.8399    3.1198   14.0193 H         1 RES1    0.0000
     30 H10        3.3503    4.2950   13.0890 H         1 RES1    0.0000
     31 C13        6.6370    1.7872   12.6581 C.3       1 RES1    0.0000
     32 H11        7.5870    1.8305   12.5310 H         1 RES1    0.0000
     33 H12        6.3067    0.9506   12.3211 H         1 RES1    0.0000
     34 H13        6.4351    1.8561   13.5945 H         1 RES1    0.0000
     35 C14        7.7362    4.9061   12.5118 C.3       1 RES1    0.0000
     36 C15        8.4537    4.3950   13.7791 C.3       1 RES1    0.0000
     37 H14        8.5543    3.4390   13.7267 H         1 RES1    0.0000
     38 H15        7.9338    4.6178   14.5541 H         1 RES1    0.0000
     39 H16        9.3191    4.8009   13.8447 H         1 RES1    0.0000
     40 C16        7.6522    6.4377   12.6067 C.3       1 RES1    0.0000
     41 H17        7.2204    6.7861   11.8217 H         1 RES1    0.0000
     42 H18        8.5385    6.8056   12.6733 H         1 RES1    0.0000
     43 H19        7.1468    6.6853   13.3846 H         1 RES1    0.0000
     44 C17        8.5536    4.5541   11.2828 C.3       1 RES1    0.0000
     45 H20        8.6160    3.5964   11.2031 H         1 RES1    0.0000
     46 H21        9.4349    4.9229   11.3666 H         1 RES1    0.0000
     47 H22        8.1301    4.9105   10.4998 H         1 RES1    0.0000
@<TRIPOS>BOND
     1    1    2 1
     2    3    4 2
     3    5    1 ar
     4    6   10 2
     5    7    3 2
     6    8    5 ar
     7    9    8 1
     8   11    6 1
     9   12    6 2
    10   13   18 2
    11   14   11 ar
    12   15   14 1
    13   16   18 1
    14   17    1 ar
    15   18   17 1
    16   19   16 1
    17   20   19 1
    18   21   19 1
    19   22   21 1
    20   23   21 1
    21   24   23 1
    22   25   23 1
    23   26   25 1
    24   27   25 1
    25   28   19 1
    26   29   28 1
    27   30   28 1
    28   31   21 1
    29   32   31 1
    30   33   31 1
    31   34   31 1
    32   35   23 1
    33   36   35 1
    34   37   36 1
    35   38   36 1
    36   39   36 1
    37   40   35 1
    38   41   40 1
    39   42   40 1
    40   43   40 1
    41   44   35 1
    42   45   44 1
    43   46   44 1
    44   47   44 1
    45    3    5 1
    46    8   11 ar
    47   14   17 ar
    48   25   28 1
@<TRIPOS>SUBSTRUCTURE
     1 RES1 1

@<TRIPOS>CRYSIN
  20.8810    8.8430   10.1020  90.0000  92.7720  90.0000  14 1

