# MOL2 file generated by ConQuest
# Please check atom types

@<TRIPOS>MOLECULE
KUYVAD
    38    39     1
SMALL
NO_CHARGES
****
Generated from CSD

@<TRIPOS>ATOM
      1 N1         3.2761    9.5536    1.4358 N.ar      1 RES1    0.0000
      2 C1         2.3705    9.4181    2.4329 C.ar      1 RES1    0.0000
      3 N2         2.7359    8.6260    3.4451 N.3       1 RES1    0.0000
      4 H1         2.2164    8.4319    4.1335 H         1 RES1    0.0000
      5 C2         1.1285   10.0909    2.3720 C.ar      1 RES1    0.0000
      6 N3         0.1441   10.0101    3.4608 N.pl3     1 RES1    0.0000
      7 O1         0.4063    9.2839    4.4340 O.2       1 RES1    0.0000
      8 O2        -0.8988   10.6512    3.3390 O.2       1 RES1    0.0000
      9 C3         0.8298   10.8382    1.2729 C.ar      1 RES1    0.0000
     10 H2        -0.0052   11.2868    1.2106 H         1 RES1    0.0000
     11 C4         1.7601   10.9369    0.2409 C.ar      1 RES1    0.0000
     12 N4         1.3570   11.7282   -0.9170 N.pl3     1 RES1    0.0000
     13 O3         0.2766   12.3130   -0.8856 O.2       1 RES1    0.0000
     14 O4         2.1008   11.7430   -1.9162 O.2       1 RES1    0.0000
     15 C5         3.0210   10.3174    0.3689 C.ar      1 RES1    0.0000
     16 C6         4.1693   10.4514   -0.5961 C.3       1 RES1    0.0000
     17 H3         4.9037    9.8685   -0.3134 H         1 RES1    0.0000
     18 H4         4.4776   11.3815   -0.6098 H         1 RES1    0.0000
     19 H5         3.8738   10.1923   -1.4940 H         1 RES1    0.0000
     20 N1B        3.4207    7.0544    5.4078 N.ar      1 RES1    0.0000
     21 C1B        4.3262    7.1899    4.4107 C.ar      1 RES1    0.0000
     22 N2B        3.9608    7.9820    3.3985 N.3       1 RES1    0.0000
     23 H1B        4.4804    8.1761    2.7101 H         1 RES1    0.0000
     24 C2B        5.5682    6.5171    4.4716 C.ar      1 RES1    0.0000
     25 N3B        6.5526    6.5979    3.3828 N.pl3     1 RES1    0.0000
     26 O1B        6.2904    7.3241    2.4096 O.2       1 RES1    0.0000
     27 O2B        7.5955    5.9568    3.5046 O.2       1 RES1    0.0000
     28 C3B        5.8670    5.7698    5.5707 C.ar      1 RES1    0.0000
     29 H2B        6.7019    5.3212    5.6330 H         1 RES1    0.0000
     30 C4B        4.9366    5.6711    6.6027 C.ar      1 RES1    0.0000
     31 N4B        5.3397    4.8798    7.7606 N.pl3     1 RES1    0.0000
     32 O3B        6.4202    4.2950    7.7291 O.2       1 RES1    0.0000
     33 O4B        4.5960    4.8650    8.7598 O.2       1 RES1    0.0000
     34 C5B        3.6758    6.2906    6.4747 C.ar      1 RES1    0.0000
     35 C6B        2.5274    6.1566    7.4397 C.3       1 RES1    0.0000
     36 H3B        1.7931    6.7395    7.1570 H         1 RES1    0.0000
     37 H4B        2.2192    5.2265    7.4533 H         1 RES1    0.0000
     38 H5B        2.8230    6.4157    8.3375 H         1 RES1    0.0000
@<TRIPOS>BOND
     1    1    2 ar
     2    2    3 1
     3    3    4 1
     4    5    2 ar
     5    6    5 1
     6    7    6 2
     7    8    6 2
     8    9    5 ar
     9   10    9 1
    10   11    9 ar
    11   12   11 1
    12   13   12 2
    13   14   12 2
    14   15    1 ar
    15   16   15 1
    16   17   16 1
    17   18   16 1
    18   19   16 1
    19   20   21 ar
    20   21   22 1
    21   22    3 1
    22   23   22 1
    23   24   21 ar
    24   25   24 1
    25   26   25 2
    26   27   25 2
    27   28   24 ar
    28   29   28 1
    29   30   28 ar
    30   31   30 1
    31   32   31 2
    32   33   31 2
    33   34   20 ar
    34   35   34 1
    35   36   35 1
    36   37   35 1
    37   38   35 1
    38   11   15 ar
    39   30   34 ar
@<TRIPOS>SUBSTRUCTURE
     1 RES1 1

@<TRIPOS>CRYSIN
   6.7720   16.6080    6.8440  90.0000  90.6300  90.0000 231 1

