# MOL2 file generated by ConQuest
# Please check atom types

@<TRIPOS>MOLECULE
KUYWAD
    35    36     1
SMALL
NO_CHARGES
****
Generated from CSD

@<TRIPOS>ATOM
      1 O1         4.2802    3.8721    0.8472 O.3       1 RES1    0.0000
      2 H1         4.9213    3.3157    0.7200 H         1 RES1    0.0000
      3 N1         4.2634    4.0038    2.2517 N.2       1 RES1    0.0000
      4 N2         3.0410    5.1856    8.3855 N.2       1 RES1    0.0000
      5 C1         2.1939    5.2588    1.8153 C.3       1 RES1    0.0000
      6 H2         2.4253    5.1223    0.8932 H         1 RES1    0.0000
      7 H3         2.1240    6.1998    1.9918 H         1 RES1    0.0000
      8 H4         1.3520    4.8351    1.9999 H         1 RES1    0.0000
      9 C2         3.2507    4.6668    2.6870 C.2       1 RES1    0.0000
     10 C3         3.1839    4.8033    4.1657 C.ar      1 RES1    0.0000
     11 C4         2.0944    5.3629    4.8084 C.ar      1 RES1    0.0000
     12 H5         1.3782    5.6720    4.3024 H         1 RES1    0.0000
     13 C5         2.0458    5.4733    6.1906 C.ar      1 RES1    0.0000
     14 H6         1.2917    5.8339    6.5985 H         1 RES1    0.0000
     15 C6         3.1126    5.0503    6.9680 C.ar      1 RES1    0.0000
     16 C7         4.2093    4.4771    6.3357 C.ar      1 RES1    0.0000
     17 H7         4.9279    4.1716    6.8412 H         1 RES1    0.0000
     18 C8         4.2357    4.3591    4.9662 C.ar      1 RES1    0.0000
     19 H8         4.9779    3.9719    4.5613 H         1 RES1    0.0000
     20 C9         4.0517    5.6946    8.9718 C.2       1 RES1    0.0000
     21 H9         4.7515    5.9840    8.4317 H         1 RES1    0.0000
     22 C10        4.2121    5.8651   10.4095 C.ar      1 RES1    0.0000
     23 C11        3.2581    5.4564   11.3349 C.ar      1 RES1    0.0000
     24 H10        2.4631    5.0756   11.0401 H         1 RES1    0.0000
     25 C12        3.4841    5.6128   12.6910 C.ar      1 RES1    0.0000
     26 H11        2.8349    5.3337   13.2956 H         1 RES1    0.0000
     27 C13        4.6567    6.1755   13.1670 C.ar      1 RES1    0.0000
     28 C14        5.5936    6.5919   12.2462 C.ar      1 RES1    0.0000
     29 H12        6.3856    6.9785   12.5432 H         1 RES1    0.0000
     30 C15        5.3786    6.4461   10.8902 C.ar      1 RES1    0.0000
     31 H13        6.0240    6.7408   10.2893 H         1 RES1    0.0000
     32 C16        4.9117    6.3279   14.6459 C.3       1 RES1    0.0000
     33 H14        5.6500    5.7712   14.9024 H         1 RES1    0.0000
     34 H15        4.1279    6.0657   15.1354 H         1 RES1    0.0000
     35 H16        5.1189    7.2438   14.8425 H         1 RES1    0.0000
@<TRIPOS>BOND
     1    1    2 1
     2    3    1 1
     3    4   15 1
     4    5    6 1
     5    7    5 1
     6    8    5 1
     7    9    3 2
     8   10    9 1
     9   11   10 ar
    10   12   11 1
    11   13   11 ar
    12   14   13 1
    13   15   13 ar
    14   16   15 ar
    15   17   16 1
    16   18   10 ar
    17   19   18 1
    18   20    4 2
    19   21   20 1
    20   22   20 1
    21   23   22 ar
    22   24   23 1
    23   25   23 ar
    24   26   25 1
    25   27   25 ar
    26   28   27 ar
    27   29   28 1
    28   30   22 ar
    29   31   30 1
    30   32   27 1
    31   33   32 1
    32   34   32 1
    33   35   32 1
    34    5    9 1
    35   16   18 ar
    36   28   30 ar
@<TRIPOS>SUBSTRUCTURE
     1 RES1 1

@<TRIPOS>CRYSIN
   5.7785   14.5810   16.2260  90.0000  94.2850  90.0000 231 1

