# MOL2 file generated by ConQuest
# Please check atom types

@<TRIPOS>MOLECULE
KUYYIN
    46    48     1
SMALL
NO_CHARGES
****
Generated from CSD

@<TRIPOS>ATOM
      1 O1         2.4656    0.3491    6.1344 O.2       1 RES1    0.0000
      2 O2         0.3661    0.3271    5.6140 O.2       1 RES1    0.0000
      3 O3         1.3032   -3.6005    2.0266 O.2       1 RES1    0.0000
      4 O4         1.6187   -5.4569    2.9997 O.2       1 RES1    0.0000
      5 O5         2.7616   -5.5674    7.6888 O.2       1 RES1    0.0000
      6 O6         1.0932   -4.6842    8.7242 O.2       1 RES1    0.0000
      7 N1         1.4259   -0.2121    5.8444 N.pl3     1 RES1    0.0000
      8 N2         1.5048   -4.2477    3.0147 N.pl3     1 RES1    0.0000
      9 N3         1.8678   -4.7500    7.7865 N.pl3     1 RES1    0.0000
     10 C1         3.7569    1.0641    1.5892 C.ar      1 RES1    0.0000
     11 H1         4.4996    0.7780    2.0712 H         1 RES1    0.0000
     12 C2         3.9307    1.9826    0.5813 C.ar      1 RES1    0.0000
     13 H2         4.7784    2.3064    0.3745 H         1 RES1    0.0000
     14 C3         2.8545    2.4017   -0.0993 C.ar      1 RES1    0.0000
     15 H3         2.9683    3.0202   -0.7848 H         1 RES1    0.0000
     16 C4         1.6059    1.9537    0.1791 C.ar      1 RES1    0.0000
     17 H4         0.8757    2.2678   -0.3045 H         1 RES1    0.0000
     18 C5         1.4249    0.9992    1.2131 C.ar      1 RES1    0.0000
     19 H5         0.5749    0.6806    1.4150 H         1 RES1    0.0000
     20 C6         2.5150    0.5521    1.9136 C.ar      1 RES1    0.0000
     21 C7         2.4185   -0.4296    3.0117 C.2       1 RES1    0.0000
     22 H6         3.1494   -0.4707    3.5856 H         1 RES1    0.0000
     23 C8         1.4298   -1.2544    3.2811 C.2       1 RES1    0.0000
     24 H7         0.6805   -1.2537    2.7307 H         1 RES1    0.0000
     25 C9         1.4706   -2.1795    4.4284 C.ar      1 RES1    0.0000
     26 C10        1.5468   -3.5775    4.3246 C.ar      1 RES1    0.0000
     27 C11        1.7030   -4.3899    5.4249 C.ar      1 RES1    0.0000
     28 H8         1.8043   -5.3090    5.3262 H         1 RES1    0.0000
     29 C12        1.7074   -3.8137    6.6707 C.ar      1 RES1    0.0000
     30 C13        1.5634   -2.4412    6.9083 C.ar      1 RES1    0.0000
     31 C14        1.4794   -1.6878    5.7331 C.ar      1 RES1    0.0000
     32 C15        1.5708   -1.9072    8.2771 C.2       1 RES1    0.0000
     33 H9         1.9966   -2.4419    8.9069 H         1 RES1    0.0000
     34 C16        1.0671   -0.7911    8.7450 C.2       1 RES1    0.0000
     35 H10        0.6602   -0.2135    8.1400 H         1 RES1    0.0000
     36 C17        1.0997   -0.3870   10.1589 C.ar      1 RES1    0.0000
     37 C18        1.0134    0.9559   10.4864 C.ar      1 RES1    0.0000
     38 H11        0.9169    1.5885    9.8122 H         1 RES1    0.0000
     39 C19        1.0685    1.3647   11.7988 C.ar      1 RES1    0.0000
     40 H12        1.0202    2.2705   12.0040 H         1 RES1    0.0000
     41 C20        1.1955    0.4401   12.8149 C.ar      1 RES1    0.0000
     42 H13        1.2392    0.7194   13.7007 H         1 RES1    0.0000
     43 C21        1.2550   -0.8874   12.5079 C.ar      1 RES1    0.0000
     44 H14        1.3237   -1.5132   13.1926 H         1 RES1    0.0000
     45 C22        1.2156   -1.3155   11.1960 C.ar      1 RES1    0.0000
     46 H15        1.2655   -2.2240   11.0025 H         1 RES1    0.0000
@<TRIPOS>BOND
     1    1    7 2
     2    2    7 2
     3    3    8 2
     4    4    8 2
     5    5    9 2
     6    6    9 2
     7    7   31 1
     8    8   26 1
     9    9   29 1
    10   10   11 1
    11   12   10 ar
    12   13   12 1
    13   14   12 ar
    14   15   14 1
    15   16   14 ar
    16   17   16 1
    17   18   16 ar
    18   19   18 1
    19   20   10 ar
    20   21   20 1
    21   22   21 1
    22   23   21 2
    23   24   23 1
    24   25   23 1
    25   26   25 ar
    26   27   26 ar
    27   28   27 1
    28   29   27 ar
    29   30   29 ar
    30   31   25 ar
    31   32   30 1
    32   33   32 1
    33   34   32 2
    34   35   34 1
    35   36   34 1
    36   37   36 ar
    37   38   37 1
    38   39   37 ar
    39   40   39 1
    40   41   39 ar
    41   42   41 1
    42   43   41 ar
    43   44   43 1
    44   45   36 ar
    45   46   45 1
    46   18   20 ar
    47   30   31 ar
    48   43   45 ar
@<TRIPOS>SUBSTRUCTURE
     1 RES1 1

@<TRIPOS>CRYSIN
   7.0762    8.6625   16.7170 101.6600  92.6160 105.1220   2 1

