# MOL2 file generated by ConQuest
# Please check atom types

@<TRIPOS>MOLECULE
KUZBAJ
    40    41     1
SMALL
NO_CHARGES
****
Generated from CSD

@<TRIPOS>ATOM
      1 O1         5.4666    7.9078    3.3245 O.3       1 RES1    0.0000
      2 C1         7.5812    5.3174    0.8460 C.ar      1 RES1    0.0000
      3 O2         7.1111    8.1014    4.8471 O.2       1 RES1    0.0000
      4 N1         6.6470    6.4190   -1.1558 N.3       1 RES1    0.0000
      5 C2         6.9662    6.2421    1.7935 C.2       1 RES1    0.0000
      6 C3         7.7733    4.3214   -1.3766 C.ar      1 RES1    0.0000
      7 O3        10.0475    2.3088    2.1895 O.2       1 RES1    0.0000
      8 C4         6.6658    7.6298    3.8288 C.2       1 RES1    0.0000
      9 C5         7.3013    5.3955   -0.5661 C.ar      1 RES1    0.0000
     10 C6         8.3675    4.2735    1.3323 C.ar      1 RES1    0.0000
     11 C7         8.8426    3.2964    0.4866 C.ar      1 RES1    0.0000
     12 N2         9.6821    2.2446    1.0198 N.pl3     1 RES1    0.0000
     13 C8         7.4294    6.6783    2.9839 C.2       1 RES1    0.0000
     14 O4        10.0249    1.3298    0.2669 O.2       1 RES1    0.0000
     15 C9         8.7187    6.3494    3.5235 C.1       1 RES1    0.0000
     16 N3         9.7354    6.1019    3.9879 N.1       1 RES1    0.0000
     17 C10        8.5237    3.3053   -0.8657 C.ar      1 RES1    0.0000
     18 C11        6.4128    6.4289   -2.6200 C.3       1 RES1    0.0000
     19 C12        6.4034    7.7629   -0.5942 C.3       1 RES1    0.0000
     20 C13        3.3539    8.9918    3.4496 C.3       1 RES1    0.0000
     21 C14        4.6938    8.8928    4.0782 C.3       1 RES1    0.0000
     22 C15        5.7606    7.7679   -2.8746 C.3       1 RES1    0.0000
     23 C16        6.3848    8.6656   -1.8170 C.3       1 RES1    0.0000
     24 H1         6.1134    6.5853    1.5367 H         1 RES1    0.0000
     25 H2         7.5533    4.3277   -2.3055 H         1 RES1    0.0000
     26 H3         8.5566    4.2234    2.2604 H         1 RES1    0.0000
     27 H4         8.8405    2.5881   -1.4253 H         1 RES1    0.0000
     28 H5         7.2836    6.3521   -3.0915 H         1 RES1    0.0000
     29 H6         5.8483    5.6708   -2.8804 H         1 RES1    0.0000
     30 H7         7.1169    8.0083    0.0240 H         1 RES1    0.0000
     31 H8         5.5240    7.7977   -0.1209 H         1 RES1    0.0000
     32 H9         2.8465    9.6973    3.8834 H         1 RES1    0.0000
     33 H10        3.4357    9.1874    2.4897 H         1 RES1    0.0000
     34 H11        2.8853    8.1462    3.5916 H         1 RES1    0.0000
     35 H12        5.1916    9.7836    4.0331 H         1 RES1    0.0000
     36 H13        4.6399    8.5849    5.0112 H         1 RES1    0.0000
     37 H14        5.9602    8.0910   -3.7692 H         1 RES1    0.0000
     38 H15        4.7933    7.7369   -2.7403 H         1 RES1    0.0000
     39 H16        7.3117    8.9321   -2.0924 H         1 RES1    0.0000
     40 H17        5.8292    9.4503   -1.6729 H         1 RES1    0.0000
@<TRIPOS>BOND
     1    1    8 1
     2    2    5 1
     3    3    8 2
     4    4    9 1
     5    5   13 2
     6    6    9 ar
     7    7   12 2
     8    8   13 1
     9    9    2 ar
    10   10    2 ar
    11   11   10 ar
    12   12   11 1
    13   13   15 1
    14   14   12 2
    15   15   16 3
    16   17    6 ar
    17   18    4 1
    18   19    4 1
    19   20   21 1
    20   21    1 1
    21   22   18 1
    22   23   19 1
    23   24    5 1
    24   25    6 1
    25   26   10 1
    26   27   17 1
    27   28   18 1
    28   29   18 1
    29   30   19 1
    30   31   19 1
    31   32   20 1
    32   33   20 1
    33   34   20 1
    34   35   21 1
    35   36   21 1
    36   37   22 1
    37   38   22 1
    38   39   23 1
    39   40   23 1
    40   11   17 ar
    41   22   23 1
@<TRIPOS>SUBSTRUCTURE
     1 RES1 1

@<TRIPOS>CRYSIN
   8.4137    9.9517   10.3731  73.0650  71.3880  72.5230   2 1

