# MOL2 file generated by ConQuest
# Please check atom types

@<TRIPOS>MOLECULE
KUZCUF
    44    45     1
SMALL
NO_CHARGES
****
Generated from CSD

@<TRIPOS>ATOM
      1 O1         7.9597    5.0356    3.6844 O.2       1 RES1    0.0000
      2 O2         8.5450    4.1378    1.8081 O.2       1 RES1    0.0000
      3 O3        10.2990    1.5002    5.1229 O.3       1 RES1    0.0000
      4 N1         8.0076    4.0961    2.9044 N.pl3     1 RES1    0.0000
      5 N2         9.2718    2.3733    4.7362 N.2       1 RES1    0.0000
      6 C1         6.1265    2.5715    3.2986 C.2       1 RES1    0.0000
      7 C2         7.4497    2.7990    3.3491 C.2       1 RES1    0.0000
      8 C3         8.5130    1.8725    3.8324 C.2       1 RES1    0.0000
      9 C4         8.6915    0.5247    3.1887 C.3       1 RES1    0.0000
     10 C5         9.6384    0.6287    1.9850 C.3       1 RES1    0.0000
     11 C6         9.8392   -0.7222    1.2991 C.3       1 RES1    0.0000
     12 C7        10.8573   -0.6526    0.1667 C.3       1 RES1    0.0000
     13 C8         5.1374    3.5132    2.7126 C.ar      1 RES1    0.0000
     14 C9         5.3406    4.1613    1.4867 C.ar      1 RES1    0.0000
     15 C10        4.3718    5.0199    0.9833 C.ar      1 RES1    0.0000
     16 C11        3.2064    5.2609    1.6906 C.ar      1 RES1    0.0000
     17 C12        2.9877    4.6193    2.9010 C.ar      1 RES1    0.0000
     18 C13        3.9345    3.7323    3.3991 C.ar      1 RES1    0.0000
     19 C14        5.5895    1.3283    3.9177 C.ar      1 RES1    0.0000
     20 C15        4.6737    0.5350    3.2219 C.ar      1 RES1    0.0000
     21 C16        4.1657   -0.6141    3.7964 C.ar      1 RES1    0.0000
     22 C17        4.5543   -0.9822    5.0739 C.ar      1 RES1    0.0000
     23 C18        5.4541   -0.1955    5.7787 C.ar      1 RES1    0.0000
     24 C19        5.9691    0.9549    5.2032 C.ar      1 RES1    0.0000
     25 H1        10.7289    1.8387    5.7597 H         1 RES1    0.0000
     26 H2         7.8124    0.1805    2.8910 H         1 RES1    0.0000
     27 H3         9.0634   -0.1121    3.8492 H         1 RES1    0.0000
     28 H4         9.2670    1.2740    1.3323 H         1 RES1    0.0000
     29 H5        10.5149    0.9743    2.2882 H         1 RES1    0.0000
     30 H6        10.1448   -1.3839    1.9692 H         1 RES1    0.0000
     31 H7         8.9725   -1.0346    0.9371 H         1 RES1    0.0000
     32 H8        11.7341   -0.4102    0.5301 H         1 RES1    0.0000
     33 H9        10.5750    0.0232   -0.4844 H         1 RES1    0.0000
     34 H10       10.9167   -1.5260   -0.2733 H         1 RES1    0.0000
     35 H11        6.1421    4.0130    0.9992 H         1 RES1    0.0000
     36 H12        4.5106    5.4464    0.1454 H         1 RES1    0.0000
     37 H13        2.5580    5.8643    1.3476 H         1 RES1    0.0000
     38 H14        2.1899    4.7868    3.3895 H         1 RES1    0.0000
     39 H15        3.7651    3.2707    4.2116 H         1 RES1    0.0000
     40 H16        4.3987    0.7871    2.3480 H         1 RES1    0.0000
     41 H17        3.5488   -1.1526    3.3144 H         1 RES1    0.0000
     42 H18        4.2049   -1.7733    5.4677 H         1 RES1    0.0000
     43 H19        5.7170   -0.4454    6.6570 H         1 RES1    0.0000
     44 H20        6.5849    1.4915    5.6882 H         1 RES1    0.0000
@<TRIPOS>BOND
     1    1    4 2
     2    2    4 2
     3    3    5 1
     4    4    7 1
     5    5    8 2
     6    6    7 2
     7    7    8 1
     8    8    9 1
     9    9   10 1
    10   10   11 1
    11   11   12 1
    12   12   32 1
    13   13    6 1
    14   14   13 ar
    15   15   14 ar
    16   16   15 ar
    17   17   16 ar
    18   18   13 ar
    19   19    6 1
    20   20   19 ar
    21   21   20 ar
    22   22   21 ar
    23   23   22 ar
    24   24   19 ar
    25   25    3 1
    26   26    9 1
    27   27    9 1
    28   28   10 1
    29   29   10 1
    30   30   11 1
    31   31   11 1
    32   33   12 1
    33   34   12 1
    34   35   14 1
    35   36   15 1
    36   37   16 1
    37   38   17 1
    38   39   18 1
    39   40   20 1
    40   41   21 1
    41   42   22 1
    42   43   23 1
    43   44   24 1
    44   17   18 ar
    45   23   24 ar
@<TRIPOS>SUBSTRUCTURE
     1 RES1 1

@<TRIPOS>CRYSIN
   8.6333    8.8406   12.4265  96.9079 105.0263 106.9852   2 1

