# MOL2 file generated by ConQuest
# Please check atom types

@<TRIPOS>MOLECULE
KUZCEO
    27    28     1
SMALL
NO_CHARGES
****
Generated from CSD

@<TRIPOS>ATOM
      1 C1        -0.3750    1.1288    6.4155 C.2       1 RES1    0.0000
      2 C2        -0.0751    0.9498    4.9590 C.3       1 RES1    0.0000
      3 H1        -0.8150    1.3004    4.4393 H         1 RES1    0.0000
      4 H2        -0.0002    0.0016    4.7660 H         1 RES1    0.0000
      5 C3         1.2023    1.6426    4.5286 C.3       1 RES1    0.0000
      6 H3         1.4554    1.3290    3.6468 H         1 RES1    0.0000
      7 H4         1.0449    2.5976    4.4721 H         1 RES1    0.0000
      8 C4         2.3318    1.3795    5.4946 C.3       1 RES1    0.0000
      9 H5         2.5385    0.4319    5.5006 H         1 RES1    0.0000
     10 H6         3.1243    1.8577    5.2045 H         1 RES1    0.0000
     11 C5         1.9607    1.8198    6.8831 C.ar      1 RES1    0.0000
     12 C6         0.6347    1.7285    7.3036 C.ar      1 RES1    0.0000
     13 C7         0.3096    2.1889    8.5848 C.ar      1 RES1    0.0000
     14 H7        -0.5750    2.1515    8.8695 H         1 RES1    0.0000
     15 C8         1.2631    2.6942    9.4294 C.ar      1 RES1    0.0000
     16 H8         1.0264    2.9898   10.2788 H         1 RES1    0.0000
     17 C9         2.5868    2.7628    9.0085 C.ar      1 RES1    0.0000
     18 C10        2.9302    2.3325    7.7421 C.ar      1 RES1    0.0000
     19 H9         3.8150    2.3849    7.4603 H         1 RES1    0.0000
     20 C11        4.7923    3.5390    9.4824 C.3       1 RES1    0.0000
     21 H10        5.2073    2.7136    9.2198 H         1 RES1    0.0000
     22 H11        5.2927    3.9346   10.1996 H         1 RES1    0.0000
     23 H12        4.7748    4.1410    8.7340 H         1 RES1    0.0000
     24 N1        -1.4671    0.7337    6.9616 N.2       1 RES1    0.0000
     25 O1        -2.3683    0.1785    6.0203 O.3       1 RES1    0.0000
     26 H13       -2.9958   -0.1715    6.4158 H         1 RES1    0.0000
     27 O2         3.4695    3.2848    9.9141 O.3       1 RES1    0.0000
@<TRIPOS>BOND
     1    1    2 1
     2    2    3 1
     3    4    2 1
     4    5    2 1
     5    6    5 1
     6    7    5 1
     7    8    5 1
     8    9    8 1
     9   10    8 1
    10   11    8 1
    11   12    1 1
    12   13   12 ar
    13   14   13 1
    14   15   13 ar
    15   16   15 1
    16   17   15 ar
    17   18   11 ar
    18   19   18 1
    19   20   21 1
    20   22   20 1
    21   23   20 1
    22   24    1 2
    23   25   24 1
    24   26   25 1
    25   27   17 1
    26   11   12 ar
    27   17   18 ar
    28   20   27 1
@<TRIPOS>SUBSTRUCTURE
     1 RES1 1

@<TRIPOS>CRYSIN
   8.1850   15.8780    8.0530  90.0000 109.0200  90.0000  14 1

