# MOL2 file generated by ConQuest
# Please check atom types

@<TRIPOS>MOLECULE
KUZJUL
    29    30     1
SMALL
NO_CHARGES
****
Generated from CSD

@<TRIPOS>ATOM
      1 O1         0.6122    3.7767    2.6349 O.2       1 RES1    0.0000
      2 O2        -0.1046    3.0455    4.5109 O.2       1 RES1    0.0000
      3 O3         7.4617    2.9953    0.6010 O.3       1 RES1    0.0000
      4 N1         0.7900    3.2014    3.7008 N.pl3     1 RES1    0.0000
      5 N2         6.6903    2.2359    2.7222 N.2       1 RES1    0.0000
      6 N3         8.6826    3.0243   -0.1185 N.2       1 RES1    0.0000
      7 C1         4.4220    2.4416    3.4133 C.ar      1 RES1    0.0000
      8 C2         4.6342    1.8082    4.6257 C.ar      1 RES1    0.0000
      9 C3         3.5916    1.6280    5.5331 C.ar      1 RES1    0.0000
     10 C4         2.3281    2.0635    5.2110 C.ar      1 RES1    0.0000
     11 C5         2.1258    2.6921    4.0161 C.ar      1 RES1    0.0000
     12 C6         3.1393    2.8975    3.0954 C.ar      1 RES1    0.0000
     13 C7         5.5034    2.6387    2.4490 C.2       1 RES1    0.0000
     14 C8         7.7020    2.4118    1.8083 C.2       1 RES1    0.0000
     15 C9         8.9973    2.0568    1.9012 C.2       1 RES1    0.0000
     16 C10        9.5567    2.4640    0.6841 C.2       1 RES1    0.0000
     17 C11       10.9738    2.3093    0.2254 C.3       1 RES1    0.0000
     18 C12        9.6860    1.4191    3.0512 C.3       1 RES1    0.0000
     19 H1         5.4851    1.4984    4.8380 H         1 RES1    0.0000
     20 H2         3.7491    1.2154    6.3513 H         1 RES1    0.0000
     21 H3         1.6201    1.9317    5.7997 H         1 RES1    0.0000
     22 H4         2.9707    3.3272    2.2879 H         1 RES1    0.0000
     23 H5         5.3303    3.0568    1.6367 H         1 RES1    0.0000
     24 H6        11.0602    2.6496   -0.6680 H         1 RES1    0.0000
     25 H7        11.2151    1.3801    0.2384 H         1 RES1    0.0000
     26 H8        11.5554    2.7989    0.8117 H         1 RES1    0.0000
     27 H9        10.1318    2.0925    3.5702 H         1 RES1    0.0000
     28 H10       10.3305    0.7860    2.7271 H         1 RES1    0.0000
     29 H11        9.0410    0.9670    3.5998 H         1 RES1    0.0000
@<TRIPOS>BOND
     1    1    4 2
     2    2    4 2
     3    3    6 1
     4    4   11 1
     5    5   13 2
     6    6   16 2
     7    7    8 ar
     8    8    9 ar
     9    9   10 ar
    10   10   11 ar
    11   11   12 ar
    12   12    7 ar
    13   13    7 1
    14   14    3 1
    15   15   14 2
    16   16   15 1
    17   17   16 1
    18   18   15 1
    19   19    8 1
    20   20    9 1
    21   21   10 1
    22   22   12 1
    23   23   13 1
    24   24   17 1
    25   25   17 1
    26   26   17 1
    27   27   18 1
    28   28   18 1
    29   29   18 1
    30    5   14 1
@<TRIPOS>SUBSTRUCTURE
     1 RES1 1

@<TRIPOS>CRYSIN
  12.6020    3.9267   23.3660  90.0000  94.7910  90.0000  14 1

