# MOL2 file generated by ConQuest
# Please check atom types

@<TRIPOS>MOLECULE
KUZVUX01
    26    26     1
SMALL
NO_CHARGES
****
Generated from CSD

@<TRIPOS>ATOM
      1 C1         5.2241    7.6887   13.7670 C.3       1 RES1    0.0000
      2 H1         5.5290    6.9168   14.3057 H         1 RES1    0.0000
      3 H2         6.0247    8.1912   13.4711 H         1 RES1    0.0000
      4 C2         4.0844    9.8753   14.3628 C.2       1 RES1    0.0000
      5 C3         2.9775    9.2376   16.0511 C.2       1 RES1    0.0000
      6 C4         3.6663    8.1365   15.6688 C.2       1 RES1    0.0000
      7 H3         3.6486    7.2718   16.0630 H         1 RES1    0.0000
      8 C5         4.4705    7.1913   12.5591 C.2       1 RES1    0.0000
      9 C6         4.3271    5.4670   10.9598 C.3       1 RES1    0.0000
     10 H4         4.5184    5.9695   10.1285 H         1 RES1    0.0000
     11 H5         3.3490    5.4722   11.1141 H         1 RES1    0.0000
     12 C7         4.8344    4.0502   10.8463 C.3       1 RES1    0.0000
     13 H6         4.5974    3.5528   11.6572 H         1 RES1    0.0000
     14 H7         5.8086    4.0595   10.7408 H         1 RES1    0.0000
     15 H8         4.4261    3.6189   10.0677 H         1 RES1    0.0000
     16 C8         4.6849   10.6616   13.2518 C.3       1 RES1    0.0000
     17 H9         4.2388   11.5325   13.1901 H         1 RES1    0.0000
     18 H10        4.5708   10.1766   12.4079 H         1 RES1    0.0000
     19 H11        5.6399   10.7957   13.4250 H         1 RES1    0.0000
     20 N1         4.3937    8.5497   14.5878 N.pl3     1 RES1    0.0000
     21 N2         3.2216   10.3223   15.2511 N.2       1 RES1    0.0000
     22 N3         2.0650    9.3212   17.1409 N.pl3     1 RES1    0.0000
     23 O1         3.5030    7.7410   12.0928 O.2       1 RES1    0.0000
     24 O2         5.0204    6.0740   12.0890 O.3       1 RES1    0.0000
     25 O3         1.4255   10.3564   17.2971 O.2       1 RES1    0.0000
     26 O4         1.9603    8.3320   17.8767 O.2       1 RES1    0.0000
@<TRIPOS>BOND
     1    1    2 1
     2    3    1 1
     3    4   16 1
     4    5    6 2
     5    6    7 1
     6    8    1 1
     7    9   10 1
     8   11    9 1
     9   12    9 1
    10   13   12 1
    11   14   12 1
    12   15   12 1
    13   16   17 1
    14   18   16 1
    15   19   16 1
    16   20    1 1
    17   21    4 2
    18   22    5 1
    19   23    8 2
    20   24    8 1
    21   25   22 2
    22   26   22 2
    23    4   20 1
    24    5   21 1
    25    6   20 1
    26    9   24 1
@<TRIPOS>SUBSTRUCTURE
     1 RES1 1

@<TRIPOS>CRYSIN
   4.4381   10.3190   20.9700  90.0000  90.0000  90.0000  19 1

