# MOL2 file generated by ConQuest
# Please check atom types

@<TRIPOS>MOLECULE
LABTOX
    47    52     1
SMALL
NO_CHARGES
****
Generated from CSD

@<TRIPOS>ATOM
      1 O1         1.0621   -0.5527    7.9156 O.2       1 RES1    0.0000
      2 O2         2.0415    0.8587    6.5730 O.2       1 RES1    0.0000
      3 N1        -1.9992   -0.5107    5.2038 N.3       1 RES1    0.0000
      4 N2         1.0752    0.1345    6.8889 N.pl3     1 RES1    0.0000
      5 C1        -1.8826    0.9877    3.0056 C.3       1 RES1    0.0000
      6 C2        -3.2442    0.5273    2.4957 C.3       1 RES1    0.0000
      7 C3        -3.7374    1.3122    1.2825 C.3       1 RES1    0.0000
      8 C4        -3.7904    2.8039    1.5923 C.3       1 RES1    0.0000
      9 C5        -2.4129    3.3073    2.0087 C.3       1 RES1    0.0000
     10 C6        -1.8234    2.5366    3.2036 C.3       1 RES1    0.0000
     11 C7        -0.3444    2.8376    3.3001 C.3       1 RES1    0.0000
     12 C8         0.5193    1.8232    4.0525 C.3       1 RES1    0.0000
     13 C9        -0.2234    0.8075    4.8109 C.2       1 RES1    0.0000
     14 C10       -1.4346    0.4055    4.3167 C.2       1 RES1    0.0000
     15 C11       -1.1512   -0.6967    6.2440 C.2       1 RES1    0.0000
     16 C12       -0.0421    0.0983    6.0234 C.2       1 RES1    0.0000
     17 C13        0.3660    1.7606    2.5255 C.3       1 RES1    0.0000
     18 C14       -0.6629    0.7741    2.0106 C.3       1 RES1    0.0000
     19 C15       -0.1637   -0.6484    1.8342 C.ar      1 RES1    0.0000
     20 C16       -0.9284   -1.5890    1.1422 C.ar      1 RES1    0.0000
     21 C17       -0.4721   -2.8811    0.9231 C.ar      1 RES1    0.0000
     22 C18        0.7915   -3.2555    1.3750 C.ar      1 RES1    0.0000
     23 C19        1.5736   -2.3291    2.0485 C.ar      1 RES1    0.0000
     24 C20        1.0989   -1.0445    2.2863 C.ar      1 RES1    0.0000
     25 C21       -3.3143   -1.1433    5.1438 C.3       1 RES1    0.0000
     26 H1        -3.2323   -0.4476    2.2809 H         1 RES1    0.0000
     27 H2        -3.8810    0.6999    3.2815 H         1 RES1    0.0000
     28 H3        -4.6647    1.0270    1.0329 H         1 RES1    0.0000
     29 H4        -3.1910    1.1976    0.5057 H         1 RES1    0.0000
     30 H5        -4.0788    3.3099    0.7531 H         1 RES1    0.0000
     31 H6        -4.5108    2.9913    2.4638 H         1 RES1    0.0000
     32 H7        -2.4128    4.3204    2.2701 H         1 RES1    0.0000
     33 H8        -1.8241    3.2151    1.2373 H         1 RES1    0.0000
     34 H9        -2.2693    2.7326    4.0238 H         1 RES1    0.0000
     35 H10       -0.0998    3.7597    3.3353 H         1 RES1    0.0000
     36 H11        1.3522    2.1359    4.3681 H         1 RES1    0.0000
     37 H12       -1.3097   -1.3336    6.9180 H         1 RES1    0.0000
     38 H13        1.1331    1.9606    1.8828 H         1 RES1    0.0000
     39 H14       -0.9699    1.0723    1.1404 H         1 RES1    0.0000
     40 H15       -1.7757   -1.3462    0.7531 H         1 RES1    0.0000
     41 H16       -0.9794   -3.5067    0.4304 H         1 RES1    0.0000
     42 H17        1.1105   -4.1719    1.2911 H         1 RES1    0.0000
     43 H18        2.4864   -2.5831    2.3132 H         1 RES1    0.0000
     44 H19        1.6433   -0.4109    2.7543 H         1 RES1    0.0000
     45 H20       -3.9542   -0.4416    5.3149 H         1 RES1    0.0000
     46 H21       -3.5150   -1.5927    4.2498 H         1 RES1    0.0000
     47 H22       -3.3447   -1.8422    5.8851 H         1 RES1    0.0000
@<TRIPOS>BOND
     1    1    4 2
     2    2    4 2
     3    3   14 1
     4    4   16 1
     5    5    6 1
     6    6    7 1
     7    7    8 1
     8    8    9 1
     9    9   10 1
    10   10    5 1
    11   11   10 1
    12   12   11 1
    13   13   12 1
    14   14    5 1
    15   15    3 1
    16   16   13 1
    17   17   11 1
    18   18    5 1
    19   19   18 1
    20   20   19 ar
    21   21   20 ar
    22   22   21 ar
    23   23   22 ar
    24   24   19 ar
    25   25    3 1
    26   26    6 1
    27   27    6 1
    28   28    7 1
    29   29    7 1
    30   30    8 1
    31   31    8 1
    32   32    9 1
    33   33    9 1
    34   34   10 1
    35   35   11 1
    36   36   12 1
    37   37   15 1
    38   38   17 1
    39   39   18 1
    40   40   20 1
    41   41   21 1
    42   42   22 1
    43   43   23 1
    44   44   24 1
    45   45   25 1
    46   46   25 1
    47   47   25 1
    48   12   17 1
    49   13   14 2
    50   15   16 2
    51   17   18 1
    52   23   24 ar
@<TRIPOS>SUBSTRUCTURE
     1 RES1 1

@<TRIPOS>CRYSIN
   7.7990    9.8720   11.7700 109.6380 100.3390  97.7560   2 1

