# MOL2 file generated by ConQuest
# Please check atom types

@<TRIPOS>MOLECULE
LACBEW
    28    30     1
SMALL
NO_CHARGES
****
Generated from CSD

@<TRIPOS>ATOM
      1 O1         5.9221    2.5619    0.3541 O.3       1 RES1    0.0000
      2 N1         8.4914    0.8873    3.9098 N.3       1 RES1    0.0000
      3 N2         5.7674    3.5344    2.3238 N.2       1 RES1    0.0000
      4 N3         3.7657    4.7505    1.9411 N.3       1 RES1    0.0000
      5 N4         4.7116    3.3244    0.3292 N.2       1 RES1    0.0000
      6 C1         9.6270    0.3645    3.1516 C.3       1 RES1    0.0000
      7 C2         9.2990    0.1875    1.6565 C.3       1 RES1    0.0000
      8 C3         7.8585    0.6459    1.4192 C.3       1 RES1    0.0000
      9 C4         7.7739    2.1186    1.8563 C.3       1 RES1    0.0000
     10 C5         8.1253    2.1913    3.3719 C.3       1 RES1    0.0000
     11 C6         7.3437   -0.0145    3.7582 C.3       1 RES1    0.0000
     12 C7         6.9167   -0.1822    2.2917 C.3       1 RES1    0.0000
     13 C8         6.4608    2.7576    1.5664 C.2       1 RES1    0.0000
     14 C9         4.6992    3.8797    1.5183 C.2       1 RES1    0.0000
     15 H1        10.4577    0.9508    3.3095 H         1 RES1    0.0000
     16 H2         9.8596   -0.5382    3.5236 H         1 RES1    0.0000
     17 H3         9.3681   -0.7604    1.3916 H         1 RES1    0.0000
     18 H4         9.9003    0.7372    1.0883 H         1 RES1    0.0000
     19 H5         7.6611    0.5438    0.4906 H         1 RES1    0.0000
     20 H6         8.4155    2.6535    1.3113 H         1 RES1    0.0000
     21 H7         8.8497    2.8122    3.5236 H         1 RES1    0.0000
     22 H8         7.3692    2.5370    3.8893 H         1 RES1    0.0000
     23 H9         7.6153   -0.9649    4.1658 H         1 RES1    0.0000
     24 H10        6.6182    0.3688    4.2997 H         1 RES1    0.0000
     25 H11        6.9273   -1.0962    2.0606 H         1 RES1    0.0000
     26 H12        6.0037    0.1566    2.1320 H         1 RES1    0.0000
     27 H13        3.0846    4.8438    1.4362 H         1 RES1    0.0000
     28 H14        3.6486    4.8767    2.8099 H         1 RES1    0.0000
@<TRIPOS>BOND
     1    1    5 1
     2    2    6 1
     3    3   13 2
     4    4   14 1
     5    5   14 2
     6    6    7 1
     7    7    8 1
     8    8    9 1
     9    9   10 1
    10   10    2 1
    11   11    2 1
    12   12    8 1
    13   13    1 1
    14   14    3 1
    15   15    6 1
    16   16    6 1
    17   17    7 1
    18   18    7 1
    19   19    8 1
    20   20    9 1
    21   21   10 1
    22   22   10 1
    23   23   11 1
    24   24   11 1
    25   25   12 1
    26   26   12 1
    27   27    4 1
    28   28    4 1
    29    9   13 1
    30   11   12 1
@<TRIPOS>SUBSTRUCTURE
     1 RES1 1

@<TRIPOS>CRYSIN
   6.6070    8.2157    9.2870 105.5200  93.8800  91.7900   2 1

