# MOL2 file generated by ConQuest
# Please check atom types

@<TRIPOS>MOLECULE
LACCUO
    57    61     1
SMALL
NO_CHARGES
****
Generated from CSD

@<TRIPOS>ATOM
      1 N1         8.1386    3.4662   -2.0712 N.pl3     1 RES1    0.0000
      2 N2         5.6960    3.3299    4.3332 N.3       1 RES1    0.0000
      3 O1         5.9913    1.5756    2.7864 O.3       1 RES1    0.0000
      4 O2         9.2354    2.9980   -2.4301 O.2       1 RES1    0.0000
      5 O3         7.4874    4.2907   -2.7352 O.2       1 RES1    0.0000
      6 O4         6.7578    4.8224    6.5823 O.3       1 RES1    0.0000
      7 C1         6.4883    3.6744   -0.2360 C.ar      1 RES1    0.0000
      8 H1         6.1199    4.3955   -0.6933 H         1 RES1    0.0000
      9 C2         7.5810    3.0049   -0.7729 C.ar      1 RES1    0.0000
     10 C3         8.1638    1.9080   -0.1307 C.ar      1 RES1    0.0000
     11 H2         8.9061    1.4817   -0.4961 H         1 RES1    0.0000
     12 C4         7.6064    1.4678    1.0711 C.ar      1 RES1    0.0000
     13 H3         7.9700    0.7299    1.5058 H         1 RES1    0.0000
     14 C5         6.5008    2.1299    1.6288 C.ar      1 RES1    0.0000
     15 C6         4.9601    2.3047    3.5428 C.3       1 RES1    0.0000
     16 C7         4.2484    1.2163    4.3731 C.3       1 RES1    0.0000
     17 H4         4.9078    0.7518    4.9116 H         1 RES1    0.0000
     18 H5         3.6210    1.6434    4.9768 H         1 RES1    0.0000
     19 C8         3.4937    0.1885    3.5173 C.3       1 RES1    0.0000
     20 H6         3.0042   -0.4146    4.0991 H         1 RES1    0.0000
     21 H7         4.1327   -0.3372    3.0115 H         1 RES1    0.0000
     22 C9         2.5108    0.8663    2.5468 C.3       1 RES1    0.0000
     23 H8         1.8062    1.3016    3.0513 H         1 RES1    0.0000
     24 H9         2.1028    0.1952    1.9780 H         1 RES1    0.0000
     25 C10        3.2390    1.9089    1.6732 C.3       1 RES1    0.0000
     26 H10        2.5930    2.3525    1.1019 H         1 RES1    0.0000
     27 H11        3.8797    1.4563    1.1035 H         1 RES1    0.0000
     28 C11        3.9764    2.9689    2.5277 C.3       1 RES1    0.0000
     29 H12        3.3022    3.4601    3.0418 H         1 RES1    0.0000
     30 C12        4.7684    4.0023    1.6718 C.3       1 RES1    0.0000
     31 H13        5.1616    4.6473    2.2960 H         1 RES1    0.0000
     32 C13        5.9359    3.2737    0.9892 C.ar      1 RES1    0.0000
     33 C14        4.8489    4.2572    5.1280 C.3       1 RES1    0.0000
     34 H14        4.3947    3.7650    5.8291 H         1 RES1    0.0000
     35 H15        4.1764    4.6577    4.5555 H         1 RES1    0.0000
     36 C15        5.7136    5.3518    5.7464 C.3       1 RES1    0.0000
     37 H16        6.1121    5.8796    5.0373 H         1 RES1    0.0000
     38 H17        5.1519    5.9397    6.2743 H         1 RES1    0.0000
     39 C16        7.5684    3.9151    5.8224 C.3       1 RES1    0.0000
     40 H18        8.2587    3.5467    6.3952 H         1 RES1    0.0000
     41 H19        8.0044    4.4013    5.1056 H         1 RES1    0.0000
     42 C17        6.7452    2.7738    5.2289 C.3       1 RES1    0.0000
     43 H20        7.3238    2.1793    4.7272 H         1 RES1    0.0000
     44 H21        6.3302    2.2636    5.9420 H         1 RES1    0.0000
     45 C18        3.9175    4.7811    0.7254 C.1       1 RES1    0.0000
     46 C19        3.2720    5.4962    0.0086 C.1       1 RES1    0.0000
     47 C20        2.4780    6.4196   -0.8046 C.ar      1 RES1    0.0000
     48 C21        1.2830    6.9375   -0.3082 C.ar      1 RES1    0.0000
     49 H22        0.9914    6.6857    0.5390 H         1 RES1    0.0000
     50 C22        0.5191    7.8244   -1.0599 C.ar      1 RES1    0.0000
     51 H23       -0.2719    8.1651   -0.7092 H         1 RES1    0.0000
     52 C23        0.9277    8.2033   -2.3231 C.ar      1 RES1    0.0000
     53 H24        0.4086    8.7842   -2.8303 H         1 RES1    0.0000
     54 C24        2.1125    7.7113   -2.8226 C.ar      1 RES1    0.0000
     55 H25        2.4032    7.9780   -3.6650 H         1 RES1    0.0000
     56 C25        2.8812    6.8168   -2.0782 C.ar      1 RES1    0.0000
     57 H26        3.6720    6.4813   -2.4359 H         1 RES1    0.0000
@<TRIPOS>BOND
     1    1    4 2
     2    2   15 1
     3    3   14 1
     4    5    1 2
     5    6   36 1
     6    7    8 1
     7    9    1 1
     8   10    9 ar
     9   11   10 1
    10   12   10 ar
    11   13   12 1
    12   14   12 ar
    13   15    3 1
    14   16   15 1
    15   17   16 1
    16   18   16 1
    17   19   16 1
    18   20   19 1
    19   21   19 1
    20   22   19 1
    21   23   22 1
    22   24   22 1
    23   25   22 1
    24   26   25 1
    25   27   25 1
    26   28   15 1
    27   29   28 1
    28   30   28 1
    29   31   30 1
    30   32    7 ar
    31   33    2 1
    32   34   33 1
    33   35   33 1
    34   36   33 1
    35   37   36 1
    36   38   36 1
    37   39    6 1
    38   40   39 1
    39   41   39 1
    40   42    2 1
    41   43   42 1
    42   44   42 1
    43   45   30 1
    44   46   45 3
    45   47   46 1
    46   48   47 ar
    47   49   48 1
    48   50   48 ar
    49   51   50 1
    50   52   50 ar
    51   53   52 1
    52   54   52 ar
    53   55   54 1
    54   56   47 ar
    55   57   56 1
    56    7    9 ar
    57   14   32 ar
    58   25   28 1
    59   30   32 1
    60   39   42 1
    61   54   56 ar
@<TRIPOS>SUBSTRUCTURE
     1 RES1 1

@<TRIPOS>CRYSIN
  12.3870   11.5490   16.2960  90.0000 102.6500  90.0000 231 1

