# MOL2 file generated by ConQuest
# Please check atom types

@<TRIPOS>MOLECULE
LACGEC
    44    44     1
SMALL
NO_CHARGES
****
Generated from CSD

@<TRIPOS>ATOM
      1 N1         5.5220    4.8826    6.8365 N.ar      1 RES1    0.0000
      2 N2         4.1306    3.2349    7.8628 N.ar      1 RES1    0.0000
      3 N3         4.6701    5.2516    9.0464 N.ar      1 RES1    0.0000
      4 O1         5.0589    0.0548    9.1557 O.3       1 RES1    0.0000
      5 N4         3.3351    3.6427    9.9847 N.3       1 RES1    0.0000
      6 C1         5.3975    5.6180    7.9831 C.ar      1 RES1    0.0000
      7 C2         4.0621    4.0601    8.9451 C.ar      1 RES1    0.0000
      8 O2         2.7423    3.2875    5.3021 O.2       1 RES1    0.0000
      9 O3         3.5586    1.5099    4.4193 O.2       1 RES1    0.0000
     10 N5         3.6416    2.5273    5.0866 N.pl3     1 RES1    0.0000
     11 C3         4.8714    3.7414    6.8905 C.ar      1 RES1    0.0000
     12 C4         5.0228    2.8370    5.6766 C.3       1 RES1    0.0000
     13 O4         6.7407    1.4203    8.6068 O.2       1 RES1    0.0000
     14 O5         6.9135    3.5960    4.5093 O.2       1 RES1    0.0000
     15 O6         5.0058    4.3235    3.8450 O.2       1 RES1    0.0000
     16 N6         5.7076    3.6505    4.5670 N.pl3     1 RES1    0.0000
     17 C5         3.2344    4.4349   11.1960 C.3       1 RES1    0.0000
     18 C6         5.8287    1.5700    5.8973 C.3       1 RES1    0.0000
     19 N7         6.0530    6.7853    8.0310 N.3       1 RES1    0.0000
     20 C7         5.9872    7.6058    9.2224 C.3       1 RES1    0.0000
     21 C8         5.7857    0.7711    8.2903 C.2       1 RES1    0.0000
     22 C9         5.2633    0.5870    6.9109 C.3       1 RES1    0.0000
     23 C10        6.9017    7.2213    6.9458 C.3       1 RES1    0.0000
     24 C11        2.6156    2.3981    9.9649 C.3       1 RES1    0.0000
     25 C12        5.5054    0.0815   10.5222 C.3       1 RES1    0.0000
     26 H1         3.7519    5.2367   11.0902 H         1 RES1    0.0000
     27 H2         3.5742    3.9303   11.9386 H         1 RES1    0.0000
     28 H3         2.3168    4.6655   11.3589 H         1 RES1    0.0000
     29 H4         6.6968    1.8489    6.1978 H         1 RES1    0.0000
     30 H5         5.9090    1.1395    5.0430 H         1 RES1    0.0000
     31 H6         5.3961    7.1982    9.8596 H         1 RES1    0.0000
     32 H7         5.6524    8.4737    8.9851 H         1 RES1    0.0000
     33 H8         6.8617    7.6945    9.6083 H         1 RES1    0.0000
     34 H9         5.4659   -0.3032    6.6142 H         1 RES1    0.0000
     35 H10        4.3117    0.7137    6.9165 H         1 RES1    0.0000
     36 H11        6.8534    6.5777    6.2351 H         1 RES1    0.0000
     37 H12        7.8095    7.2956    7.2490 H         1 RES1    0.0000
     38 H13        6.6003    8.0748    6.6258 H         1 RES1    0.0000
     39 H14        2.7522    1.9647    9.1191 H         1 RES1    0.0000
     40 H15        1.6789    2.5666   10.0905 H         1 RES1    0.0000
     41 H16        2.9363    1.8314   10.6703 H         1 RES1    0.0000
     42 H17        4.9270   -0.4587   11.0654 H         1 RES1    0.0000
     43 H18        5.4870    0.9878   10.8383 H         1 RES1    0.0000
     44 H19        6.4020   -0.2574   10.5742 H         1 RES1    0.0000
@<TRIPOS>BOND
     1    1    6 ar
     2    2    7 ar
     3    3    6 ar
     4    4   21 1
     5    5    7 1
     6    6   19 1
     7    7    3 ar
     8    8   10 2
     9    9   10 2
    10   10   12 1
    11   11    1 ar
    12   12   11 1
    13   13   21 2
    14   14   16 2
    15   15   16 2
    16   16   12 1
    17   17    5 1
    18   18   12 1
    19   19   20 1
    20   20   31 1
    21   21   22 1
    22   22   18 1
    23   23   19 1
    24   24    5 1
    25   25    4 1
    26   26   17 1
    27   27   17 1
    28   28   17 1
    29   29   18 1
    30   30   18 1
    31   32   20 1
    32   33   20 1
    33   34   22 1
    34   35   22 1
    35   36   23 1
    36   37   23 1
    37   38   23 1
    38   39   24 1
    39   40   24 1
    40   41   24 1
    41   42   25 1
    42   43   25 1
    43   44   25 1
    44    2   11 ar
@<TRIPOS>SUBSTRUCTURE
     1 RES1 1

@<TRIPOS>CRYSIN
   9.0620   11.4320   17.0380  90.0000 100.1600  90.0000 231 1

