# MOL2 file generated by ConQuest
# Please check atom types

@<TRIPOS>MOLECULE
LACLAC
    23    23     1
SMALL
NO_CHARGES
****
Generated from CSD

@<TRIPOS>ATOM
      1 O1         1.1178    1.8471    1.8521 O.2       1 RES1    0.0000
      2 O2         3.0915    2.7181    1.8498 O.2       1 RES1    0.0000
      3 O3         6.5547   -1.2723    4.8628 O.2       1 RES1    0.0000
      4 O4         6.6968   -0.1516    3.0463 O.2       1 RES1    0.0000
      5 O5         1.1040   -3.1728    4.4621 O.2       1 RES1    0.0000
      6 N1         2.2955    1.8496    2.1737 N.pl3     1 RES1    0.0000
      7 N2         6.0383   -0.6566    3.9479 N.pl3     1 RES1    0.0000
      8 N3         0.6526   -1.6314    6.0370 N.am      1 RES1    0.0000
      9 C1         4.1359    0.5704    3.1376 C.ar      1 RES1    0.0000
     10 C2         1.8728   -0.0912    3.6329 C.ar      1 RES1    0.0000
     11 C3         2.3518   -1.1521    4.3875 C.ar      1 RES1    0.0000
     12 C4         2.7839    0.7490    3.0174 C.ar      1 RES1    0.0000
     13 C5         4.5783   -0.5000    3.8933 C.ar      1 RES1    0.0000
     14 C6         3.7246   -1.4012    4.5422 C.ar      1 RES1    0.0000
     15 C7         1.3231   -2.0848    4.9841 C.2       1 RES1    0.0000
     16 C8         4.1916   -2.5842    5.3392 C.3       1 RES1    0.0000
     17 H1         0.7978   -0.8364    6.3776 H         1 RES1    0.0000
     18 H2        -0.1714   -2.1320    6.3331 H         1 RES1    0.0000
     19 H3         4.7334    1.1572    2.7269 H         1 RES1    0.0000
     20 H4         0.8648    0.0440    3.5171 H         1 RES1    0.0000
     21 H5         4.9360   -3.0753    4.9307 H         1 RES1    0.0000
     22 H6         4.6479   -2.1257    6.1105 H         1 RES1    0.0000
     23 H7         3.4704   -3.1571    5.4983 H         1 RES1    0.0000
@<TRIPOS>BOND
     1    1    6 2
     2    2    6 2
     3    3    7 2
     4    4    7 2
     5    5   15 2
     6    6   12 1
     7    7   13 1
     8    8   15 1
     9    9   12 ar
    10   10   11 ar
    11   11   14 ar
    12   12   10 ar
    13   13    9 ar
    14   14   13 ar
    15   15   11 1
    16   16   14 1
    17   17    8 1
    18   18    8 1
    19   19    9 1
    20   20   10 1
    21   21   16 1
    22   22   16 1
    23   23   16 1
@<TRIPOS>SUBSTRUCTURE
     1 RES1 1

@<TRIPOS>CRYSIN
  13.4990    6.2890   11.1510  90.0000  93.5000  90.0000  14 1

