# MOL2 file generated by ConQuest
# Please check atom types

@<TRIPOS>MOLECULE
LACPIO
    46    41     2
SMALL
NO_CHARGES
****
Generated from CSD

@<TRIPOS>ATOM
      1 O1         2.3694    1.2446    3.8603 O.2       1 RES1    0.0000
      2 O2         2.7538    2.0038    1.8723 O.2       1 RES1    0.0000
      3 N1         7.7187    0.2503    1.3426 N.ar      1 RES1    0.0000
      4 N2         3.6449   -0.0301    0.3518 N.3       1 RES1    0.0000
      5 N3         1.7915   -3.1101   -1.9792 N.3       1 RES1    0.0000
      6 N4         3.1393    1.4589    2.9174 N.pl3     1 RES1    0.0000
      7 N5         8.6075    0.9853    3.6920 N.3       1 RES1    0.0000
      8 C1         7.2918   -0.1323    0.1420 C.ar      1 RES1    0.0000
      9 C2         5.9615   -0.1902   -0.2361 C.ar      1 RES1    0.0000
     10 C3         4.9620    0.1849    0.6621 C.ar      1 RES1    0.0000
     11 C4         5.3686    0.6990    1.9473 C.ar      1 RES1    0.0000
     12 C5         4.5228    1.0988    3.0434 C.ar      1 RES1    0.0000
     13 C6         5.0390    1.3176    4.3055 C.ar      1 RES1    0.0000
     14 C7         6.3886    1.2567    4.5703 C.ar      1 RES1    0.0000
     15 C8         7.2887    0.9808    3.5356 C.ar      1 RES1    0.0000
     16 C9         6.7629    0.6471    2.2201 C.ar      1 RES1    0.0000
     17 C10        9.2771    1.3829    4.9237 C.3       1 RES1    0.0000
     18 C11        3.2069   -0.6389   -0.8751 C.3       1 RES1    0.0000
     19 C12        1.7391   -0.9666   -0.7738 C.3       1 RES1    0.0000
     20 C13        1.0920   -1.8437   -1.7184 C.3       1 RES1    0.0000
     21 C14        1.5124   -2.1721   -0.7523 Du        2 SUP2    0.0000
     22 C15        0.9763   -3.6535   -3.0753 C.3       1 RES1    0.0000
     23 C16        1.9957   -4.1676   -1.0841 C.3       1 RES1    0.0000
     24 H1         3.1772    0.4961    0.6143 H         1 RES1    0.0000
     25 H2         9.3074    0.7967    2.7921 H         1 RES1    0.0000
     26 H3         7.7396   -0.7666   -0.0718 Du        2 SUP2    0.0000
     27 H4         5.7066   -0.4885   -1.0052 H         1 RES1    0.0000
     28 H5         4.5575    1.6159    4.7945 H         1 RES1    0.0000
     29 H6         6.7448    1.4205    5.4008 H         1 RES1    0.0000
     30 H7         8.5406    1.5423    5.6975 H         1 RES1    0.0000
     31 H8         9.8266    2.2976    4.7562 H         1 RES1    0.0000
     32 H9         9.9583    0.6043    5.2300 H         1 RES1    0.0000
     33 H10        3.3683    0.0451   -1.6944 H         1 RES1    0.0000
     34 H11        3.7661   -1.5460   -1.0474 H         1 RES1    0.0000
     35 H12        1.1792   -0.2706   -0.1667 H         1 RES1    0.0000
     36 H13        2.7312   -0.5772   -0.9461 Du        2 SUP2    0.0000
     37 H14        1.5760   -2.1082   -2.6469 Du        2 SUP2    0.0000
     38 H15        0.0240   -1.8008   -1.8675 H         1 RES1    0.0000
     39 H16        0.8132   -2.5254   -0.0080 Du        2 SUP2    0.0000
     40 H17        2.3652   -2.8335   -0.7874 Du        2 SUP2    0.0000
     41 H18        0.9997   -2.5840   -3.2245 H         1 RES1    0.0000
     42 H19       -0.0497   -3.9910   -3.0530 H         1 RES1    0.0000
     43 H20        1.4977   -4.1421   -3.8842 H         1 RES1    0.0000
     44 H21        2.8834   -3.5633   -0.9661 H         1 RES1    0.0000
     45 H22        2.2677   -5.2123   -1.0794 H         1 RES1    0.0000
     46 H23        1.3146   -3.9700   -0.2696 H         1 RES1    0.0000
@<TRIPOS>BOND
     1    1    6 2
     2    2    6 2
     3    3    8 ar
     4    4   10 1
     5    5   20 1
     6    6   12 1
     7    7   15 1
     8    8    9 ar
     9    9   10 ar
    10   10   11 ar
    11   11   12 ar
    12   12   13 ar
    13   13   14 ar
    14   14   15 ar
    15   15   16 ar
    16   16    3 ar
    17   17    7 1
    18   18    4 1
    19   19   18 1
    20   20   19 1
    21   22    5 1
    22   23    5 1
    23   24    4 1
    24   25    7 1
    25   27    9 1
    26   28   13 1
    27   29   14 1
    28   30   17 1
    29   31   17 1
    30   32   17 1
    31   33   18 1
    32   34   18 1
    33   35   19 1
    34   38   20 1
    35   41   22 1
    36   42   22 1
    37   43   22 1
    38   44   23 1
    39   45   23 1
    40   46   23 1
    41   11   16 ar
@<TRIPOS>SUBSTRUCTURE
     1 RES1 1
     2 SUP2 21

@<TRIPOS>CRYSIN
  13.0380    7.5160    8.0280  90.0000  96.4300  90.0000   4 1

