# MOL2 file generated by ConQuest
# Please check atom types

@<TRIPOS>MOLECULE
LACPEK
    51    54     1
SMALL
NO_CHARGES
****
Generated from CSD

@<TRIPOS>ATOM
      1 O1         0.5754    2.0850    0.2983 O.2       1 RES1    0.0000
      2 O2        -0.0116    4.1536   -0.0352 O.2       1 RES1    0.0000
      3 O3        -6.4897    8.1639   -2.7765 O.3       1 RES1    0.0000
      4 N1        -2.3667    4.8154   -1.1240 N.3       1 RES1    0.0000
      5 N2        -0.2377    2.9212   -0.1233 N.pl3     1 RES1    0.0000
      6 N3        -5.6301    2.7476   -2.5497 N.2       1 RES1    0.0000
      7 N4        -5.0859    1.4924   -2.3130 N.3       1 RES1    0.0000
      8 N5        -4.7118    0.2868   -4.9409 N.3       1 RES1    0.0000
      9 C1        -1.4463    2.5087   -0.7101 C.ar      1 RES1    0.0000
     10 C2        -1.7171    1.1087   -0.8323 C.ar      1 RES1    0.0000
     11 C3        -2.8681    0.6034   -1.3541 C.ar      1 RES1    0.0000
     12 C4        -3.8413    1.5475   -1.7879 C.ar      1 RES1    0.0000
     13 C5        -3.5628    2.9002   -1.6679 C.ar      1 RES1    0.0000
     14 C6        -5.6809    5.8775   -2.5101 C.ar      1 RES1    0.0000
     15 C7        -5.5386    7.2452   -2.4154 C.ar      1 RES1    0.0000
     16 C8        -4.3638    7.7906   -1.9002 C.ar      1 RES1    0.0000
     17 C9        -3.3302    6.9902   -1.4807 C.ar      1 RES1    0.0000
     18 C10       -3.4504    5.5994   -1.5765 C.ar      1 RES1    0.0000
     19 C11       -2.4002    3.4566   -1.1471 C.ar      1 RES1    0.0000
     20 C12       -4.6821    3.5905   -2.1391 C.2       1 RES1    0.0000
     21 C13       -4.6355    5.0406   -2.0917 C.ar      1 RES1    0.0000
     22 C14       -5.8356    0.3172   -2.7368 C.3       1 RES1    0.0000
     23 C15       -5.9908    0.2644   -4.2440 C.3       1 RES1    0.0000
     24 C16       -4.8414    0.8446   -6.2961 C.3       1 RES1    0.0000
     25 C17       -5.0792    2.3324   -6.3115 C.3       1 RES1    0.0000
     26 C18       -4.0909   -1.0450   -4.9739 C.3       1 RES1    0.0000
     27 C19       -2.5896   -0.9890   -5.0741 C.3       1 RES1    0.0000
     28 C20       -7.6682    7.6748   -3.3974 C.3       1 RES1    0.0000
     29 H1        -1.0053    0.5355   -0.5064 H         1 RES1    0.0000
     30 H2        -3.0145   -0.3388   -1.4202 H         1 RES1    0.0000
     31 H3        -6.4668    5.4711   -2.8624 H         1 RES1    0.0000
     32 H4        -4.2908    8.7360   -1.8165 H         1 RES1    0.0000
     33 H5        -2.5122    7.3727   -1.1229 H         1 RES1    0.0000
     34 H6        -1.6684    5.1976   -0.7927 H         1 RES1    0.0000
     35 H7        -6.7235    0.3344   -2.3009 H         1 RES1    0.0000
     36 H8        -5.3376   -0.4735   -2.3780 H         1 RES1    0.0000
     37 H9        -6.5818   -0.5536   -4.4366 H         1 RES1    0.0000
     38 H10       -6.5624    1.0457   -4.4917 H         1 RES1    0.0000
     39 H11       -5.6672    0.3919   -6.7706 H         1 RES1    0.0000
     40 H12       -4.0010    0.6392   -6.7706 H         1 RES1    0.0000
     41 H13       -5.2681    2.6596   -7.1559 H         1 RES1    0.0000
     42 H14       -5.7571    2.6015   -5.8018 H         1 RES1    0.0000
     43 H15       -4.2621    2.8283   -5.9779 H         1 RES1    0.0000
     44 H16       -4.4397   -1.6085   -5.7908 H         1 RES1    0.0000
     45 H17       -4.3609   -1.5244   -4.0844 H         1 RES1    0.0000
     46 H18       -2.2230   -1.9138   -5.0752 H         1 RES1    0.0000
     47 H19       -2.3098   -0.4966   -5.8128 H         1 RES1    0.0000
     48 H20       -2.1744   -0.4865   -4.3376 H         1 RES1    0.0000
     49 H21       -8.2028    8.4225   -3.6110 H         1 RES1    0.0000
     50 H22       -7.4603    7.2022   -4.2605 H         1 RES1    0.0000
     51 H23       -8.1620    7.0424   -2.8073 H         1 RES1    0.0000
@<TRIPOS>BOND
     1    1    5 2
     2    2    5 2
     3    3   15 1
     4    4   18 1
     5    5    9 1
     6    6    7 1
     7    7   12 1
     8    8   23 1
     9    9   10 ar
    10   10   11 ar
    11   11   12 ar
    12   12   13 ar
    13   13   19 ar
    14   14   15 ar
    15   15   16 ar
    16   16   17 ar
    17   17   18 ar
    18   18   21 ar
    19   19    4 1
    20   20    6 2
    21   21   14 ar
    22   22    7 1
    23   23   22 1
    24   24    8 1
    25   25   24 1
    26   26    8 1
    27   27   26 1
    28   28    3 1
    29   29   10 1
    30   30   11 1
    31   31   14 1
    32   32   16 1
    33   33   17 1
    34   34    4 1
    35   35   22 1
    36   36   22 1
    37   37   23 1
    38   38   23 1
    39   39   24 1
    40   40   24 1
    41   41   25 1
    42   42   25 1
    43   43   25 1
    44   44   26 1
    45   45   26 1
    46   46   27 1
    47   47   27 1
    48   48   27 1
    49   49   28 1
    50   50   28 1
    51   51   28 1
    52    9   19 ar
    53   13   20 1
    54   20   21 1
@<TRIPOS>SUBSTRUCTURE
     1 RES1 1

@<TRIPOS>CRYSIN
   7.6070   11.2480   12.1500 114.3600  94.7000  91.6900   2 1

