# MOL2 file generated by ConQuest
# Please check atom types

@<TRIPOS>MOLECULE
LAFWOF
    48    52     1
SMALL
NO_CHARGES
****
Generated from CSD

@<TRIPOS>ATOM
      1 O1         1.6558    1.3415    3.9932 O.3       1 RES1    0.0000
      2 O2         1.3922    2.9317    6.2577 O.3       1 RES1    0.0000
      3 O3        -0.2262    1.9391    1.7924 O.3       1 RES1    0.0000
      4 H1         0.0566    2.0698    2.5384 H         1 RES1    0.0000
      5 O4         7.3114    2.6512    1.3264 O.3       1 RES1    0.0000
      6 O5         8.1250    3.3317    5.7895 O.2       1 RES1    0.0000
      7 O6         8.9957    4.8245    4.3552 O.3       1 RES1    0.0000
      8 N1         6.0843    2.1577    2.0186 N.3       1 RES1    0.0000
      9 C1         3.8650    1.9713    3.7587 C.ar      1 RES1    0.0000
     10 C2         2.6935    2.0976    4.4897 C.ar      1 RES1    0.0000
     11 C3         2.5997    2.9050    5.6206 C.ar      1 RES1    0.0000
     12 C4         3.7496    3.5804    5.9982 C.ar      1 RES1    0.0000
     13 H2         3.7205    4.1580    6.7267 H         1 RES1    0.0000
     14 C5         4.9522    3.4107    5.3047 C.ar      1 RES1    0.0000
     15 H3         5.7121    3.8592    5.5992 H         1 RES1    0.0000
     16 C6         5.0437    2.5889    4.1862 C.ar      1 RES1    0.0000
     17 C7         6.3671    2.2523    3.4905 C.3       1 RES1    0.0000
     18 H4         6.6961    1.3877    3.8149 H         1 RES1    0.0000
     19 C8         5.8693    0.8057    1.4976 C.3       1 RES1    0.0000
     20 H5         6.6655    0.2721    1.6470 H         1 RES1    0.0000
     21 H6         5.7110    0.8496    0.5416 H         1 RES1    0.0000
     22 C9         4.6800    0.1408    2.1777 C.3       1 RES1    0.0000
     23 H7         4.9873   -0.2921    2.9885 H         1 RES1    0.0000
     24 H8         4.3311   -0.5486    1.5909 H         1 RES1    0.0000
     25 C10        3.5373    1.1061    2.5370 C.3       1 RES1    0.0000
     26 C11        3.1546    2.0208    1.3762 C.2       1 RES1    0.0000
     27 H9         3.8115    2.5945    1.0522 H         1 RES1    0.0000
     28 C12        1.9703    2.0670    0.7928 C.2       1 RES1    0.0000
     29 H10        1.8422    2.6891    0.1136 H         1 RES1    0.0000
     30 C13        0.8240    1.1801    1.1572 C.3       1 RES1    0.0000
     31 H11        0.4582    0.8212    0.3217 H         1 RES1    0.0000
     32 C14        1.2797    0.0000    1.9885 C.3       1 RES1    0.0000
     33 H12        1.6787   -0.6627    1.4035 H         1 RES1    0.0000
     34 H13        0.5068   -0.4051    2.4114 H         1 RES1    0.0000
     35 C15        2.2832    0.3845    3.0571 C.3       1 RES1    0.0000
     36 H14        2.5530   -0.4190    3.5493 H         1 RES1    0.0000
     37 C16        1.2842    3.7908    7.3955 C.3       1 RES1    0.0000
     38 H15        0.4031    3.7162    7.7701 H         1 RES1    0.0000
     39 H16        1.4423    4.6988    7.1266 H         1 RES1    0.0000
     40 H17        1.9347    3.5343    8.0534 H         1 RES1    0.0000
     41 C17        7.5018    3.2599    3.5022 C.2       1 RES1    0.0000
     42 C18        7.9691    3.3529    2.2568 C.2       1 RES1    0.0000
     43 H18        8.7100    3.8748    2.0469 H         1 RES1    0.0000
     44 C19        8.2052    3.7813    4.6718 C.2       1 RES1    0.0000
     45 C20        9.8124    5.3832    5.4132 C.3       1 RES1    0.0000
     46 H19        9.9980    6.3057    5.2228 H         1 RES1    0.0000
     47 H20       10.6388    4.8963    5.4708 H         1 RES1    0.0000
     48 H21        9.3444    5.3170    6.2485 H         1 RES1    0.0000
@<TRIPOS>BOND
     1    1   10 1
     2    2   11 1
     3    3    4 1
     4    5    8 1
     5    6   44 2
     6    7   44 1
     7    8   17 1
     8    9   10 ar
     9   10   11 ar
    10   11   12 ar
    11   12   13 1
    12   14   12 ar
    13   15   14 1
    14   16    9 ar
    15   17   16 1
    16   18   17 1
    17   19    8 1
    18   20   19 1
    19   21   19 1
    20   22   19 1
    21   23   22 1
    22   24   22 1
    23   25    9 1
    24   26   25 1
    25   27   26 1
    26   28   26 2
    27   29   28 1
    28   30    3 1
    29   31   30 1
    30   32   30 1
    31   33   32 1
    32   34   32 1
    33   35    1 1
    34   36   35 1
    35   37    2 1
    36   38   37 1
    37   39   37 1
    38   40   37 1
    39   41   17 1
    40   42    5 1
    41   43   42 1
    42   44   41 1
    43   45    7 1
    44   46   45 1
    45   47   45 1
    46   48   45 1
    47   14   16 ar
    48   22   25 1
    49   25   35 1
    50   28   30 1
    51   32   35 1
    52   41   42 2
@<TRIPOS>SUBSTRUCTURE
     1 RES1 1

@<TRIPOS>CRYSIN
  11.1180    5.5640   15.1940  90.0000 103.7600  90.0000   4 1

