# MOL2 file generated by ConQuest
# Please check atom types

@<TRIPOS>MOLECULE
LAGGAE
    28    29     1
SMALL
NO_CHARGES
****
Generated from CSD

@<TRIPOS>ATOM
      1 N1         6.6447    0.5117    7.0208 N.2       1 RES1    0.0000
      2 C1         6.0616   -0.2795    6.2144 C.2       1 RES1    0.0000
      3 H1         6.4083   -1.1348    6.0983 H         1 RES1    0.0000
      4 C2         4.8749    0.1005    5.4676 C.ar      1 RES1    0.0000
      5 O1         4.6978    2.2292    6.5622 O.3       1 RES1    0.0000
      6 H2         4.0615    2.6201    6.9016 H         1 RES1    0.0000
      7 C3         7.8194    0.1282    7.7089 C.ar      1 RES1    0.0000
      8 C4         3.1323    1.6568    4.8891 C.ar      1 RES1    0.0000
      9 H3         2.7102    2.4775    5.0069 H         1 RES1    0.0000
     10 C5        10.0566   -0.4903    9.1789 C.ar      1 RES1    0.0000
     11 C6         4.2459    1.3381    5.6510 C.ar      1 RES1    0.0000
     12 C7         4.3654   -0.7831    4.5183 C.ar      1 RES1    0.0000
     13 H4         4.7777   -1.6078    4.3942 H         1 RES1    0.0000
     14 C8         2.6479    0.7675    3.9595 C.ar      1 RES1    0.0000
     15 H5         1.8970    0.9927    3.4587 H         1 RES1    0.0000
     16 C9         9.6396   -1.3612    8.2159 C.ar      1 RES1    0.0000
     17 H6        10.1091   -2.1483    8.0608 H         1 RES1    0.0000
     18 C10        8.2862    1.0043    8.6708 C.ar      1 RES1    0.0000
     19 H7         7.8414    1.8093    8.8089 H         1 RES1    0.0000
     20 C11        9.4018    0.7063    9.4331 C.ar      1 RES1    0.0000
     21 H8         9.7028    1.2878   10.0941 H         1 RES1    0.0000
     22 C12        3.2586   -0.4562    3.7571 C.ar      1 RES1    0.0000
     23 H9         2.9309   -1.0493    3.1200 H         1 RES1    0.0000
     24 C13        8.5152   -1.0643    7.4746 C.ar      1 RES1    0.0000
     25 H10        8.2194   -1.6551    6.8197 H         1 RES1    0.0000
     26 N2        11.2135   -0.8541   10.0035 N.pl3     1 RES1    0.0000
     27 O2        11.5297   -0.1299   10.9228 O.2       1 RES1    0.0000
     28 O3        11.8015   -1.8878    9.7292 O.2       1 RES1    0.0000
@<TRIPOS>BOND
     1    1    2 2
     2    2    3 1
     3    4    2 1
     4    5    6 1
     5    7    1 1
     6    8    9 1
     7   10   16 ar
     8   11    4 ar
     9   12    4 ar
    10   13   12 1
    11   14    8 ar
    12   15   14 1
    13   16   17 1
    14   18    7 ar
    15   19   18 1
    16   20   10 ar
    17   21   20 1
    18   22   12 ar
    19   23   22 1
    20   24    7 ar
    21   25   24 1
    22   26   10 1
    23   27   26 2
    24   28   26 2
    25    5   11 1
    26    8   11 ar
    27   14   22 ar
    28   16   24 ar
    29   18   20 ar
@<TRIPOS>SUBSTRUCTURE
     1 RES1 1

@<TRIPOS>CRYSIN
  12.3375    5.7750   15.9003  90.0000  97.8880  90.0000  14 1

