# MOL2 file generated by ConQuest
# Please check atom types

@<TRIPOS>MOLECULE
LAGPIT
    37    37     1
SMALL
NO_CHARGES
****
Generated from CSD

@<TRIPOS>ATOM
      1 C1         4.5205    4.3140    1.8836 C.ar      1 RES1    0.0000
      2 C2         4.2594    2.9460    1.7074 C.ar      1 RES1    0.0000
      3 C3         5.0341    2.1639    0.8695 C.ar      1 RES1    0.0000
      4 C4         6.0670    2.7699    0.1809 C.ar      1 RES1    0.0000
      5 C5         6.3465    4.1173    0.2995 C.ar      1 RES1    0.0000
      6 C6         5.5778    4.8854    1.1559 C.ar      1 RES1    0.0000
      7 C7         3.6443    5.0667    2.7911 C.2       1 RES1    0.0000
      8 C8         3.9159    6.1890    3.4915 C.2       1 RES1    0.0000
      9 C9         2.9290    6.7618    4.4087 C.2       1 RES1    0.0000
     10 C10        1.5948    6.9175    4.2651 C.2       1 RES1    0.0000
     11 C11        0.8951    7.4875    5.4101 C.2       1 RES1    0.0000
     12 C12       -0.4209    7.6233    5.6828 C.2       1 RES1    0.0000
     13 C13       -0.7083    8.2522    6.9777 C.2       1 RES1    0.0000
     14 O1        -1.8202    8.4230    7.4468 O.2       1 RES1    0.0000
     15 C14        5.2552    6.8829    3.5176 C.3       1 RES1    0.0000
     16 C15        0.8509    6.5881    3.0045 C.3       1 RES1    0.0000
     17 C16       -1.6058    7.1990    4.8638 C.3       1 RES1    0.0000
     18 N1         6.9059    1.9620   -0.7098 N.pl3     1 RES1    0.0000
     19 O2         6.7918    0.7362   -0.6626 O.2       1 RES1    0.0000
     20 O3         7.6876    2.5283   -1.4526 O.2       1 RES1    0.0000
     21 H1         3.4953    2.5274    2.1990 H         1 RES1    0.0000
     22 H2         4.8519    1.1865    0.7653 H         1 RES1    0.0000
     23 H3         7.0917    4.5300   -0.2240 H         1 RES1    0.0000
     24 H4         5.7778    5.8604    1.2588 H         1 RES1    0.0000
     25 H5         2.7222    4.6987    2.9056 H         1 RES1    0.0000
     26 H6         3.3004    7.0893    5.2770 H         1 RES1    0.0000
     27 H7         1.5001    7.8429    6.1238 H         1 RES1    0.0000
     28 H8         0.0713    8.5671    7.5191 H         1 RES1    0.0000
     29 H9         5.2026    7.6884    4.1069 H         1 RES1    0.0000
     30 H10        5.9486    6.2555    3.8721 H         1 RES1    0.0000
     31 H11        5.5034    7.1636    2.5906 H         1 RES1    0.0000
     32 H12        1.4872    6.2095    2.3319 H         1 RES1    0.0000
     33 H13        0.4340    7.4195    2.6373 H         1 RES1    0.0000
     34 H14        0.1380    5.9170    3.2038 H         1 RES1    0.0000
     35 H15       -2.4481    7.4431    5.3453 H         1 RES1    0.0000
     36 H16       -1.5822    7.6613    3.9775 H         1 RES1    0.0000
     37 H17       -1.5779    6.2083    4.7249 H         1 RES1    0.0000
@<TRIPOS>BOND
     1    1    2 ar
     2    2    3 ar
     3    3    4 ar
     4    4    5 ar
     5    5    6 ar
     6    6    1 ar
     7    7    1 1
     8    8    7 2
     9    9    8 1
    10   10    9 2
    11   11   10 1
    12   12   11 2
    13   13   12 1
    14   14   13 2
    15   15    8 1
    16   16   10 1
    17   17   12 1
    18   18    4 1
    19   19   18 2
    20   20   18 2
    21   21    2 1
    22   22    3 1
    23   23    5 1
    24   24    6 1
    25   25    7 1
    26   26    9 1
    27   27   11 1
    28   28   13 1
    29   29   15 1
    30   30   15 1
    31   31   15 1
    32   32   16 1
    33   33   16 1
    34   34   16 1
    35   35   17 1
    36   36   17 1
    37   37   17 1
@<TRIPOS>SUBSTRUCTURE
     1 RES1 1

@<TRIPOS>CRYSIN
  10.1307   11.7939   12.8561  90.0000 111.3124  90.0000  14 2

