# MOL2 file generated by ConQuest
# Please check atom types

@<TRIPOS>MOLECULE
LAGTOD
    15    14     1
SMALL
NO_CHARGES
****
Generated from CSD

@<TRIPOS>ATOM
      1 O1        -0.9206    4.2627    3.3198 O.2       1 RES1    0.0000
      2 O2         0.4314    1.9446    3.3529 O.3       1 RES1    0.0000
      3 O3         2.1621    3.0575    2.4123 O.2       1 RES1    0.0000
      4 N1         0.4924    2.8742    4.4037 N.am      1 RES1    0.0000
      5 C1        -0.2613    3.9698    4.3215 C.2       1 RES1    0.0000
      6 C2         1.4059    2.1326    2.3913 C.2       1 RES1    0.0000
      7 C3        -0.2045    4.8401    5.5411 C.3       1 RES1    0.0000
      8 C4         1.3285    1.0367    1.3953 C.3       1 RES1    0.0000
      9 H1         0.9066    2.6242    5.2029 H         1 RES1    0.0000
     10 H2        -0.9807    4.8935    5.8015 H         1 RES1    0.0000
     11 H3         0.2523    5.7400    5.3812 H         1 RES1    0.0000
     12 H4         0.2503    4.3601    6.3174 H         1 RES1    0.0000
     13 H5         2.0737    1.1248    0.7387 H         1 RES1    0.0000
     14 H6         1.4025    0.1392    1.8150 H         1 RES1    0.0000
     15 H7         0.4823    1.0089    1.0317 H         1 RES1    0.0000
@<TRIPOS>BOND
     1    1    5 2
     2    2    4 1
     3    3    6 2
     4    4    5 1
     5    5    7 1
     6    6    2 1
     7    7   10 1
     8    8    6 1
     9    9    4 1
    10   11    7 1
    11   12    7 1
    12   13    8 1
    13   14    8 1
    14   15    8 1
@<TRIPOS>SUBSTRUCTURE
     1 RES1 1

@<TRIPOS>CRYSIN
   7.9830   11.5960    6.9720  90.0000 114.0190  90.0000   9 1

