# MOL2 file generated by ConQuest
# Please check atom types

@<TRIPOS>MOLECULE
LAGTET
    22    22     1
SMALL
NO_CHARGES
****
Generated from CSD

@<TRIPOS>ATOM
      1 O1        -2.0910   -1.2809  -10.1776 O.2       1 RES1    0.0000
      2 O2        -4.2569   -0.0702   -9.1543 O.3       1 RES1    0.0000
      3 O3        -3.0380   -0.2878   -7.2514 O.2       1 RES1    0.0000
      4 N1        -3.1658    0.6342   -9.6749 N.am      1 RES1    0.0000
      5 C1        -2.1450   -0.0563  -10.1947 C.2       1 RES1    0.0000
      6 C2        -4.0465   -0.5067   -7.8541 C.2       1 RES1    0.0000
      7 C3        -1.0832    0.8114  -10.8030 C.3       1 RES1    0.0000
      8 C4        -5.2250   -1.2706   -7.3744 C.ar      1 RES1    0.0000
      9 C5        -6.4294   -1.2983   -8.0722 C.ar      1 RES1    0.0000
     10 C6        -7.5000   -2.0183   -7.5646 C.ar      1 RES1    0.0000
     11 C7        -7.3737   -2.7048   -6.3684 C.ar      1 RES1    0.0000
     12 C8        -6.1714   -2.6816   -5.6772 C.ar      1 RES1    0.0000
     13 C9        -5.0962   -1.9657   -6.1748 C.ar      1 RES1    0.0000
     14 H1        -3.2511    1.4978   -9.6748 H         1 RES1    0.0000
     15 H2        -1.1734    1.7239  -10.5861 H         1 RES1    0.0000
     16 H3        -1.0978    0.6782  -11.7568 H         1 RES1    0.0000
     17 H4        -0.2138    0.4993  -10.5310 H         1 RES1    0.0000
     18 H5        -6.5145   -0.8195   -8.8912 H         1 RES1    0.0000
     19 H6        -8.3424   -2.0215   -8.0417 H         1 RES1    0.0000
     20 H7        -8.1209   -3.2122   -6.0242 H         1 RES1    0.0000
     21 H8        -6.0910   -3.1745   -4.8199 H         1 RES1    0.0000
     22 H9        -4.2552   -1.9603   -5.6976 H         1 RES1    0.0000
@<TRIPOS>BOND
     1    1    5 2
     2    2    4 1
     3    3    6 2
     4    4    5 1
     5    5    7 1
     6    6    2 1
     7    7   15 1
     8    8    6 1
     9    9    8 ar
    10   10    9 ar
    11   11   10 ar
    12   12   11 ar
    13   13    8 ar
    14   14    4 1
    15   16    7 1
    16   17    7 1
    17   18    9 1
    18   19   10 1
    19   20   11 1
    20   21   12 1
    21   22   13 1
    22   12   13 ar
@<TRIPOS>SUBSTRUCTURE
     1 RES1 1

@<TRIPOS>CRYSIN
  13.8160    9.4200   13.4890  90.0000  94.8390  90.0000  15 1

