# MOL2 file generated by ConQuest
# Please check atom types

@<TRIPOS>MOLECULE
LAGTIX
    22    22     1
SMALL
NO_CHARGES
****
Generated from CSD

@<TRIPOS>ATOM
      1 O1        -1.7024   -5.0889   -1.1649 O.2       1 RES1    0.0000
      2 O2        -4.1895   -4.3806   -0.3713 O.3       1 RES1    0.0000
      3 O3        -3.0534   -4.0570    1.5597 O.2       1 RES1    0.0000
      4 N1        -3.3009   -3.4924   -0.9887 N.am      1 RES1    0.0000
      5 C1        -2.1203   -3.9593   -1.4149 C.2       1 RES1    0.0000
      6 C2        -3.9418   -4.5846    0.9745 C.2       1 RES1    0.0000
      7 C3        -1.3505   -2.9929   -2.2534 C.ar      1 RES1    0.0000
      8 C4         0.0369   -3.0027   -2.1668 C.ar      1 RES1    0.0000
      9 C5         0.7811   -2.1478   -2.9713 C.ar      1 RES1    0.0000
     10 C6         0.1400   -1.2960   -3.8605 C.ar      1 RES1    0.0000
     11 C7        -1.2382   -1.2905   -3.9526 C.ar      1 RES1    0.0000
     12 C8        -1.9979   -2.1396   -3.1514 C.ar      1 RES1    0.0000
     13 C9        -4.9634   -5.5416    1.4908 C.3       1 RES1    0.0000
     14 H1        -3.5743   -2.6810   -1.0173 H         1 RES1    0.0000
     15 H2         0.4903   -3.5914   -1.5189 H         1 RES1    0.0000
     16 H3         1.7167   -2.1381   -2.9115 H         1 RES1    0.0000
     17 H4         0.6843   -0.7266   -4.4567 H         1 RES1    0.0000
     18 H5        -1.7155   -0.6598   -4.6110 H         1 RES1    0.0000
     19 H6        -2.9852   -2.1398   -3.2289 H         1 RES1    0.0000
     20 H7        -4.6381   -5.9717    2.2099 H         1 RES1    0.0000
     21 H8        -5.4332   -6.0970    0.7331 H         1 RES1    0.0000
     22 H9        -5.6139   -5.0530    1.9538 H         1 RES1    0.0000
@<TRIPOS>BOND
     1    1    5 2
     2    2    4 1
     3    3    6 2
     4    4    5 1
     5    5    7 1
     6    6    2 1
     7    7    8 ar
     8    8    9 ar
     9    9   10 ar
    10   10   11 ar
    11   11   12 ar
    12   12    7 ar
    13   13    6 1
    14   14    4 1
    15   15    8 1
    16   16    9 1
    17   17   10 1
    18   18   11 1
    19   19   12 1
    20   20   13 1
    21   21   13 1
    22   22   13 1
@<TRIPOS>SUBSTRUCTURE
     1 RES1 1

@<TRIPOS>CRYSIN
  12.0470    8.3520   17.5390  90.0000  90.0000  90.0000  61 1

