# MOL2 file generated by ConQuest
# Please check atom types

@<TRIPOS>MOLECULE
LAGVEU
    29    30     1
SMALL
NO_CHARGES
****
Generated from CSD

@<TRIPOS>ATOM
      1 C1        -0.2769    2.7026    5.3651 C.ar      1 RES1    0.0000
      2 C2        -1.6371    2.8584    5.2984 C.ar      1 RES1    0.0000
      3 C3        -2.4661    1.7717    5.1621 C.ar      1 RES1    0.0000
      4 C4        -1.9461    0.5094    5.0955 C.ar      1 RES1    0.0000
      5 C5        -0.5580    0.3113    5.1905 C.ar      1 RES1    0.0000
      6 C6         0.2508    1.4247    5.3310 C.ar      1 RES1    0.0000
      7 N1         1.6602    1.2154    5.3182 N.pl3     1 RES1    0.0000
      8 C7         2.1704    0.0489    4.6407 C.3       1 RES1    0.0000
      9 N2         1.4072   -1.1013    5.0997 N.am      1 RES1    0.0000
     10 C8        -0.0142   -1.0571    5.1167 C.2       1 RES1    0.0000
     11 N3         2.4380    1.7020    6.3853 N.pl3     1 RES1    0.0000
     12 O1         3.6338    1.4785    6.3299 O.2       1 RES1    0.0000
     13 O2         1.8658    2.3497    7.2253 O.2       1 RES1    0.0000
     14 O3         1.9431    0.1845    3.2586 O.3       1 RES1    0.0000
     15 C9         3.0339    0.4473    2.4690 C.2       1 RES1    0.0000
     16 O4         4.0589    0.8260    2.9323 O.2       1 RES1    0.0000
     17 C10        2.7008    0.2061    1.0592 C.3       1 RES1    0.0000
     18 N4         2.0927   -2.3439    4.8663 N.pl3     1 RES1    0.0000
     19 O5         3.1228   -2.2680    4.2434 O.2       1 RES1    0.0000
     20 O6         1.5729   -3.3172    5.3310 O.2       1 RES1    0.0000
     21 O7        -0.6955   -2.0420    5.0628 O.2       1 RES1    0.0000
     22 H1         0.3770    3.5465    5.4133 H         1 RES1    0.0000
     23 H2        -2.1148    3.8470    5.3707 H         1 RES1    0.0000
     24 H3        -3.5296    1.9242    5.1508 H         1 RES1    0.0000
     25 H4        -2.5195   -0.3072    5.0018 H         1 RES1    0.0000
     26 H5         3.2066   -0.0380    4.7819 H         1 RES1    0.0000
     27 H6         3.4152    0.4115    0.4470 H         1 RES1    0.0000
     28 H7         2.4098   -0.6257    0.9294 H         1 RES1    0.0000
     29 H8         2.0734    0.9095    0.7095 H         1 RES1    0.0000
@<TRIPOS>BOND
     1    1    2 ar
     2    2    3 ar
     3    3    4 ar
     4    4    5 ar
     5    5    6 ar
     6    6    1 ar
     7    7    6 1
     8    8    7 1
     9    9    8 1
    10   10    5 1
    11   11    7 1
    12   12   11 2
    13   13   11 2
    14   14    8 1
    15   15   14 1
    16   16   15 2
    17   17   15 1
    18   18    9 1
    19   19   18 2
    20   20   18 2
    21   21   10 2
    22   22    1 1
    23   23    2 1
    24   24    3 1
    25   25    4 1
    26   26    8 1
    27   27   17 1
    28   28   17 1
    29   29   17 1
    30    9   10 1
@<TRIPOS>SUBSTRUCTURE
     1 RES1 1

@<TRIPOS>CRYSIN
   9.1820    9.7350    8.3570 120.7400  90.4000 103.9500   2 1

