# MOL2 file generated by ConQuest
# Please check atom types

@<TRIPOS>MOLECULE
LAHSEU
    55    58     1
SMALL
NO_CHARGES
****
Generated from CSD

@<TRIPOS>ATOM
      1 N1        -1.9842    1.7224    7.5898 N.3       1 RES1    0.0000
      2 C1        -3.2481    2.5183    7.6985 C.3       1 RES1    0.0000
      3 C2        -3.2897    3.5607    8.8146 C.ar      1 RES1    0.0000
      4 C3        -2.4709    4.6625    8.9914 C.ar      1 RES1    0.0000
      5 H1        -1.7928    4.8505    8.3818 H         1 RES1    0.0000
      6 C4        -2.6735    5.4791   10.0854 C.ar      1 RES1    0.0000
      7 H2        -2.1235    6.2167   10.2235 H         1 RES1    0.0000
      8 C5        -3.7027    5.1985   10.9842 C.ar      1 RES1    0.0000
      9 H3        -3.8185    5.7391   11.7319 H         1 RES1    0.0000
     10 C6        -4.5455    4.1408   10.7797 C.ar      1 RES1    0.0000
     11 H4        -5.2450    3.9825   11.3691 H         1 RES1    0.0000
     12 C7        -4.3477    3.3062    9.6931 C.ar      1 RES1    0.0000
     13 C8        -5.1541    2.1397    9.2124 C.3       1 RES1    0.0000
     14 H5        -5.9623    2.4383    8.7649 H         1 RES1    0.0000
     15 H6        -5.3997    1.5605    9.9509 H         1 RES1    0.0000
     16 C9        -4.2277    1.4175    8.2400 C.3       1 RES1    0.0000
     17 C10       -3.2720    0.4065    8.9546 C.3       1 RES1    0.0000
     18 H7        -3.5336    0.2860    9.8810 H         1 RES1    0.0000
     19 H8        -3.2946   -0.4551    8.5107 H         1 RES1    0.0000
     20 C11       -1.8866    1.0118    8.8717 C.3       1 RES1    0.0000
     21 H9        -1.7831    1.6666    9.5936 H         1 RES1    0.0000
     22 O1        -0.8383    2.5966    7.4342 O.3       1 RES1    0.0000
     23 C12       -0.1696    2.2044    6.1975 C.3       1 RES1    0.0000
     24 H10       -0.7789    2.2962    5.4479 H         1 RES1    0.0000
     25 H11        0.1143    1.2789    6.2509 H         1 RES1    0.0000
     26 C13        1.0026    3.0921    6.0170 C.ar      1 RES1    0.0000
     27 C14        2.2753    2.5678    6.0428 C.ar      1 RES1    0.0000
     28 H12        2.4062    1.6549    6.1606 H         1 RES1    0.0000
     29 C15        3.3727    3.4231    5.8899 C.ar      1 RES1    0.0000
     30 H13        4.2366    3.0759    5.9138 H         1 RES1    0.0000
     31 C16        3.1837    4.7785    5.7020 C.ar      1 RES1    0.0000
     32 H14        3.9176    5.3397    5.5915 H         1 RES1    0.0000
     33 C17        1.9011    5.3002    5.6763 C.ar      1 RES1    0.0000
     34 H15        1.7702    6.2131    5.5584 H         1 RES1    0.0000
     35 C18        0.8184    4.4655    5.8254 C.ar      1 RES1    0.0000
     36 H16       -0.0443    4.8154    5.7997 H         1 RES1    0.0000
     37 C19       -5.0034    0.7087    7.1423 C.2       1 RES1    0.0000
     38 O2        -6.1860    0.6844    7.0373 O.2       1 RES1    0.0000
     39 O3        -4.1799    0.1133    6.2822 O.3       1 RES1    0.0000
     40 C20       -4.7340   -0.7447    5.2582 C.3       1 RES1    0.0000
     41 H17       -4.2867   -0.5783    4.4110 H         1 RES1    0.0000
     42 H18       -5.6787   -0.5585    5.1458 H         1 RES1    0.0000
     43 C21       -4.5406   -2.1685    5.6597 C.3       1 RES1    0.0000
     44 H19       -3.6037   -2.3510    5.7536 H         1 RES1    0.0000
     45 H20       -4.9124   -2.7450    4.9893 H         1 RES1    0.0000
     46 H21       -4.9806   -2.3267    6.4995 H         1 RES1    0.0000
     47 C22       -3.5839    3.1524    6.3614 C.3       1 RES1    0.0000
     48 H22       -2.9444    3.8413    6.1643 H         1 RES1    0.0000
     49 H23       -4.4651    3.5328    6.3982 H         1 RES1    0.0000
     50 H24       -3.5534    2.4823    5.6726 H         1 RES1    0.0000
     51 C23       -0.7188    0.0594    8.8993 C.3       1 RES1    0.0000
     52 H25        0.0976    0.5675    8.7796 H         1 RES1    0.0000
     53 H26       -0.6789   -0.3589    9.7723 H         1 RES1    0.0000
     54 C24       -0.7729   -0.9929    7.8771 C.1       1 RES1    0.0000
     55 N2        -0.8236   -1.8195    7.0815 N.1       1 RES1    0.0000
@<TRIPOS>BOND
     1    1    2 1
     2    2    3 1
     3    3    4 ar
     4    4    5 1
     5    6    4 ar
     6    7    6 1
     7    8    6 ar
     8    9    8 1
     9   10    8 ar
    10   11   10 1
    11   12    3 ar
    12   13   12 1
    13   14   13 1
    14   15   13 1
    15   16    2 1
    16   17   16 1
    17   18   17 1
    18   19   17 1
    19   20    1 1
    20   21   20 1
    21   22    1 1
    22   23   22 1
    23   24   23 1
    24   25   23 1
    25   26   23 1
    26   27   26 ar
    27   28   27 1
    28   29   27 ar
    29   30   29 1
    30   31   29 ar
    31   32   31 1
    32   33   31 ar
    33   34   33 1
    34   35   26 ar
    35   36   35 1
    36   37   16 1
    37   38   37 2
    38   39   37 1
    39   40   39 1
    40   41   40 1
    41   42   40 1
    42   43   40 1
    43   44   43 1
    44   45   43 1
    45   46   43 1
    46   47    2 1
    47   48   47 1
    48   49   47 1
    49   50   47 1
    50   51   20 1
    51   52   51 1
    52   53   51 1
    53   54   51 1
    54   55   54 3
    55   10   12 ar
    56   13   16 1
    57   17   20 1
    58   33   35 ar
@<TRIPOS>SUBSTRUCTURE
     1 RES1 1

@<TRIPOS>CRYSIN
  24.7030    8.9940   21.9700  90.0000 123.0390  90.0000  15 1

