# MOL2 file generated by ConQuest
# Please check atom types

@<TRIPOS>MOLECULE
LAHVIB
    48    42     2
SMALL
NO_CHARGES
****
Generated from CSD

@<TRIPOS>ATOM
      1 N1         4.4198    2.4997    7.9198 N.pl3     1 RES1    0.0000
      2 N2         4.9738    1.3252    7.4286 N.2       1 RES1    0.0000
      3 C1         5.6375    0.8214    8.4637 C.2       1 RES1    0.0000
      4 C2         5.4993    1.6281    9.6106 C.2       1 RES1    0.0000
      5 H1         5.8741    1.4688   10.4691 H         1 RES1    0.0000
      6 C3         4.7180    2.6893    9.2356 C.2       1 RES1    0.0000
      7 C4         3.6176    3.3055    7.0810 C.ar      1 RES1    0.0000
      8 C5         2.5329    2.7827    6.3661 C.ar      1 RES1    0.0000
      9 C6         1.8477    3.5462    5.4495 C.ar      1 RES1    0.0000
     10 H2         1.1412    3.1636    4.9440 H         1 RES1    0.0000
     11 C7         2.1925    4.8730    5.2663 C.ar      1 RES1    0.0000
     12 C8         3.2198    5.4253    6.0207 C.ar      1 RES1    0.0000
     13 H3         3.4297    6.3471    5.9297 H         1 RES1    0.0000
     14 C9         3.9376    4.6428    6.9034 C.ar      1 RES1    0.0000
     15 H4         4.6563    5.0245    7.3924 H         1 RES1    0.0000
     16 C10        6.3630   -0.4934    8.3672 C.3       1 RES1    0.0000
     17 C11        6.4008   -1.0075    6.9330 C.3       1 RES1    0.0000
     18 H5         5.4875   -1.1797    6.6238 H         1 RES1    0.0000
     19 H6         6.9212   -1.8376    6.8979 H         1 RES1    0.0000
     20 H7         6.8216   -0.3350    6.3562 H         1 RES1    0.0000
     21 C12        5.6410   -1.4922    9.2750 C.3       1 RES1    0.0000
     22 H8         5.6263   -1.1486   10.1928 H         1 RES1    0.0000
     23 H9         6.1116   -2.3517    9.2564 H         1 RES1    0.0000
     24 H10        4.7215   -1.6168    8.9582 H         1 RES1    0.0000
     25 C13        7.8100   -0.3376    8.8737 C.3       1 RES1    0.0000
     26 H11        8.2983    0.2718    8.2827 H         1 RES1    0.0000
     27 H12        8.2502   -1.2126    8.8781 H         1 RES1    0.0000
     28 H13        7.7991    0.0277    9.7827 H         1 RES1    0.0000
     29 N3         4.2946    3.7937    9.9351 N.3       1 RES1    0.0000
     30 H14        3.8132    4.4108    9.5327 H         1 RES1    0.0000
     31 H15        4.5051    3.8837   10.7838 H         1 RES1    0.0000
     32 N4         2.0504    1.4342    6.6315 N.pl3     1 RES1    0.0000
     33 O1         1.5818    0.8006    5.6885 O.2       1 RES1    0.0000
     34 O2         2.0918    1.0144    7.7762 O.2       1 RES1    0.0000
     35 C14        1.4603    5.6988    4.2762 C.2       1 RES1    0.0000
     36 O3         0.5568    5.2149    3.6611 O.2       1 RES1    0.0000
     37 O4         1.8853    6.9097    4.0197 O.3       1 RES1    0.0000
     38 C15        0.9840    7.6272    3.1545 C.3       1 RES1    0.0000
     39 H16        0.7399    7.0594    2.3936 H         1 RES1    0.0000
     40 H17        1.4254    8.4400    2.8267 H         1 RES1    0.0000
     41 H18        0.1772    7.8722    3.6523 H         1 RES1    0.0000
     42 C16        1.4603    5.6988    4.2762 Du        2 SUP2    0.0000
     43 C17        0.0217    5.8624    2.6096 Du        2 SUP2    0.0000
     44 H19        0.0776    6.8404    2.6348 Du        2 SUP2    0.0000
     45 H20       -0.8502    5.5940    2.2532 Du        2 SUP2    0.0000
     46 H21        0.7327    5.5092    2.0340 Du        2 SUP2    0.0000
     47 O5         2.0972    6.6613    3.7839 Du        2 SUP2    0.0000
     48 O6         0.1841    5.3205    3.9857 Du        2 SUP2    0.0000
@<TRIPOS>BOND
     1    1    2 1
     2    2    3 2
     3    3    4 1
     4    4    5 1
     5    6    1 1
     6    7    1 1
     7    8    7 ar
     8    9    8 ar
     9   10    9 1
    10   11    9 ar
    11   12   11 ar
    12   13   12 1
    13   14    7 ar
    14   15   14 1
    15   16    3 1
    16   17   16 1
    17   18   17 1
    18   19   17 1
    19   20   17 1
    20   21   16 1
    21   22   21 1
    22   23   21 1
    23   24   21 1
    24   25   16 1
    25   26   25 1
    26   27   25 1
    27   28   25 1
    28   29    6 1
    29   30   29 1
    30   31   29 1
    31   32    8 1
    32   33   32 2
    33   34   32 2
    34   35   11 1
    35   36   35 2
    36   37   35 1
    37   38   37 1
    38   39   38 1
    39   40   38 1
    40   41   38 1
    41    4    6 2
    42   12   14 ar
@<TRIPOS>SUBSTRUCTURE
     1 RES1 1
     2 SUP2 42

@<TRIPOS>CRYSIN
  16.3111    8.6555   10.9773  90.0000  92.7450  90.0000  14 1

