# MOL2 file generated by ConQuest
# Please check atom types

@<TRIPOS>MOLECULE
LAJBON
    19    20     1
SMALL
NO_CHARGES
****
Generated from CSD

@<TRIPOS>ATOM
      1 N1         0.2932    1.5963    8.7959 N.3       1 RES1    0.0000
      2 C1         0.2312    2.7011    9.7531 C.3       1 RES1    0.0000
      3 N2         0.2886    3.8517    8.7974 N.pl3     1 RES1    0.0000
      4 C2         0.3403    3.5155    7.5288 C.2       1 RES1    0.0000
      5 C3         0.3630    2.0055    7.3730 C.3       1 RES1    0.0000
      6 C4        -1.0990    2.7211   10.5015 C.3       1 RES1    0.0000
      7 C5         1.4256    2.7368   10.6679 C.3       1 RES1    0.0000
      8 C6         0.3314    4.4394    6.3917 C.ar      1 RES1    0.0000
      9 C7         0.2800    5.8315    6.5519 C.ar      1 RES1    0.0000
     10 C8         0.2100    6.6524    5.4360 C.ar      1 RES1    0.0000
     11 C9         0.2033    6.1170    4.1658 C.ar      1 RES1    0.0000
     12 C10        0.2815    4.7556    4.0040 C.ar      1 RES1    0.0000
     13 C11        0.3420    3.9106    5.1094 C.ar      1 RES1    0.0000
     14 C12       -1.9948    1.8071    7.0192 C.3       1 RES1    0.0000
     15 C13        2.7424    1.8420    7.2672 C.3       1 RES1    0.0000
     16 O1         0.2928    0.3827    9.1467 O.2       1 RES1    0.0000
     17 O2         0.2692    5.0155    9.3055 O.2       1 RES1    0.0000
     18 O3        -0.6622    1.4535    6.6260 O.3       1 RES1    0.0000
     19 O4         1.4779    1.4867    6.7319 O.3       1 RES1    0.0000
@<TRIPOS>BOND
     1    1    2 1
     2    2    3 1
     3    3    4 2
     4    4    5 1
     5    5    1 1
     6    6    2 1
     7    7    2 1
     8    8    4 1
     9    9    8 ar
    10   10    9 ar
    11   11   10 ar
    12   12   11 ar
    13   13    8 ar
    14   14   18 1
    15   15   19 1
    16   16    1 1
    17   17    3 1
    18   18    5 1
    19   19    5 1
    20   12   13 ar
@<TRIPOS>SUBSTRUCTURE
     1 RES1 1

@<TRIPOS>CRYSIN
  10.5130    8.3010   15.7910  90.0000 106.7500  90.0000 231 1

