# MOL2 file generated by ConQuest
# Please check atom types

@<TRIPOS>MOLECULE
LAKFUY
    48    48     1
SMALL
NO_CHARGES
****
Generated from CSD

@<TRIPOS>ATOM
      1 O1         6.4460    8.9554   20.3915 O.3       1 RES1    0.0000
      2 O2         8.3862    7.9022   20.2723 O.2       1 RES1    0.0000
      3 O3         3.3584    7.8461   23.8548 O.2       1 RES1    0.0000
      4 O4         1.5739    7.4186   22.8775 O.2       1 RES1    0.0000
      5 O5         2.8167    4.8572   17.5787 O.2       1 RES1    0.0000
      6 O6         1.1726    5.6125   18.7297 O.2       1 RES1    0.0000
      7 O7         6.0869    4.2016   16.1848 O.2       1 RES1    0.0000
      8 N1         5.6271    6.9823   22.8605 N.3       1 RES1    0.0000
      9 N2         2.7618    7.3961   22.8979 N.pl3     1 RES1    0.0000
     10 N3         2.3712    5.3919   18.5867 N.pl3     1 RES1    0.0000
     11 N4         5.2698    4.8834   18.5867 N.3       1 RES1    0.0000
     12 N5         8.2584    4.5494   16.6524 N.am      1 RES1    0.0000
     13 C1         7.5133    8.4132   20.9194 C.2       1 RES1    0.0000
     14 C2         7.5763    8.4444   22.4280 C.3       1 RES1    0.0000
     15 C3         7.0777    7.0621   22.9286 C.3       1 RES1    0.0000
     16 C4         7.5034    6.7842   24.3622 C.3       1 RES1    0.0000
     17 C5         7.1812    5.4056   24.8322 C.3       1 RES1    0.0000
     18 C6         6.8428    9.6172   23.0750 C.3       1 RES1    0.0000
     19 C7         4.8739    6.5648   21.8252 C.ar      1 RES1    0.0000
     20 C8         3.4529    6.7779   21.8150 C.ar      1 RES1    0.0000
     21 C9         2.7087    6.3741   20.7423 C.ar      1 RES1    0.0000
     22 C10        3.2594    5.7721   19.6594 C.ar      1 RES1    0.0000
     23 C11        4.6687    5.4904   19.6253 C.ar      1 RES1    0.0000
     24 C12        5.4084    5.9054   20.7287 C.ar      1 RES1    0.0000
     25 C13        6.6935    4.6104   18.4641 C.3       1 RES1    0.0000
     26 C14        6.9868    4.4447   16.9929 C.2       1 RES1    0.0000
     27 C15        7.0984    3.3715   19.2439 C.3       1 RES1    0.0000
     28 H1         6.3173    8.6999   19.5811 H         1 RES1    0.0000
     29 H2         5.2104    7.3288   23.4292 H         1 RES1    0.0000
     30 H3         4.8325    4.6740   17.9465 H         1 RES1    0.0000
     31 H4         8.5131    4.3873   15.9032 H         1 RES1    0.0000
     32 H5         8.9090    4.8984   17.1632 H         1 RES1    0.0000
     33 H6         8.5212    8.5179   22.6766 H         1 RES1    0.0000
     34 H7         7.4557    6.3666   22.3530 H         1 RES1    0.0000
     35 H8         8.4726    6.9150   24.4269 H         1 RES1    0.0000
     36 H9         7.0480    7.4236   24.9480 H         1 RES1    0.0000
     37 H10        6.2147    5.2573   24.7845 H         1 RES1    0.0000
     38 H11        7.6402    4.7488   24.2669 H         1 RES1    0.0000
     39 H12        7.4818    5.2960   25.7619 H         1 RES1    0.0000
     40 H13        6.9868    9.5998   24.0421 H         1 RES1    0.0000
     41 H14        7.1875   10.4598   22.7072 H         1 RES1    0.0000
     42 H15        5.8844    9.5487   22.8843 H         1 RES1    0.0000
     43 H16        1.7404    6.5274   20.7593 H         1 RES1    0.0000
     44 H17        6.3704    5.7210   20.7287 H         1 RES1    0.0000
     45 H18        7.1956    5.3795   18.8046 H         1 RES1    0.0000
     46 H19        6.8581    3.4874   20.1872 H         1 RES1    0.0000
     47 H20        6.6314    2.5900   18.8829 H         1 RES1    0.0000
     48 H21        8.0658    3.2394   19.1656 H         1 RES1    0.0000
@<TRIPOS>BOND
     1    1   13 1
     2    2   13 2
     3    3    9 2
     4    4    9 2
     5    5   10 2
     6    6   10 2
     7    7   26 2
     8    8   15 1
     9    9   20 1
    10   10   22 1
    11   11   23 1
    12   12   26 1
    13   13   14 1
    14   14   15 1
    15   15   16 1
    16   16   17 1
    17   17   37 1
    18   18   14 1
    19   19    8 1
    20   20   19 ar
    21   21   20 ar
    22   22   21 ar
    23   23   22 ar
    24   24   19 ar
    25   25   11 1
    26   26   25 1
    27   27   25 1
    28   28    1 1
    29   29    8 1
    30   30   11 1
    31   31   12 1
    32   32   12 1
    33   33   14 1
    34   34   15 1
    35   35   16 1
    36   36   16 1
    37   38   17 1
    38   39   17 1
    39   40   18 1
    40   41   18 1
    41   42   18 1
    42   43   21 1
    43   44   24 1
    44   45   25 1
    45   46   27 1
    46   47   27 1
    47   48   27 1
    48   23   24 ar
@<TRIPOS>SUBSTRUCTURE
     1 RES1 1

@<TRIPOS>CRYSIN
   8.9990   12.4640   34.0540  90.0000  90.0000  90.0000  20 1

