# MOL2 file generated by ConQuest
# Please check atom types

@<TRIPOS>MOLECULE
LALYUS
    58    60     1
SMALL
NO_CHARGES
****
Generated from CSD

@<TRIPOS>ATOM
      1 C1         3.0893    7.1971    2.6796 C.2       1 RES1    0.0000
      2 C2         4.0292    8.0702    2.2351 C.2       1 RES1    0.0000
      3 C3         5.0269    7.3717    1.3359 C.3       1 RES1    0.0000
      4 C4         4.5466    5.9355    1.2691 C.3       1 RES1    0.0000
      5 C5         3.3102    5.8042    2.1529 C.3       1 RES1    0.0000
      6 C6         2.0578    7.6167    3.5608 C.2       1 RES1    0.0000
      7 C7         5.1052   10.3063    2.0039 C.3       1 RES1    0.0000
      8 C8         4.8027   10.6488    0.5472 C.ar      1 RES1    0.0000
      9 C9         5.8205   10.6989   -0.3854 C.ar      1 RES1    0.0000
     10 C10        5.5696   11.0562   -1.6776 C.ar      1 RES1    0.0000
     11 C11        4.3086   11.3513   -2.1015 C.ar      1 RES1    0.0000
     12 C12        3.2881   11.2741   -1.2049 C.ar      1 RES1    0.0000
     13 C13        3.5081   10.9032    0.1207 C.ar      1 RES1    0.0000
     14 C14        5.2186   11.5394    2.9237 C.3       1 RES1    0.0000
     15 C15        3.8858   12.2839    3.0598 C.3       1 RES1    0.0000
     16 C16        5.6763   11.0806    4.2981 C.3       1 RES1    0.0000
     17 C17        6.2342   12.5127    2.3559 C.3       1 RES1    0.0000
     18 C18        0.1518    6.9453    4.8068 C.3       1 RES1    0.0000
     19 C19       -0.6615    5.7000    5.0817 C.ar      1 RES1    0.0000
     20 C20       -0.2088    4.4412    4.7580 C.ar      1 RES1    0.0000
     21 C21       -0.9767    3.3326    5.0252 C.ar      1 RES1    0.0000
     22 C22       -2.2179    3.5112    5.5853 C.ar      1 RES1    0.0000
     23 C23       -2.7141    4.7741    5.9167 C.ar      1 RES1    0.0000
     24 C24       -1.9086    5.8543    5.6675 C.ar      1 RES1    0.0000
     25 N1         4.1357    9.3764    2.5434 N.3       1 RES1    0.0000
     26 N2        -3.0798    2.3431    5.7856 N.pl3     1 RES1    0.0000
     27 O1         1.8949    8.7429    4.0001 O.2       1 RES1    0.0000
     28 O2         1.2189    6.6069    3.9051 O.3       1 RES1    0.0000
     29 O3        -2.6153    1.2372    5.5339 O.2       1 RES1    0.0000
     30 O4        -4.2402    2.5109    6.1762 O.2       1 RES1    0.0000
     31 H1         5.0345    7.7850    0.4257 H         1 RES1    0.0000
     32 H2         5.9451    7.4173    1.7306 H         1 RES1    0.0000
     33 H3         4.3147    5.6992    0.3252 H         1 RES1    0.0000
     34 H4         5.2632    5.3203    1.5995 H         1 RES1    0.0000
     35 H5         3.4749    5.1629    2.9021 H         1 RES1    0.0000
     36 H6         2.5236    5.4958    1.6170 H         1 RES1    0.0000
     37 H7         6.0033    9.8660    1.9841 H         1 RES1    0.0000
     38 H8         6.7542   10.4679   -0.1128 H         1 RES1    0.0000
     39 H9         6.3253   11.1018   -2.3317 H         1 RES1    0.0000
     40 H10        4.1379   11.6267   -3.0465 H         1 RES1    0.0000
     41 H11        2.3576   11.4783   -1.5081 H         1 RES1    0.0000
     42 H12        2.7399   10.8243    0.7551 H         1 RES1    0.0000
     43 H13        3.1964   11.6642    3.4357 H         1 RES1    0.0000
     44 H14        3.5901   12.6050    2.1604 H         1 RES1    0.0000
     45 H15        4.0001   13.0659    3.6723 H         1 RES1    0.0000
     46 H16        5.0042   10.4422    4.6737 H         1 RES1    0.0000
     47 H17        5.7591   11.8720    4.9024 H         1 RES1    0.0000
     48 H18        6.5628   10.6240    4.2218 H         1 RES1    0.0000
     49 H19        7.1153   12.0502    2.2570 H         1 RES1    0.0000
     50 H20        6.3347   13.2938    2.9714 H         1 RES1    0.0000
     51 H21        5.9246   12.8331    1.4593 H         1 RES1    0.0000
     52 H22        0.5318    7.2974    5.6618 H         1 RES1    0.0000
     53 H23       -0.4312    7.6428    4.3891 H         1 RES1    0.0000
     54 H24        0.6864    4.3302    4.3277 H         1 RES1    0.0000
     55 H25       -0.6406    2.4140    4.8138 H         1 RES1    0.0000
     56 H26       -3.6224    4.8846    6.3203 H         1 RES1    0.0000
     57 H27       -2.2281    6.7703    5.9085 H         1 RES1    0.0000
     58 H28        3.5664    9.7121    3.2499 H         1 RES1    0.0000
@<TRIPOS>BOND
     1    1    2 2
     2    2    3 1
     3    3    4 1
     4    4    5 1
     5    5    1 1
     6    6    1 1
     7    7    8 1
     8    8    9 ar
     9    9   10 ar
    10   10   11 ar
    11   11   12 ar
    12   12   13 ar
    13   13    8 ar
    14   14    7 1
    15   15   14 1
    16   16   14 1
    17   17   14 1
    18   18   19 1
    19   19   20 ar
    20   20   21 ar
    21   21   22 ar
    22   22   23 ar
    23   23   24 ar
    24   24   19 ar
    25   25    2 1
    26   26   22 1
    27   27    6 2
    28   28    6 1
    29   29   26 2
    30   30   26 2
    31   31    3 1
    32   32    3 1
    33   33    4 1
    34   34    4 1
    35   35    5 1
    36   36    5 1
    37   37    7 1
    38   38    9 1
    39   39   10 1
    40   40   11 1
    41   41   12 1
    42   42   13 1
    43   43   15 1
    44   44   15 1
    45   45   15 1
    46   46   16 1
    47   47   16 1
    48   48   16 1
    49   49   17 1
    50   50   17 1
    51   51   17 1
    52   52   18 1
    53   53   18 1
    54   54   20 1
    55   55   21 1
    56   56   23 1
    57   57   24 1
    58   58   25 1
    59    7   25 1
    60   18   28 1
@<TRIPOS>SUBSTRUCTURE
     1 RES1 1

@<TRIPOS>CRYSIN
   6.3630   13.5360   25.7030  90.0000  91.7400  90.0000  14 1

