# MOL2 file generated by ConQuest
# Please check atom types

@<TRIPOS>MOLECULE
LALYIJ
    55    59     1
SMALL
NO_CHARGES
****
Generated from CSD

@<TRIPOS>ATOM
      1 O1         3.2338    4.5366    4.3267 O.2       1 RES1    0.0000
      2 O2         2.5898    5.8191    5.9402 O.2       1 RES1    0.0000
      3 O3         7.3013   10.1314    3.1649 O.2       1 RES1    0.0000
      4 O4         3.6363   11.6041   -0.0478 O.2       1 RES1    0.0000
      5 O5         2.6529    9.6354    0.3678 O.3       1 RES1    0.0000
      6 O6         5.9081   13.5313    1.5851 O.2       1 RES1    0.0000
      7 O7         6.3633   11.4964    0.7756 O.3       1 RES1    0.0000
      8 N1         3.0601    5.6457    4.8235 N.pl3     1 RES1    0.0000
      9 N2         7.5915    8.4836    1.5858 N.am      1 RES1    0.0000
     10 C1         7.2135    4.3777    4.5102 C.ar      1 RES1    0.0000
     11 H1         6.8976    3.6521    4.9988 H         1 RES1    0.0000
     12 C2         8.1354    4.1890    3.5057 C.ar      1 RES1    0.0000
     13 H2         8.4495    3.3341    3.3172 H         1 RES1    0.0000
     14 C3         8.5962    5.2728    2.7738 C.ar      1 RES1    0.0000
     15 H3         9.2164    5.1363    2.0940 H         1 RES1    0.0000
     16 C4         8.1442    6.5594    3.0411 C.ar      1 RES1    0.0000
     17 C5         7.2236    6.7382    4.0658 C.ar      1 RES1    0.0000
     18 H4         6.9183    7.5938    4.2659 H         1 RES1    0.0000
     19 C6         6.7586    5.6603    4.7898 C.ar      1 RES1    0.0000
     20 H5         6.1370    5.7929    5.4688 H         1 RES1    0.0000
     21 C7         3.8730    6.6468    2.7314 C.ar      1 RES1    0.0000
     22 H6         3.9318    5.7941    2.3653 H         1 RES1    0.0000
     23 C8         3.4437    6.8285    4.0362 C.ar      1 RES1    0.0000
     24 C9         3.3523    8.0769    4.6003 C.ar      1 RES1    0.0000
     25 H7         3.0533    8.1782    5.4753 H         1 RES1    0.0000
     26 C10        3.7124    9.1835    3.8505 C.ar      1 RES1    0.0000
     27 H8         3.6527   10.0319    4.2264 H         1 RES1    0.0000
     28 C11        4.1631    9.0403    2.5368 C.ar      1 RES1    0.0000
     29 C12        4.2100    7.7530    1.9885 C.ar      1 RES1    0.0000
     30 H9         4.4751    7.6440    1.1036 H         1 RES1    0.0000
     31 C13        6.1685    9.1912   -0.0831 C.ar      1 RES1    0.0000
     32 C14        7.0757    8.2163    0.2838 C.ar      1 RES1    0.0000
     33 C15        7.4125    7.1625   -0.5427 C.ar      1 RES1    0.0000
     34 H10        8.0229    6.5125   -0.2788 H         1 RES1    0.0000
     35 C16        6.7916    7.1210   -1.7940 C.ar      1 RES1    0.0000
     36 H11        7.0012    6.4326   -2.3835 H         1 RES1    0.0000
     37 C17        5.8723    8.0828   -2.1748 C.ar      1 RES1    0.0000
     38 H12        5.4657    8.0250   -3.0095 H         1 RES1    0.0000
     39 C18        5.5514    9.1324   -1.3252 C.ar      1 RES1    0.0000
     40 H13        4.9365    9.7809   -1.5822 H         1 RES1    0.0000
     41 C19        3.5642   10.5811    0.5775 C.2       1 RES1    0.0000
     42 C20        8.6584    7.7369    2.2509 C.3       1 RES1    0.0000
     43 H14        9.1376    8.3340    2.8471 H         1 RES1    0.0000
     44 H15        9.2855    7.4200    1.5833 H         1 RES1    0.0000
     45 C21        7.0277    9.6018    2.1027 C.2       1 RES1    0.0000
     46 C22        1.7305    9.9476   -0.7162 C.3       1 RES1    0.0000
     47 H16        2.2277   10.1259   -1.5181 H         1 RES1    0.0000
     48 H17        1.2124   10.7219   -0.4829 H         1 RES1    0.0000
     49 H18        1.1440    9.2016   -0.8622 H         1 RES1    0.0000
     50 C23        4.5578   10.2530    1.7173 C.3       1 RES1    0.0000
     51 C24        5.9825   10.1365    1.0798 C.3       1 RES1    0.0000
     52 C25        5.6797   12.3540    1.6169 C.2       1 RES1    0.0000
     53 C26        4.7297   11.5853    2.4799 C.3       1 RES1    0.0000
     54 H19        3.8828   12.0504    2.5672 H         1 RES1    0.0000
     55 H20        5.1025   11.4364    3.3631 H         1 RES1    0.0000
@<TRIPOS>BOND
     1    1    8 2
     2    2    8 2
     3    3   45 2
     4    4   41 2
     5    5   41 1
     6    6   52 2
     7    7   51 1
     8    8   23 1
     9    9   32 1
    10   10   11 1
    11   12   10 ar
    12   13   12 1
    13   14   12 ar
    14   15   14 1
    15   16   14 ar
    16   17   16 ar
    17   18   17 1
    18   19   10 ar
    19   20   19 1
    20   21   22 1
    21   23   21 ar
    22   24   23 ar
    23   25   24 1
    24   26   24 ar
    25   27   26 1
    26   28   26 ar
    27   29   21 ar
    28   30   29 1
    29   31   32 ar
    30   32   33 ar
    31   33   34 1
    32   35   33 ar
    33   36   35 1
    34   37   35 ar
    35   38   37 1
    36   39   31 ar
    37   40   39 1
    38   41   50 1
    39   42    9 1
    40   43   42 1
    41   44   42 1
    42   45    9 1
    43   46    5 1
    44   47   46 1
    45   48   46 1
    46   49   46 1
    47   50   28 1
    48   51   31 1
    49   52    7 1
    50   53   50 1
    51   54   53 1
    52   55   53 1
    53   16   42 1
    54   17   19 ar
    55   28   29 ar
    56   37   39 ar
    57   45   51 1
    58   50   51 1
    59   52   53 1
@<TRIPOS>SUBSTRUCTURE
     1 RES1 1

@<TRIPOS>CRYSIN
   8.2334   12.8730   11.1784  90.0000 107.1140  90.0000   4 1

