# MOL2 file generated by ConQuest
# Please check atom types

@<TRIPOS>MOLECULE
LAMFAI
    42    46     1
SMALL
NO_CHARGES
****
Generated from CSD

@<TRIPOS>ATOM
      1 N1         4.6897    6.0049    9.9844 N.3       1 RES1    0.0000
      2 C1         3.8307    4.8005    9.7901 C.3       1 RES1    0.0000
      3 H1         3.6167    4.7019    8.8187 H         1 RES1    0.0000
      4 C2         4.7372    3.6347   10.2310 C.3       1 RES1    0.0000
      5 H2         4.2486    3.0083   10.8220 H         1 RES1    0.0000
      6 H3         5.0837    3.1373    9.4482 H         1 RES1    0.0000
      7 C3         5.8643    4.3292   10.9819 C.3       1 RES1    0.0000
      8 H4         6.0519    3.8668   11.8482 H         1 RES1    0.0000
      9 C4         7.1192    4.4501   10.1543 C.3       1 RES1    0.0000
     10 H5         7.8573    4.7978   10.7148 H         1 RES1    0.0000
     11 H6         7.3819    3.5585    9.8127 H         1 RES1    0.0000
     12 C5         6.8708    5.3821    9.0019 C.ar      1 RES1    0.0000
     13 C6         7.7871    5.5622    7.9871 C.ar      1 RES1    0.0000
     14 H7         8.5967    5.0649    8.0116 H         1 RES1    0.0000
     15 C7         7.5766    6.4386    6.9328 C.ar      1 RES1    0.0000
     16 C8         8.5931    6.5981    5.8544 C.3       1 RES1    0.0000
     17 H8         9.4208    6.1447    6.1155 H         1 RES1    0.0000
     18 H9         8.7725    7.5516    5.7143 H         1 RES1    0.0000
     19 H10        8.2525    6.2038    5.0235 H         1 RES1    0.0000
     20 C9         6.3931    7.1546    6.9256 C.ar      1 RES1    0.0000
     21 H11        6.2225    7.7622    6.2151 H         1 RES1    0.0000
     22 C10        5.4587    7.0095    7.9214 C.ar      1 RES1    0.0000
     23 H12        4.6561    7.5176    7.9013 H         1 RES1    0.0000
     24 C11        5.6928    6.1169    8.9584 C.ar      1 RES1    0.0000
     25 O1         5.3672    5.6669   11.2100 O.3       1 RES1    0.0000
     26 C12        2.5579    5.0075   10.5598 C.ar      1 RES1    0.0000
     27 C13        2.3515    4.4492   11.7848 C.ar      1 RES1    0.0000
     28 H13        3.0321    3.9089   12.1683 H         1 RES1    0.0000
     29 C14        1.1589    4.6500   12.4957 C.ar      1 RES1    0.0000
     30 H14        1.0376    4.2342   13.3414 H         1 RES1    0.0000
     31 C15        0.1798    5.4332   11.9866 C.ar      1 RES1    0.0000
     32 H15       -0.6272    5.5542   12.4731 H         1 RES1    0.0000
     33 C16        0.3469    6.0721   10.7384 C.ar      1 RES1    0.0000
     34 C17       -0.6374    6.9288   10.2269 C.ar      1 RES1    0.0000
     35 H16       -1.4393    7.0641   10.7163 H         1 RES1    0.0000
     36 C18       -0.4605    7.5668    9.0416 C.ar      1 RES1    0.0000
     37 H17       -1.1349    8.1466    8.7054 H         1 RES1    0.0000
     38 C19        0.7203    7.3643    8.3204 C.ar      1 RES1    0.0000
     39 H18        0.8458    7.8160    7.4939 H         1 RES1    0.0000
     40 C20        1.6891    6.5336    8.7812 C.ar      1 RES1    0.0000
     41 H19        2.4749    6.4010    8.2643 H         1 RES1    0.0000
     42 C21        1.5483    5.8633   10.0164 C.ar      1 RES1    0.0000
@<TRIPOS>BOND
     1    1    2 1
     2    2    3 1
     3    4    2 1
     4    5    4 1
     5    6    4 1
     6    7    4 1
     7    8    7 1
     8    9    7 1
     9   10    9 1
    10   11    9 1
    11   12    9 1
    12   13   12 ar
    13   14   13 1
    14   15   13 ar
    15   16   15 1
    16   17   16 1
    17   18   16 1
    18   19   16 1
    19   20   15 ar
    20   21   20 1
    21   22   20 ar
    22   23   22 1
    23   24    1 1
    24   25    1 1
    25   26    2 1
    26   27   26 ar
    27   28   27 1
    28   29   27 ar
    29   30   29 1
    30   31   29 ar
    31   32   31 1
    32   33   31 ar
    33   34   33 ar
    34   35   34 1
    35   36   34 ar
    36   37   36 1
    37   38   36 ar
    38   39   38 1
    39   40   38 ar
    40   41   40 1
    41   42   26 ar
    42    7   25 1
    43   12   24 ar
    44   22   24 ar
    45   33   42 ar
    46   40   42 ar
@<TRIPOS>SUBSTRUCTURE
     1 RES1 1

@<TRIPOS>CRYSIN
  10.7760    8.9612   15.4241  90.0000  96.7990  90.0000  14 1

