# MOL2 file generated by ConQuest
# Please check atom types

@<TRIPOS>MOLECULE
LANFIR
    36    37     1
SMALL
NO_CHARGES
****
Generated from CSD

@<TRIPOS>ATOM
      1 N1         4.7296    4.6153    3.6090 N.pl3     1 RES1    0.0000
      2 N2         4.7784    1.2978    6.3101 N.2       1 RES1    0.0000
      3 N3         5.8833    1.0149    7.0716 N.am      1 RES1    0.0000
      4 O1         5.8512    4.1937    3.8346 O.2       1 RES1    0.0000
      5 O2         4.5325    5.7275    3.1227 O.2       1 RES1    0.0000
      6 O3         0.2567    1.4509    4.5595 O.3       1 RES1    0.0000
      7 H1        -0.2586    1.4610    3.9223 H         1 RES1    0.0000
      8 O4         4.9149   -0.8899    7.7832 O.2       1 RES1    0.0000
      9 O5         6.0344   -2.3761    9.5303 O.3       1 RES1    0.0000
     10 H2         5.4113   -2.0696    9.0957 H         1 RES1    0.0000
     11 C1         3.6320    2.7303    4.8386 C.ar      1 RES1    0.0000
     12 C2         3.5717    3.7789    3.8975 C.ar      1 RES1    0.0000
     13 C3         2.4188    4.0463    3.1904 C.ar      1 RES1    0.0000
     14 H3         2.4020    4.7539    2.5872 H         1 RES1    0.0000
     15 C4         1.2944    3.2784    3.3658 C.ar      1 RES1    0.0000
     16 H4         0.5253    3.4508    2.8737 H         1 RES1    0.0000
     17 C5         1.3223    2.2417    4.2898 C.ar      1 RES1    0.0000
     18 C6         2.4727    1.9961    5.0155 C.ar      1 RES1    0.0000
     19 H5         2.4672    1.3121    5.6457 H         1 RES1    0.0000
     20 C7         4.8008    2.3874    5.6603 C.2       1 RES1    0.0000
     21 H6         5.5379    2.9534    5.7028 H         1 RES1    0.0000
     22 C8         5.8993   -0.1355    7.7865 C.2       1 RES1    0.0000
     23 C9         7.1128   -0.4498    8.5558 C.ar      1 RES1    0.0000
     24 C10        7.1074   -1.5761    9.4009 C.ar      1 RES1    0.0000
     25 C11        8.2457   -1.9373   10.1359 C.ar      1 RES1    0.0000
     26 C12        9.3774   -1.1676    9.9958 C.ar      1 RES1    0.0000
     27 H7        10.1418   -1.3969   10.4713 H         1 RES1    0.0000
     28 C13        9.4061   -0.0543    9.1590 C.ar      1 RES1    0.0000
     29 H8        10.1844    0.4483    9.0770 H         1 RES1    0.0000
     30 C14        8.2879    0.2929    8.4624 C.ar      1 RES1    0.0000
     31 H9         8.3098    1.0418    7.9111 H         1 RES1    0.0000
     32 C15        8.2151   -3.1530   11.0112 C.3       1 RES1    0.0000
     33 H10        9.0311   -3.2057   11.5147 H         1 RES1    0.0000
     34 H11        8.1244   -3.9385   10.4661 H         1 RES1    0.0000
     35 H12        7.4703   -3.0951   11.6143 H         1 RES1    0.0000
     36 H13        6.6024    1.5339    7.0494 H         1 RES1    0.0000
@<TRIPOS>BOND
     1    1    4 2
     2    2    3 1
     3    3   22 1
     4    5    1 2
     5    6    7 1
     6    8   22 2
     7    9   10 1
     8   11   12 ar
     9   12    1 1
    10   13   12 ar
    11   14   13 1
    12   15   13 ar
    13   16   15 1
    14   17    6 1
    15   18   11 ar
    16   19   18 1
    17   20    2 2
    18   21   20 1
    19   22   23 1
    20   23   24 ar
    21   24    9 1
    22   25   24 ar
    23   26   25 ar
    24   27   26 1
    25   28   26 ar
    26   29   28 1
    27   30   23 ar
    28   31   30 1
    29   32   25 1
    30   33   32 1
    31   34   32 1
    32   35   32 1
    33   36    3 1
    34   11   20 1
    35   15   17 ar
    36   17   18 ar
    37   28   30 ar
@<TRIPOS>SUBSTRUCTURE
     1 RES1 1

@<TRIPOS>CRYSIN
   7.6430    9.0550   10.8760  84.8650  72.7320  77.4790   2 1

