# MOL2 file generated by ConQuest
# Please check atom types

@<TRIPOS>MOLECULE
LANHIR
    35    37     1
SMALL
NO_CHARGES
****
Generated from CSD

@<TRIPOS>ATOM
      1 N1         9.1856    7.6954    1.4175 N.pl3     1 RES1    0.0000
      2 N2         0.9018   11.1561    1.3187 N.pl3     1 RES1    0.0000
      3 O1        -0.1759   10.7066    1.6687 O.2       1 RES1    0.0000
      4 O2         1.0264   12.2652    0.8156 O.2       1 RES1    0.0000
      5 C1         9.5679    8.9461    0.7860 C.3       1 RES1    0.0000
      6 H1        10.4867    8.8985    0.5114 H         1 RES1    0.0000
      7 H2         9.4588    9.6661    1.4100 H         1 RES1    0.0000
      8 H3         9.0118    9.0997    0.0190 H         1 RES1    0.0000
      9 C2         7.9089    7.3170    1.8161 C.2       1 RES1    0.0000
     10 C3         7.9830    6.0669    2.3759 C.2       1 RES1    0.0000
     11 H4         7.2676    5.5805    2.7193 H         1 RES1    0.0000
     12 C4         9.3265    5.6444    2.3423 C.ar      1 RES1    0.0000
     13 C5        10.0149    4.4844    2.7480 C.ar      1 RES1    0.0000
     14 H5         9.5568    3.7807    3.1474 H         1 RES1    0.0000
     15 C6        11.3657    4.4042    2.5482 C.ar      1 RES1    0.0000
     16 H6        11.8213    3.6383    2.8142 H         1 RES1    0.0000
     17 C7        12.0717    5.4490    1.9535 C.ar      1 RES1    0.0000
     18 H7        12.9895    5.3654    1.8309 H         1 RES1    0.0000
     19 C8        11.4431    6.5996    1.5437 C.ar      1 RES1    0.0000
     20 H8        11.9194    7.2952    1.1514 H         1 RES1    0.0000
     21 C9        10.0653    6.6884    1.7372 C.ar      1 RES1    0.0000
     22 C10        6.7707    8.1843    1.6129 C.2       1 RES1    0.0000
     23 H9         6.9026    8.9542    1.1076 H         1 RES1    0.0000
     24 C11        5.5499    7.9647    2.0926 C.2       1 RES1    0.0000
     25 H10        5.4327    7.2008    2.6097 H         1 RES1    0.0000
     26 C12        4.3737    8.8070    1.8854 C.ar      1 RES1    0.0000
     27 C13        4.4101    9.9876    1.1312 C.ar      1 RES1    0.0000
     28 H11        5.2104   10.2572    0.7437 H         1 RES1    0.0000
     29 C14        3.2810   10.7535    0.9555 C.ar      1 RES1    0.0000
     30 H12        3.3184   11.5386    0.4588 H         1 RES1    0.0000
     31 C15        2.0896   10.3437    1.5236 C.ar      1 RES1    0.0000
     32 C16        2.0042    9.1820    2.2602 C.ar      1 RES1    0.0000
     33 H13        1.1943    8.9093    2.6257 H         1 RES1    0.0000
     34 C17        3.1492    8.4305    2.4428 C.ar      1 RES1    0.0000
     35 H14        3.1037    7.6527    2.9501 H         1 RES1    0.0000
@<TRIPOS>BOND
     1    1    5 1
     2    2    3 2
     3    4    2 2
     4    5    6 1
     5    7    5 1
     6    8    5 1
     7    9    1 1
     8   10    9 2
     9   11   10 1
    10   12   10 1
    11   13   12 ar
    12   14   13 1
    13   15   13 ar
    14   16   15 1
    15   17   15 ar
    16   18   17 1
    17   19   17 ar
    18   20   19 1
    19   21    1 1
    20   22    9 1
    21   23   22 1
    22   24   22 2
    23   25   24 1
    24   26   24 1
    25   27   26 ar
    26   28   27 1
    27   29   27 ar
    28   30   29 1
    29   31    2 1
    30   32   31 ar
    31   33   32 1
    32   34   26 ar
    33   35   34 1
    34   12   21 ar
    35   19   21 ar
    36   29   31 ar
    37   32   34 ar
@<TRIPOS>SUBSTRUCTURE
     1 RES1 1

@<TRIPOS>CRYSIN
  12.4147   15.4756   14.6118  90.0000  90.0000  90.0000  61 1

