# MOL2 file generated by ConQuest
# Please check atom types

@<TRIPOS>MOLECULE
LANLOC01
    28    28     1
SMALL
NO_CHARGES
****
Generated from CSD

@<TRIPOS>ATOM
      1 O1         1.4181    0.9258   12.9010 O.2       1 RES1    0.0000
      2 O2         2.0690    2.7110   11.6838 O.3       1 RES1    0.0000
      3 O3         4.8461    6.1038   13.7662 O.2       1 RES1    0.0000
      4 O4         5.0245    6.1954   15.9262 O.2       1 RES1    0.0000
      5 O5         3.2848    2.5999   18.6261 O.2       1 RES1    0.0000
      6 O6         2.2993    0.9315   17.6605 O.2       1 RES1    0.0000
      7 N1         4.6163    5.6722   14.8901 N.pl3     1 RES1    0.0000
      8 N2         2.8241    2.0394   17.6434 N.pl3     1 RES1    0.0000
      9 C1         2.5193    2.7279   13.9915 C.ar      1 RES1    0.0000
     10 C2         3.2382    3.9121   13.8709 C.ar      1 RES1    0.0000
     11 C3         3.7971    4.4556   15.0164 C.ar      1 RES1    0.0000
     12 C4         3.6598    3.8909   16.2696 C.ar      1 RES1    0.0000
     13 C5         2.9328    2.7181   16.3427 C.ar      1 RES1    0.0000
     14 C6         2.3586    2.1283   15.2333 C.ar      1 RES1    0.0000
     15 C7         1.9340    2.0169   12.8057 C.2       1 RES1    0.0000
     16 C8         1.4594    2.1243   10.4720 C.3       1 RES1    0.0000
     17 C9         1.1213    3.2920    9.5837 C.3       1 RES1    0.0000
     18 C10        2.4454    1.1596    9.8712 C.3       1 RES1    0.0000
     19 H1         3.3433    4.3367   13.0266 H         1 RES1    0.0000
     20 H2         4.0452    4.2887   17.0413 H         1 RES1    0.0000
     21 H3         1.8609    1.3236   15.3193 H         1 RES1    0.0000
     22 H4         0.6215    1.6374   10.7196 H         1 RES1    0.0000
     23 H5         0.5658    3.9298   10.0797 H         1 RES1    0.0000
     24 H6         0.6301    2.9736    8.7978 H         1 RES1    0.0000
     25 H7         1.9475    3.7337    9.2951 H         1 RES1    0.0000
     26 H8         3.2815    1.6300    9.6701 H         1 RES1    0.0000
     27 H9         2.0745    0.7853    9.0444 H         1 RES1    0.0000
     28 H10        2.6225    0.4355   10.5077 H         1 RES1    0.0000
@<TRIPOS>BOND
     1    1   15 2
     2    2   15 1
     3    3    7 2
     4    4    7 2
     5    5    8 2
     6    6    8 2
     7    7   11 1
     8    8   13 1
     9    9   10 ar
    10   10   11 ar
    11   11   12 ar
    12   12   13 ar
    13   13   14 ar
    14   14    9 ar
    15   15    9 1
    16   16    2 1
    17   17   16 1
    18   18   16 1
    19   19   10 1
    20   20   12 1
    21   21   14 1
    22   22   16 1
    23   23   17 1
    24   24   17 1
    25   25   17 1
    26   26   18 1
    27   27   18 1
    28   28   18 1
@<TRIPOS>SUBSTRUCTURE
     1 RES1 1

@<TRIPOS>CRYSIN
   9.7037    5.7152   20.4739  90.0000  95.5040  90.0000 231 1

