# MOL2 file generated by ConQuest
# Please check atom types

@<TRIPOS>MOLECULE
LANLOC
    28    28     1
SMALL
NO_CHARGES
****
Generated from CSD

@<TRIPOS>ATOM
      1 C1         0.3171    5.8744    6.4556 C.ar      1 RES1    0.0000
      2 C2        -0.4153    4.7045    6.5833 C.ar      1 RES1    0.0000
      3 H1        -0.5251    4.2987    7.4127 H         1 RES1    0.0000
      4 C3        -0.9793    4.1551    5.4463 C.ar      1 RES1    0.0000
      5 C4        -0.8412    4.6981    4.1972 C.ar      1 RES1    0.0000
      6 H2        -1.2245    4.3010    3.4487 H         1 RES1    0.0000
      7 C5        -0.1064    5.8640    4.1027 C.ar      1 RES1    0.0000
      8 C6         0.4708    6.4480    5.2084 C.ar      1 RES1    0.0000
      9 H3         0.9662    7.2295    5.1156 H         1 RES1    0.0000
     10 C7         0.9140    6.5945    7.6270 C.2       1 RES1    0.0000
     11 C8         1.3442    6.5250    9.9737 C.3       1 RES1    0.0000
     12 H4         2.1661    7.0003    9.7303 H         1 RES1    0.0000
     13 C9         0.3613    7.4993   10.5372 C.3       1 RES1    0.0000
     14 H5         0.2090    8.2032    9.9027 H         1 RES1    0.0000
     15 H6         0.7110    7.8715   11.3499 H         1 RES1    0.0000
     16 H7        -0.4662    7.0489   10.7218 H         1 RES1    0.0000
     17 C10        1.6852    5.3823   10.8669 C.3       1 RES1    0.0000
     18 H8         0.8785    4.9974   11.2165 H         1 RES1    0.0000
     19 H9         2.2311    5.6955   11.5922 H         1 RES1    0.0000
     20 H10        2.1670    4.7184   10.3666 H         1 RES1    0.0000
     21 N1        -1.7983    2.9360    5.5883 N.pl3     1 RES1    0.0000
     22 N2         0.0182    6.5187    2.7951 N.pl3     1 RES1    0.0000
     23 O1        -2.0269    2.5239    6.7143 O.2       1 RES1    0.0000
     24 O2        -2.2046    2.4017    4.5667 O.2       1 RES1    0.0000
     25 O3        -0.4700    5.9716    1.8270 O.2       1 RES1    0.0000
     26 O4         0.5737    7.6040    2.7594 O.2       1 RES1    0.0000
     27 O5         1.4725    7.6527    7.5081 O.2       1 RES1    0.0000
     28 O6         0.7520    5.9323    8.7620 O.3       1 RES1    0.0000
@<TRIPOS>BOND
     1    1    2 ar
     2    2    3 1
     3    4    2 ar
     4    5    4 ar
     5    6    5 1
     6    7    5 ar
     7    8    1 ar
     8    9    8 1
     9   10    1 1
    10   11   12 1
    11   13   11 1
    12   14   13 1
    13   15   13 1
    14   16   13 1
    15   17   11 1
    16   18   17 1
    17   19   17 1
    18   20   17 1
    19   21    4 1
    20   22    7 1
    21   23   21 2
    22   24   21 2
    23   25   22 2
    24   26   22 2
    25   27   10 2
    26   28   10 1
    27    7    8 ar
    28   11   28 1
@<TRIPOS>SUBSTRUCTURE
     1 RES1 1

@<TRIPOS>CRYSIN
   9.8860    5.7887   20.6460  90.0000  96.1290  90.0000 231 1

