# MOL2 file generated by ConQuest
# Please check atom types

@<TRIPOS>MOLECULE
LANNOG
    51    53     1
SMALL
NO_CHARGES
****
Generated from CSD

@<TRIPOS>ATOM
      1 C1         8.2240    2.1686    5.1000 C.3       1 RES1    0.0000
      2 C2         6.9569    1.6251    5.7263 C.2       1 RES1    0.0000
      3 O1         8.8296    5.2972    3.1758 O.3       1 RES1    0.0000
      4 C3         7.9209    3.3710    4.1901 C.3       1 RES1    0.0000
      5 O2         6.1187    2.5864    6.0575 O.3       1 RES1    0.0000
      6 O3         6.7528    0.4617    5.9496 O.2       1 RES1    0.0000
      7 O4        10.2512    2.0458    2.8427 O.3       1 RES1    0.0000
      8 O5         9.7768    4.8530    5.8596 O.3       1 RES1    0.0000
      9 C4         6.9211    3.0268    3.0922 C.ar      1 RES1    0.0000
     10 C5        10.2697    4.2120    4.7109 C.3       1 RES1    0.0000
     11 C6         9.2056    4.0104    3.6278 C.3       1 RES1    0.0000
     12 O6         9.8911    3.6827    1.3572 O.2       1 RES1    0.0000
     13 N1        10.3097    3.4213    5.9180 N.3       1 RES1    0.0000
     14 C7         9.8046    3.2329    2.4697 C.2       1 RES1    0.0000
     15 C8         9.2012    2.4963    6.2424 C.3       1 RES1    0.0000
     16 C9         4.8927    2.1974    6.7186 C.3       1 RES1    0.0000
     17 C10        6.9061    1.8062    2.4461 C.ar      1 RES1    0.0000
     18 C11       11.6159    4.6896    4.2392 C.3       1 RES1    0.0000
     19 C12        9.8420    1.2363    6.7846 C.3       1 RES1    0.0000
     20 C13        5.9642    3.9606    2.7310 C.ar      1 RES1    0.0000
     21 C14        5.0282    2.4648    1.1246 C.ar      1 RES1    0.0000
     22 C15        5.9562    1.5362    1.4622 C.ar      1 RES1    0.0000
     23 C16        5.0309    3.6619    1.7629 C.ar      1 RES1    0.0000
     24 C17        3.9119    1.6797    5.7474 C.3       1 RES1    0.0000
     25 C18       10.8487    1.2415    1.7859 C.3       1 RES1    0.0000
     26 C19       11.5443    0.2804    2.1311 C.3       1 RES1    0.0000
     27 H1         7.5826    4.1236    4.8079 H         1 RES1    0.0000
     28 H2         8.5372    1.5168    4.5297 H         1 RES1    0.0000
     29 H3         8.6931    2.9435    6.9503 H         1 RES1    0.0000
     30 H4         4.5130    4.4810    1.5905 H         1 RES1    0.0000
     31 H5         7.5687    1.0998    2.7558 H         1 RES1    0.0000
     32 H6         9.4834    5.6352    2.4524 H         1 RES1    0.0000
     33 H7        10.1615    0.8445    1.2452 H         1 RES1    0.0000
     34 H8        11.3907    1.8177    1.2436 H         1 RES1    0.0000
     35 H9        11.8980   -0.1683    1.3595 H         1 RES1    0.0000
     36 H10       11.0377   -0.3422    2.6583 H         1 RES1    0.0000
     37 H11       12.2668    0.6309    2.6568 H         1 RES1    0.0000
     38 H12        3.1058    1.4193    6.1984 H         1 RES1    0.0000
     39 H13        4.2890    0.9191    5.2999 H         1 RES1    0.0000
     40 H14        3.7114    2.3631    5.1030 H         1 RES1    0.0000
     41 H15       10.4469    1.4614    7.4955 H         1 RES1    0.0000
     42 H16       10.3236    0.7969    6.0810 H         1 RES1    0.0000
     43 H17        9.1586    0.6511    7.1196 H         1 RES1    0.0000
     44 H18       11.8784    4.2046    3.4527 H         1 RES1    0.0000
     45 H19       12.2632    4.5463    4.9336 H         1 RES1    0.0000
     46 H20       11.5675    5.6265    4.0352 H         1 RES1    0.0000
     47 H21        5.0809    1.5063    7.3574 H         1 RES1    0.0000
     48 H22        4.5150    2.9561    7.1687 H         1 RES1    0.0000
     49 H23        5.9539    4.8201    3.1595 H         1 RES1    0.0000
     50 H24        4.3753    2.2725    0.4476 H         1 RES1    0.0000
     51 H25        5.9705    0.6853    1.0191 H         1 RES1    0.0000
@<TRIPOS>BOND
     1    1    2 1
     2    2    5 1
     3    3   11 1
     4    4    1 1
     5    5   16 1
     6    6    2 2
     7    7   14 1
     8    8   10 1
     9    9    4 1
    10   10   11 1
    11   11    4 1
    12   12   14 2
    13   13    8 1
    14   14   11 1
    15   15    1 1
    16   16   24 1
    17   17    9 ar
    18   18   10 1
    19   19   15 1
    20   20    9 ar
    21   21   22 ar
    22   22   17 ar
    23   23   20 ar
    24   24   38 1
    25   25    7 1
    26   26   25 1
    27   27    4 1
    28   28    1 1
    29   29   15 1
    30   30   23 1
    31   31   17 1
    32   32    3 1
    33   33   25 1
    34   34   25 1
    35   35   26 1
    36   36   26 1
    37   37   26 1
    38   39   24 1
    39   40   24 1
    40   41   19 1
    41   42   19 1
    42   43   19 1
    43   44   18 1
    44   45   18 1
    45   46   18 1
    46   47   16 1
    47   48   16 1
    48   49   20 1
    49   50   21 1
    50   51   22 1
    51   10   13 1
    52   13   15 1
    53   21   23 ar
@<TRIPOS>SUBSTRUCTURE
     1 RES1 1

@<TRIPOS>CRYSIN
   9.9122   13.0411   16.1476  90.0000 108.1650  90.0000  14 1

