# MOL2 file generated by ConQuest
# Please check atom types

@<TRIPOS>MOLECULE
LANRAV
    29    30     1
SMALL
NO_CHARGES
****
Generated from CSD

@<TRIPOS>ATOM
      1 O1         2.7589   14.7957    1.6581 O.3       1 RES1    0.0000
      2 N1         1.8063   14.0880    2.4066 N.2       1 RES1    0.0000
      3 N2         3.0144   11.0738    0.3608 N.pl3     1 RES1    0.0000
      4 N3         3.7957    9.3939    1.5676 N.2       1 RES1    0.0000
      5 C1        -0.1419   11.1386    2.0344 C.ar      1 RES1    0.0000
      6 H1         0.3114   10.7492    1.2962 H         1 RES1    0.0000
      7 C2        -1.0570   10.3824    2.7602 C.ar      1 RES1    0.0000
      8 H2        -1.2191    9.4776    2.5196 H         1 RES1    0.0000
      9 C3        -1.7339   10.9446    3.8342 C.ar      1 RES1    0.0000
     10 H3        -2.3472   10.4218    4.3378 H         1 RES1    0.0000
     11 C4        -1.5121   12.2735    4.1699 C.ar      1 RES1    0.0000
     12 H4        -1.9873   12.6658    4.8928 H         1 RES1    0.0000
     13 C5        -0.5966   13.0298    3.4515 C.ar      1 RES1    0.0000
     14 H5        -0.4504   13.9389    3.6863 H         1 RES1    0.0000
     15 C6         0.1148   12.4679    2.3845 C.ar      1 RES1    0.0000
     16 C7         1.1696   13.2403    1.6803 C.2       1 RES1    0.0000
     17 C8         1.4297   13.0258    0.2075 C.3       1 RES1    0.0000
     18 H6         1.3347   13.8939   -0.2580 H         1 RES1    0.0000
     19 H7         0.7337   12.4185   -0.1494 H         1 RES1    0.0000
     20 C9         2.8067   12.4399   -0.1280 C.3       1 RES1    0.0000
     21 H8         2.9232   12.4466   -1.1109 H         1 RES1    0.0000
     22 H9         3.5043   13.0256    0.2600 H         1 RES1    0.0000
     23 C10        3.7562   10.7043    1.4265 C.2       1 RES1    0.0000
     24 H10        4.1975   11.3155    2.0055 H         1 RES1    0.0000
     25 C11        3.0355    8.8984    0.5300 C.2       1 RES1    0.0000
     26 H11        2.8776    7.9769    0.3636 H         1 RES1    0.0000
     27 C12        2.5459    9.9201   -0.2202 C.2       1 RES1    0.0000
     28 H12        1.9934    9.8514   -0.9903 H         1 RES1    0.0000
     29 H13        3.1431   15.3370    2.2616 H         1 RES1    0.0000
@<TRIPOS>BOND
     1    1    2 1
     2    2   16 2
     3    3   20 1
     4    4   23 2
     5    5    6 1
     6    7    5 ar
     7    8    7 1
     8    9    7 ar
     9   10    9 1
    10   11    9 ar
    11   12   11 1
    12   13   11 ar
    13   14   13 1
    14   15    5 ar
    15   16   15 1
    16   17   16 1
    17   18   17 1
    18   19   17 1
    19   20   17 1
    20   21   20 1
    21   22   20 1
    22   23    3 1
    23   24   23 1
    24   25    4 1
    25   26   25 1
    26   27    3 1
    27   28   27 1
    28   29    1 1
    29   13   15 ar
    30   25   27 2
@<TRIPOS>SUBSTRUCTURE
     1 RES1 1

@<TRIPOS>CRYSIN
   8.0990   14.0513    9.9771  90.0000  93.0580  90.0000  14 1

