# MOL2 file generated by ConQuest
# Please check atom types

@<TRIPOS>MOLECULE
LANTIF
    38    39     1
SMALL
NO_CHARGES
****
Generated from CSD

@<TRIPOS>ATOM
      1 O1         3.4178    0.9291    5.2784 O.2       1 RES1    0.0000
      2 O2         2.9551    0.4764    3.2518 O.2       1 RES1    0.0000
      3 N1         0.2691    3.5328    0.6209 N.2       1 RES1    0.0000
      4 N2         2.9344    1.2212    4.2059 N.pl3     1 RES1    0.0000
      5 C1         1.3096    5.0535    3.7019 C.ar      1 RES1    0.0000
      6 H1         0.9727    5.9127    3.5865 H         1 RES1    0.0000
      7 C2         1.8484    4.6850    4.9256 C.ar      1 RES1    0.0000
      8 H2         1.8544    5.2955    5.6273 H         1 RES1    0.0000
      9 C3         2.3738    3.4298    5.1141 C.ar      1 RES1    0.0000
     10 H3         2.7420    3.1804    5.9302 H         1 RES1    0.0000
     11 C4         2.3359    2.5507    4.0497 C.ar      1 RES1    0.0000
     12 C5         1.7942    2.8767    2.8282 C.ar      1 RES1    0.0000
     13 H4         1.7808    2.2550    2.1356 H         1 RES1    0.0000
     14 C6         1.2670    4.1511    2.6417 C.ar      1 RES1    0.0000
     15 C7         0.6894    4.5182    1.3219 C.2       1 RES1    0.0000
     16 C8         0.6546    5.9491    0.9114 C.3       1 RES1    0.0000
     17 H5         0.5570    6.0065   -0.0421 H         1 RES1    0.0000
     18 H6         1.4718    6.3780    1.1771 H         1 RES1    0.0000
     19 H7        -0.0876    6.3861    1.3351 H         1 RES1    0.0000
     20 O1B       -3.4178    6.5157   -5.2784 O.2       1 RES1    0.0000
     21 O2B       -2.9551    6.9684   -3.2518 O.2       1 RES1    0.0000
     22 N1B       -0.2691    3.9120   -0.6209 N.2       1 RES1    0.0000
     23 N2B       -2.9344    6.2236   -4.2059 N.pl3     1 RES1    0.0000
     24 C1B       -1.3096    2.3913   -3.7019 C.ar      1 RES1    0.0000
     25 H1B       -0.9727    1.5321   -3.5865 H         1 RES1    0.0000
     26 C2B       -1.8484    2.7598   -4.9256 C.ar      1 RES1    0.0000
     27 H2B       -1.8544    2.1493   -5.6273 H         1 RES1    0.0000
     28 C3B       -2.3738    4.0150   -5.1141 C.ar      1 RES1    0.0000
     29 H3B       -2.7420    4.2644   -5.9302 H         1 RES1    0.0000
     30 C4B       -2.3359    4.8941   -4.0497 C.ar      1 RES1    0.0000
     31 C5B       -1.7942    4.5681   -2.8282 C.ar      1 RES1    0.0000
     32 H4B       -1.7808    5.1898   -2.1356 H         1 RES1    0.0000
     33 C6B       -1.2670    3.2937   -2.6417 C.ar      1 RES1    0.0000
     34 C7B       -0.6894    2.9266   -1.3219 C.2       1 RES1    0.0000
     35 C8B       -0.6546    1.4957   -0.9114 C.3       1 RES1    0.0000
     36 H5B       -0.5570    1.4383    0.0421 H         1 RES1    0.0000
     37 H6B       -1.4718    1.0668   -1.1771 H         1 RES1    0.0000
     38 H7B        0.0876    1.0587   -1.3351 H         1 RES1    0.0000
@<TRIPOS>BOND
     1    1    4 2
     2    2    4 2
     3    3   15 2
     4    4   11 1
     5    5    6 1
     6    7    5 ar
     7    8    7 1
     8    9    7 ar
     9   10    9 1
    10   11    9 ar
    11   12   11 ar
    12   13   12 1
    13   14    5 ar
    14   15   14 1
    15   16   15 1
    16   17   16 1
    17   18   16 1
    18   19   16 1
    19   20   23 2
    20   21   23 2
    21   22    3 1
    22   23   30 1
    23   24   25 1
    24   26   24 ar
    25   27   26 1
    26   28   26 ar
    27   29   28 1
    28   30   28 ar
    29   31   30 ar
    30   32   31 1
    31   33   24 ar
    32   34   22 2
    33   35   34 1
    34   36   35 1
    35   37   35 1
    36   38   35 1
    37   12   14 ar
    38   31   33 ar
    39   33   34 1
@<TRIPOS>SUBSTRUCTURE
     1 RES1 1

@<TRIPOS>CRYSIN
   3.9296    7.4448   26.3979  90.0000  94.0220  90.0000  14 1

