# MOL2 file generated by ConQuest
# Please check atom types

@<TRIPOS>MOLECULE
LAPCUC
    33    34     1
SMALL
NO_CHARGES
****
Generated from CSD

@<TRIPOS>ATOM
      1 N1         9.0280   17.1888    7.2552 N.pl3     1 RES1    0.0000
      2 N2         8.8810   11.2301    7.9394 N.2       1 RES1    0.0000
      3 N3         8.1955   10.3000    8.7165 N.am      1 RES1    0.0000
      4 N4         4.3094    8.3002   11.5129 N.pl3     1 RES1    0.0000
      5 O1         9.6231   18.1298    6.8062 O.2       1 RES1    0.0000
      6 O2         7.9938   17.3203    7.8482 O.2       1 RES1    0.0000
      7 O3         8.1795    8.8174    7.0090 O.2       1 RES1    0.0000
      8 O4         4.4060    9.4431   11.9023 O.2       1 RES1    0.0000
      9 O5         3.4279    7.5410   11.8793 O.2       1 RES1    0.0000
     10 C1         9.5750   15.8412    7.1010 C.ar      1 RES1    0.0000
     11 C2         8.9855   14.8189    7.7963 C.ar      1 RES1    0.0000
     12 H1         8.2929   14.9951    8.3901 H         1 RES1    0.0000
     13 C3         9.4273   13.5255    7.6097 C.ar      1 RES1    0.0000
     14 C4        10.4631   13.2950    6.7090 C.ar      1 RES1    0.0000
     15 H2        10.7546   12.4246    6.5557 H         1 RES1    0.0000
     16 C5        11.0636   14.3417    6.0427 C.ar      1 RES1    0.0000
     17 H3        11.7670   14.1735    5.4582 H         1 RES1    0.0000
     18 C6        10.6296   15.6283    6.2344 C.ar      1 RES1    0.0000
     19 H4        11.0367   16.3387    5.7939 H         1 RES1    0.0000
     20 C7         8.7746   12.4232    8.3322 C.2       1 RES1    0.0000
     21 H5         8.2743   12.6103    9.0939 H         1 RES1    0.0000
     22 C8         7.8636    9.1286    8.1575 C.2       1 RES1    0.0000
     23 C9         7.0374    8.2148    8.9993 C.ar      1 RES1    0.0000
     24 C10        6.1126    8.6907    9.9136 C.ar      1 RES1    0.0000
     25 H6         6.0290    9.6031   10.0729 H         1 RES1    0.0000
     26 C11        5.3254    7.7904   10.5773 C.ar      1 RES1    0.0000
     27 C12        5.4123    6.4292   10.3805 C.ar      1 RES1    0.0000
     28 H7         4.8608    5.8421   10.8457 H         1 RES1    0.0000
     29 C13        6.3383    5.9628    9.4756 C.ar      1 RES1    0.0000
     30 H8         6.4250    5.0476    9.3308 H         1 RES1    0.0000
     31 C14        7.1427    6.8509    8.7778 C.ar      1 RES1    0.0000
     32 H9         7.7557    6.5309    8.1575 H         1 RES1    0.0000
     33 H10        7.9680   10.4668    9.5651 H         1 RES1    0.0000
@<TRIPOS>BOND
     1    1    5 2
     2    2    3 1
     3    3   22 1
     4    4    8 2
     5    6    1 2
     6    7   22 2
     7    9    4 2
     8   10    1 1
     9   11   10 ar
    10   12   11 1
    11   13   11 ar
    12   14   13 ar
    13   15   14 1
    14   16   14 ar
    15   17   16 1
    16   18   10 ar
    17   19   18 1
    18   20    2 2
    19   21   20 1
    20   22   23 1
    21   23   24 ar
    22   24   25 1
    23   26    4 1
    24   27   26 ar
    25   28   27 1
    26   29   27 ar
    27   30   29 1
    28   31   23 ar
    29   32   31 1
    30   33    3 1
    31   13   20 1
    32   16   18 ar
    33   24   26 ar
    34   29   31 ar
@<TRIPOS>SUBSTRUCTURE
     1 RES1 1

@<TRIPOS>CRYSIN
  11.9900   13.5580    8.5800  90.0000  96.7520  90.0000  14 1

