# MOL2 file generated by ConQuest
# Please check atom types

@<TRIPOS>MOLECULE
LAPCOW
    19    19     1
SMALL
NO_CHARGES
****
Generated from CSD

@<TRIPOS>ATOM
      1 C1         0.0194    2.4205    4.7795 C.ar      1 RES1    0.0000
      2 H1        -0.1347    1.6774    5.3514 H         1 RES1    0.0000
      3 C2         0.4808    4.6285    3.0996 C.ar      1 RES1    0.0000
      4 C3        -0.9043    3.4560    4.7035 C.ar      1 RES1    0.0000
      5 C4        -0.7156    4.5707    3.8333 C.ar      1 RES1    0.0000
      6 C5         1.1700    2.4883    4.0079 C.ar      1 RES1    0.0000
      7 C6         1.4304    3.5992    3.1634 C.ar      1 RES1    0.0000
      8 O1         0.6966    5.7170    2.3016 O.3       1 RES1    0.0000
      9 H2         1.4919    5.6337    2.0200 H         1 RES1    0.0000
     10 O2        -1.5700    5.5985    3.6794 O.3       1 RES1    0.0000
     11 H3        -2.2934    5.4205    4.1099 H         1 RES1    0.0000
     12 O3         2.5036    3.7843    2.3712 O.3       1 RES1    0.0000
     13 H4         3.0408    3.1601    2.4294 H         1 RES1    0.0000
     14 N1         2.1062    1.3682    4.0611 N.pl3     1 RES1    0.0000
     15 N2        -2.0645    3.3840    5.5777 N.pl3     1 RES1    0.0000
     16 O4         3.2271    1.5240    3.5175 O.2       1 RES1    0.0000
     17 O5         1.7636    0.3359    4.6219 O.2       1 RES1    0.0000
     18 O6        -2.9909    4.2083    5.4105 O.2       1 RES1    0.0000
     19 O7        -2.1013    2.5251    6.4574 O.2       1 RES1    0.0000
@<TRIPOS>BOND
     1    1    2 1
     2    3    5 ar
     3    4    1 ar
     4    5    4 ar
     5    6    1 ar
     6    7    3 ar
     7    8    3 1
     8    9    8 1
     9   10    5 1
    10   11   10 1
    11   12    7 1
    12   13   12 1
    13   14    6 1
    14   15    4 1
    15   16   14 2
    16   17   14 2
    17   18   15 2
    18   19   15 2
    19    6    7 ar
@<TRIPOS>SUBSTRUCTURE
     1 RES1 1

@<TRIPOS>CRYSIN
   6.7612   10.8780   10.2970  90.0000  92.7500  90.0000  14 1

