# MOL2 file generated by ConQuest
# Please check atom types

@<TRIPOS>MOLECULE
LAPTIG
    51    54     1
SMALL
NO_CHARGES
****
Generated from CSD

@<TRIPOS>ATOM
      1 O1         8.3374    1.5342    7.9605 O.3       1 RES1    0.0000
      2 N1         9.5433    2.1885    8.4249 N.3       1 RES1    0.0000
      3 C1        10.3946    2.1639    7.2350 C.3       1 RES1    0.0000
      4 H1        10.7482    1.3028    7.1439 H         1 RES1    0.0000
      5 C2        11.5733    3.0953    7.4092 C.3       1 RES1    0.0000
      6 H2        12.0643    3.1598    6.5800 H         1 RES1    0.0000
      7 H3        12.2412    2.7084    8.0741 H         1 RES1    0.0000
      8 O2        11.1679    4.4204    7.7391 O.3       1 RES1    0.0000
      9 C3        10.4260    4.3958    8.9587 C.3       1 RES1    0.0000
     10 H4        10.1919    5.3426    9.1499 H         1 RES1    0.0000
     11 H5        11.0093    3.9998    9.6660 H         1 RES1    0.0000
     12 C4         9.1831    3.5667    8.7974 C.3       1 RES1    0.0000
     13 H6         8.5876    4.0341    8.1219 H         1 RES1    0.0000
     14 H7         8.6902    3.5198    9.6577 H         1 RES1    0.0000
     15 C5         9.4446    2.5067    6.0812 C.3       1 RES1    0.0000
     16 H8         9.3328    3.4970    6.0493 H         1 RES1    0.0000
     17 C6         9.8490    2.0645    4.7046 C.ar      1 RES1    0.0000
     18 C7        10.5323    0.9102    4.4376 C.ar      1 RES1    0.0000
     19 H9        10.7701    0.3714    5.0858 H         1 RES1    0.0000
     20 C8        10.8713    0.5103    3.1587 C.ar      1 RES1    0.0000
     21 H10       11.4039   -0.2971    2.9612 H         1 RES1    0.0000
     22 C9        10.4817    1.3074    2.1036 C.ar      1 RES1    0.0000
     23 O3        10.7391    1.0171    0.7895 O.3       1 RES1    0.0000
     24 C10       11.5980   -0.0783    0.5423 C.3       1 RES1    0.0000
     25 H11       12.5246    0.1314    0.9593 H         1 RES1    0.0000
     26 H12       11.2248   -0.9142    0.8719 H         1 RES1    0.0000
     27 H13       11.6689   -0.1600   -0.4079 H         1 RES1    0.0000
     28 C11        9.8001    2.4736    2.3382 C.ar      1 RES1    0.0000
     29 H14        9.5700    3.0341    1.6190 H         1 RES1    0.0000
     30 C12        9.4909    2.8496    3.6177 C.ar      1 RES1    0.0000
     31 H15        9.0308    3.5884    3.7707 H         1 RES1    0.0000
     32 C13        8.1249    1.9016    6.5592 C.3       1 RES1    0.0000
     33 H16        7.9080    1.0457    6.0826 H         1 RES1    0.0000
     34 C14        6.9417    2.8679    6.3954 C.2       1 RES1    0.0000
     35 O4         7.1033    3.9655    5.8629 O.2       1 RES1    0.0000
     36 N2         5.7351    2.4564    6.8182 N.am      1 RES1    0.0000
     37 C15        4.5940    3.3735    6.7704 C.3       1 RES1    0.0000
     38 H17        4.8341    4.1655    6.1783 H         1 RES1    0.0000
     39 H18        3.8596    2.9427    6.2928 H         1 RES1    0.0000
     40 C16        4.2107    3.7558    8.1763 C.3       1 RES1    0.0000
     41 H19        4.9869    4.2798    8.5798 H         1 RES1    0.0000
     42 H20        3.4727    4.2855    8.0928 H         1 RES1    0.0000
     43 C17        3.9173    2.5342    9.0213 C.3       1 RES1    0.0000
     44 H21        3.1236    2.0628    8.6380 H         1 RES1    0.0000
     45 H22        3.7222    2.7884    9.9303 H         1 RES1    0.0000
     46 C18        5.0994    1.5799    8.9789 C.3       1 RES1    0.0000
     47 H23        4.9806    0.7714    9.4787 H         1 RES1    0.0000
     48 H24        5.8729    2.0113    9.4038 H         1 RES1    0.0000
     49 C19        5.4666    1.2314    7.5595 C.3       1 RES1    0.0000
     50 H25        4.6822    0.7885    7.0690 H         1 RES1    0.0000
     51 H26        6.2111    0.6514    7.4873 H         1 RES1    0.0000
@<TRIPOS>BOND
     1    1    2 1
     2    2    3 1
     3    3    4 1
     4    5    3 1
     5    6    5 1
     6    7    5 1
     7    8    5 1
     8    9    8 1
     9   10    9 1
    10   11    9 1
    11   12    2 1
    12   13   12 1
    13   14   12 1
    14   15    3 1
    15   16   15 1
    16   17   15 1
    17   18   17 ar
    18   19   18 1
    19   20   18 ar
    20   21   20 1
    21   22   20 ar
    22   23   22 1
    23   24   23 1
    24   25   24 1
    25   26   24 1
    26   27   24 1
    27   28   22 ar
    28   29   28 1
    29   30   17 ar
    30   31   30 1
    31   32    1 1
    32   33   32 1
    33   34   32 1
    34   35   34 2
    35   36   34 1
    36   37   36 1
    37   38   37 1
    38   39   37 1
    39   40   37 1
    40   41   40 1
    41   42   40 1
    42   43   40 1
    43   44   43 1
    44   45   43 1
    45   46   43 1
    46   47   46 1
    47   48   46 1
    48   49   36 1
    49   50   49 1
    50   51   49 1
    51    9   12 1
    52   15   32 1
    53   28   30 ar
    54   46   49 1
@<TRIPOS>SUBSTRUCTURE
     1 RES1 1

@<TRIPOS>CRYSIN
  29.1750    5.7140   22.2870  90.0000 110.9800  90.0000  15 1

