# MOL2 file generated by ConQuest
# Please check atom types

@<TRIPOS>MOLECULE
LAPTEC
    48    46     2
SMALL
NO_CHARGES
****
Generated from CSD

@<TRIPOS>ATOM
      1 C1         2.5945    2.8411   -1.3127 C.3       1 RES1    0.0000
      2 N1         3.1881    1.7423   -2.1725 N.3       1 RES1    0.0000
      3 O1         2.5863    0.6792   -2.3848 O.2       1 RES1    0.0000
      4 O2         4.3571    2.0164   -2.6055 O.3       1 RES1    0.0000
      5 C2         4.6729    3.3346   -2.1035 C.2       1 RES1    0.0000
      6 C3         3.6984    3.8326   -1.3389 C.2       1 RES1    0.0000
      7 C4         3.4301    5.1877   -0.7751 C.3       1 RES1    0.0000
      8 H1         3.8201    5.8568   -1.3420 H         1 RES1    0.0000
      9 H2         3.8233    5.2615    0.0973 H         1 RES1    0.0000
     10 C5         1.8775    5.3947   -0.6778 C.3       1 RES1    0.0000
     11 H3         1.6922    6.3358   -0.6307 H         1 RES1    0.0000
     12 H4         1.5592    4.9941    0.1349 H         1 RES1    0.0000
     13 C6         1.1220    4.8050   -1.8849 C.3       1 RES1    0.0000
     14 H5         1.4795    5.1384   -2.7112 H         1 RES1    0.0000
     15 H6         0.1981    5.0624   -1.8315 H         1 RES1    0.0000
     16 C7         2.2628    5.7606   -1.3179 Du        2 SUP2    0.0000
     17 H7         2.3456    6.0325   -2.2342 Du        2 SUP2    0.0000
     18 H8         2.1050    6.5372   -0.7772 Du        2 SUP2    0.0000
     19 C8         1.0951    4.8486   -1.1318 Du        2 SUP2    0.0000
     20 H9         0.2887    5.2716   -1.4351 Du        2 SUP2    0.0000
     21 H10        0.9888    4.6897   -0.1914 Du        2 SUP2    0.0000
     22 C9         1.2398    3.3089   -1.8137 C.3       1 RES1    0.0000
     23 H11        1.1265    2.9754   -2.7070 H         1 RES1    0.0000
     24 C10        0.3408    2.5144   -0.9058 C.2       1 RES1    0.0000
     25 N2         0.9535    1.9829    0.0826 N.2       1 RES1    0.0000
     26 O3         2.3520    2.2749   -0.0293 O.3       1 RES1    0.0000
     27 C11        5.9435    3.8986   -2.5574 C.ar      1 RES1    0.0000
     28 C12        6.4986    3.5103   -3.7614 C.ar      1 RES1    0.0000
     29 H12        6.0535    2.8490   -4.2959 H         1 RES1    0.0000
     30 C13        7.6860    4.0553   -4.1933 C.ar      1 RES1    0.0000
     31 H13        8.0453    3.7856   -5.0416 H         1 RES1    0.0000
     32 C14        8.3382    4.9930   -3.4402 C.ar      1 RES1    0.0000
     33 H14        9.1655    5.3589   -3.7634 H         1 RES1    0.0000
     34 C15        7.8101    5.3880   -2.2457 C.ar      1 RES1    0.0000
     35 H15        8.2749    6.0571   -1.7374 H         1 RES1    0.0000
     36 C16        6.6286    4.8464   -1.7960 C.ar      1 RES1    0.0000
     37 H16        6.2757    5.1071   -0.9424 H         1 RES1    0.0000
     38 C17       -1.1027    2.3320   -1.0700 C.ar      1 RES1    0.0000
     39 C18       -1.8095    3.0482   -2.0208 C.ar      1 RES1    0.0000
     40 H17       -1.3467    3.6770   -2.5783 H         1 RES1    0.0000
     41 C19       -3.1660    2.8579   -2.1756 C.ar      1 RES1    0.0000
     42 H18       -3.6428    3.3704   -2.8325 H         1 RES1    0.0000
     43 C20       -3.8335    1.9504   -1.3943 C.ar      1 RES1    0.0000
     44 H19       -4.7799    1.8262   -1.4958 H         1 RES1    0.0000
     45 C21       -3.1351    1.2130   -0.4728 C.ar      1 RES1    0.0000
     46 H20       -3.5928    0.5595    0.0596 H         1 RES1    0.0000
     47 C22       -1.7883    1.3943   -0.3012 C.ar      1 RES1    0.0000
     48 H21       -1.3139    0.8885    0.3619 H         1 RES1    0.0000
@<TRIPOS>BOND
     1    1    2 1
     2    2    3 1
     3    4    2 1
     4    5    4 1
     5    6    1 1
     6    7    6 1
     7    8    7 1
     8    9    7 1
     9   10    7 1
    10   11   10 1
    11   12   10 1
    12   13   10 1
    13   14   13 1
    14   15   13 1
    15   22    1 1
    16   23   22 1
    17   24   22 1
    18   25   24 2
    19   26    1 1
    20   27    5 1
    21   28   27 ar
    22   29   28 1
    23   30   28 ar
    24   31   30 1
    25   32   30 ar
    26   33   32 1
    27   34   32 ar
    28   35   34 1
    29   36   27 ar
    30   37   36 1
    31   38   24 1
    32   39   38 ar
    33   40   39 1
    34   41   39 ar
    35   42   41 1
    36   43   41 ar
    37   44   43 1
    38   45   43 ar
    39   46   45 1
    40   47   38 ar
    41   48   47 1
    42    5    6 2
    43   13   22 1
    44   25   26 1
    45   34   36 ar
    46   45   47 ar
@<TRIPOS>SUBSTRUCTURE
     1 RES1 1
     2 SUP2 16

@<TRIPOS>CRYSIN
  14.2670   11.1900   10.5760  90.0000  98.5000  90.0000  14 1

