# MOL2 file generated by ConQuest
# Please check atom types

@<TRIPOS>MOLECULE
LAPVAC
    25    26     1
SMALL
NO_CHARGES
****
Generated from CSD

@<TRIPOS>ATOM
      1 O1         3.9505    0.8090    9.0474 O.3       1 RES1    0.0000
      2 N1         3.4462    2.4465    6.8564 N.pl3     1 RES1    0.0000
      3 C1         3.2908    0.4858    5.4654 C.ar      1 RES1    0.0000
      4 H1         3.1323    1.0257    4.7251 H         1 RES1    0.0000
      5 C2         3.8042   -1.1369    7.6496 C.ar      1 RES1    0.0000
      6 C3         3.7996    0.2479    7.8373 C.ar      1 RES1    0.0000
      7 C4         3.5191    1.0312    6.7153 C.ar      1 RES1    0.0000
      8 C5         3.5403   -1.7231    6.4254 C.ar      1 RES1    0.0000
      9 H2         3.5208   -2.6479    6.3272 H         1 RES1    0.0000
     10 O2         4.8341   -1.6797    9.6466 O.2       1 RES1    0.0000
     11 N2         4.0785   -2.0475    8.7701 N.pl3     1 RES1    0.0000
     12 N3         2.9983   -1.4809    4.0510 N.pl3     1 RES1    0.0000
     13 O3         3.5342   -3.1343    8.7443 O.2       1 RES1    0.0000
     14 C6         3.3070   -0.8881    5.3592 C.ar      1 RES1    0.0000
     15 O4         2.8113   -2.6717    3.9933 O.2       1 RES1    0.0000
     16 N4         2.8650    4.4594    7.3387 N.2       1 RES1    0.0000
     17 N5         3.8723    4.4584    6.4316 N.2       1 RES1    0.0000
     18 C7         2.6246    3.1995    7.5853 C.2       1 RES1    0.0000
     19 H3         1.9817    2.8796    8.1760 H         1 RES1    0.0000
     20 N6         4.2298    3.2626    6.1202 N.2       1 RES1    0.0000
     21 O5         2.9042   -0.7357    3.1023 O.2       1 RES1    0.0000
     22 C8         5.2227    1.4115    9.3303 C.3       1 RES1    0.0000
     23 H4         5.2896    2.2502    8.8686 H         1 RES1    0.0000
     24 H5         5.9257    0.8270    9.0365 H         1 RES1    0.0000
     25 H6         5.3034    1.5592   10.2753 H         1 RES1    0.0000
@<TRIPOS>BOND
     1    1    6 1
     2    2    7 1
     3    3    4 1
     4    5    6 ar
     5    6    7 ar
     6    7    3 ar
     7    8    5 ar
     8    9    8 1
     9   10   11 2
    10   11    5 1
    11   12   14 1
    12   13   11 2
    13   14    3 ar
    14   15   12 2
    15   16   17 1
    16   17   20 2
    17   18    2 1
    18   19   18 1
    19   20    2 1
    20   21   12 2
    21   22    1 1
    22   23   22 1
    23   24   22 1
    24   25   22 1
    25    8   14 ar
    26   16   18 2
@<TRIPOS>SUBSTRUCTURE
     1 RES1 1

@<TRIPOS>CRYSIN
   7.1410    8.3150   10.2670  84.1650  73.1230  66.3370   2 1

