# MOL2 file generated by ConQuest
# Please check atom types

@<TRIPOS>MOLECULE
LAPVOP
    43    47     1
SMALL
NO_CHARGES
****
Generated from CSD

@<TRIPOS>ATOM
      1 O1         5.9065    1.6426    6.1073 O.3       1 RES1    0.0000
      2 O2         9.9181    1.6426   11.7718 O.2       1 RES1    0.0000
      3 O3         8.1752    1.6426   13.0438 O.2       1 RES1    0.0000
      4 N1         3.7018    1.6426    5.9430 N.2       1 RES1    0.0000
      5 N2         4.0562    1.6426    7.3185 N.2       1 RES1    0.0000
      6 N3         8.7068    1.6426   11.9393 N.pl3     1 RES1    0.0000
      7 C1         4.8132    1.6426    5.2850 C.2       1 RES1    0.0000
      8 C2         5.0628    1.6426    3.8088 C.3       1 RES1    0.0000
      9 C3         5.8720    2.8982    3.4288 C.3       1 RES1    0.0000
     10 H1         5.3630    3.7117    3.6736 H         1 RES1    0.0000
     11 H2         6.7286    2.9081    3.9254 H         1 RES1    0.0000
     12 C4         6.1488    2.8910    1.9127 C.3       1 RES1    0.0000
     13 H3         6.6717    3.7071    1.6663 H         1 RES1    0.0000
     14 C5         6.9513    1.6426    1.5497 C.3       1 RES1    0.0000
     15 H4         7.1498    1.6426    0.5805 H         1 RES1    0.0000
     16 H5         7.8106    1.6426    2.0423 H         1 RES1    0.0000
     17 C6         3.7283    1.6426    3.0375 C.3       1 RES1    0.0000
     18 H6         3.2008    0.8404    3.2784 H         1 RES1    0.0000
     19 C7         4.0155    1.6426    1.5254 C.3       1 RES1    0.0000
     20 H7         3.1506    1.6426    1.0246 H         1 RES1    0.0000
     21 C8         4.8155    0.3969    1.1517 C.3       1 RES1    0.0000
     22 H8         4.9868    0.3883    0.1766 H         1 RES1    0.0000
     23 H9         4.2972   -0.4153    1.3813 H         1 RES1    0.0000
     24 C9         5.3485    1.6426    7.3533 C.2       1 RES1    0.0000
     25 C10        6.2264    1.6426    8.5198 C.ar      1 RES1    0.0000
     26 C11        7.6102    1.6426    8.3669 C.ar      1 RES1    0.0000
     27 H10        7.9945    1.6426    7.4976 H         1 RES1    0.0000
     28 C12        8.4241    1.6426    9.4890 C.ar      1 RES1    0.0000
     29 H11        9.3699    1.6426    9.3982 H         1 RES1    0.0000
     30 C13        7.8406    1.6426   10.7447 C.ar      1 RES1    0.0000
     31 C14        6.4689    1.6426   10.9222 C.ar      1 RES1    0.0000
     32 H12        6.0918    1.6426   11.7937 H         1 RES1    0.0000
     33 C15        5.6603    1.6426    9.8018 C.ar      1 RES1    0.0000
     34 H13        4.7152    1.6426    9.9018 H         1 RES1    0.0000
     35 C3C        5.8720    0.3870    3.4288 C.3       1 RES1    0.0000
     36 H1C        5.3630   -0.4264    3.6736 H         1 RES1    0.0000
     37 H2C        6.7286    0.3771    3.9254 H         1 RES1    0.0000
     38 C4C        6.1488    0.3942    1.9127 C.3       1 RES1    0.0000
     39 H3C        6.6717   -0.4218    1.6663 H         1 RES1    0.0000
     40 H6C        3.2008    2.4449    3.2784 H         1 RES1    0.0000
     41 C8C        4.8155    2.8884    1.1517 C.3       1 RES1    0.0000
     42 H8C        4.9868    2.8969    0.1766 H         1 RES1    0.0000
     43 H9C        4.2972    3.7005    1.3813 H         1 RES1    0.0000
@<TRIPOS>BOND
     1    1    7 1
     2    2    6 2
     3    3    6 2
     4    4    5 1
     5    5   24 2
     6    6   30 1
     7    7    4 2
     8    8    7 1
     9    9    8 1
    10   10    9 1
    11   11    9 1
    12   12    9 1
    13   13   12 1
    14   14   12 1
    15   15   14 1
    16   16   14 1
    17   17    8 1
    18   18   17 1
    19   19   17 1
    20   20   19 1
    21   21   19 1
    22   22   21 1
    23   23   21 1
    24   24    1 1
    25   25   24 1
    26   26   25 ar
    27   27   26 1
    28   28   26 ar
    29   29   28 1
    30   30   28 ar
    31   31   30 ar
    32   32   31 1
    33   33   25 ar
    34   34   33 1
    35   35    8 1
    36   36   35 1
    37   37   35 1
    38   38   14 1
    39   39   38 1
    40   40   17 1
    41   41   12 1
    42   42   41 1
    43   43   41 1
    44   19   41 1
    45   21   38 1
    46   31   33 ar
    47   35   38 1
@<TRIPOS>SUBSTRUCTURE
     1 RES1 1

@<TRIPOS>CRYSIN
   6.8502    6.5705   17.6761  90.0000  98.4320  90.0000  11 1

