# MOL2 file generated by ConQuest
# Please check atom types

@<TRIPOS>MOLECULE
LAPVOQ
    22    23     1
SMALL
NO_CHARGES
****
Generated from CSD

@<TRIPOS>ATOM
      1 N1        -0.8919    3.3583    4.5735 N.pl3     1 RES1    0.0000
      2 O1        -1.1940    3.0054    5.7123 O.2       1 RES1    0.0000
      3 N2         1.3498    6.5563    1.6895 N.pl3     1 RES1    0.0000
      4 C1         1.2938    6.9709    4.1130 C.ar      1 RES1    0.0000
      5 C2         0.9772    6.1517    3.0215 C.ar      1 RES1    0.0000
      6 O2        -1.2257    2.7523    3.5674 O.2       1 RES1    0.0000
      7 C3         0.2791    4.9741    3.1574 C.ar      1 RES1    0.0000
      8 H1         0.0716    4.4552    2.4144 H         1 RES1    0.0000
      9 C4        -0.1027    4.5840    4.4206 C.ar      1 RES1    0.0000
     10 C5         0.8659    6.5281    5.3653 C.ar      1 RES1    0.0000
     11 H2         1.0520    7.0494    6.1121 H         1 RES1    0.0000
     12 C6         0.1799    5.3498    5.5359 C.ar      1 RES1    0.0000
     13 H3        -0.0873    5.0740    6.3825 H         1 RES1    0.0000
     14 C7         2.0421    8.2600    3.9600 C.3       1 RES1    0.0000
     15 H4         2.8479    8.1042    3.4611 H         1 RES1    0.0000
     16 H5         2.2649    8.6061    4.8271 H         1 RES1    0.0000
     17 H6         1.4943    8.8943    3.4931 H         1 RES1    0.0000
     18 N3         0.7714    7.6170    1.0880 N.2       1 RES1    0.0000
     19 N4         1.2549    7.6647   -0.1090 N.2       1 RES1    0.0000
     20 N5         2.1487    6.6620   -0.3153 N.2       1 RES1    0.0000
     21 C8         2.1813    5.9977    0.8101 C.2       1 RES1    0.0000
     22 H7         2.7062    5.2479    0.9729 H         1 RES1    0.0000
@<TRIPOS>BOND
     1    1    2 2
     2    3    5 1
     3    4    5 ar
     4    5    7 ar
     5    6    1 2
     6    7    8 1
     7    9    1 1
     8   10    4 ar
     9   11   10 1
    10   12    9 ar
    11   13   12 1
    12   14    4 1
    13   15   14 1
    14   16   14 1
    15   17   14 1
    16   18    3 1
    17   19   18 2
    18   20   19 1
    19   21    3 1
    20   22   21 1
    21    7    9 ar
    22   10   12 ar
    23   20   21 2
@<TRIPOS>SUBSTRUCTURE
     1 RES1 1

@<TRIPOS>CRYSIN
   8.1620   12.4240    9.2010  90.0000 104.8680  90.0000 231 1

