# MOL2 file generated by ConQuest
# Please check atom types

@<TRIPOS>MOLECULE
LAPVIK
    23    24     1
SMALL
NO_CHARGES
****
Generated from CSD

@<TRIPOS>ATOM
      1 N1        -0.1866    6.2402    6.9077 N.pl3     1 RES1    0.0000
      2 C1         0.2814    4.8941    6.6381 C.ar      1 RES1    0.0000
      3 N2         0.2252    2.0592    4.1850 N.pl3     1 RES1    0.0000
      4 N3         2.4832    2.5733    8.4502 N.pl3     1 RES1    0.0000
      5 C2         1.0795    4.3418    7.6113 C.ar      1 RES1    0.0000
      6 H1         1.2647    4.8192    8.3882 H         1 RES1    0.0000
      7 C3         1.3197    2.3596    6.3015 C.ar      1 RES1    0.0000
      8 H2         1.6834    1.5120    6.1819 H         1 RES1    0.0000
      9 O1        -0.6838    2.3654    3.4208 O.2       1 RES1    0.0000
     10 C4        -0.0574    4.2170    5.4257 C.ar      1 RES1    0.0000
     11 N4        -0.8028    4.7714    4.4698 N.3       1 RES1    0.0000
     12 O2        -0.8586    6.8313    6.0809 O.2       1 RES1    0.0000
     13 N5         4.1029    2.6358    9.7978 N.2       1 RES1    0.0000
     14 O3         0.9111    1.0753    4.0142 O.2       1 RES1    0.0000
     15 C5         0.4899    2.9062    5.3427 C.ar      1 RES1    0.0000
     16 C6         1.6025    3.0853    7.4366 C.ar      1 RES1    0.0000
     17 N6         3.5412    3.3036    8.8582 N.2       1 RES1    0.0000
     18 O4         0.1156    6.7583    7.9702 O.2       1 RES1    0.0000
     19 N7         3.4389    1.4756   10.0355 N.2       1 RES1    0.0000
     20 C7         2.4476    1.4713    9.1905 C.2       1 RES1    0.0000
     21 H3         1.8102    0.7970    9.1163 H         1 RES1    0.0000
     22 H4        -0.9607    4.2740    3.7551 H         1 RES1    0.0000
     23 H5        -1.0679    5.6583    4.5145 H         1 RES1    0.0000
@<TRIPOS>BOND
     1    1    2 1
     2    2    5 ar
     3    3    9 2
     4    4   16 1
     5    5    6 1
     6    7    8 1
     7   10    2 ar
     8   11   10 1
     9   12    1 2
    10   13   17 2
    11   14    3 2
    12   15    3 1
    13   16    5 ar
    14   17    4 1
    15   18    1 2
    16   19   13 1
    17   20    4 1
    18   21   20 1
    19   22   11 1
    20   23   11 1
    21    7   15 ar
    22    7   16 ar
    23   10   15 ar
    24   19   20 2
@<TRIPOS>SUBSTRUCTURE
     1 RES1 1

@<TRIPOS>CRYSIN
  12.7800    7.1353   11.0435  90.0000 109.6250  90.0000  14 1

