# MOL2 file generated by ConQuest
# Please check atom types

@<TRIPOS>MOLECULE
LAPVUW
    25    26     1
SMALL
NO_CHARGES
****
Generated from CSD

@<TRIPOS>ATOM
      1 O1         5.4682   14.2616    5.8905 O.2       1 RES1    0.0000
      2 N1         6.2476   12.1928    5.9854 N.pl3     1 RES1    0.0000
      3 H1         6.7626   11.6181    6.3658 H         1 RES1    0.0000
      4 O2         2.3815   13.3494    5.9324 O.2       1 RES1    0.0000
      5 N2         2.8869   10.7808    1.6965 N.pl3     1 RES1    0.0000
      6 O3         3.7449   12.3031    7.2383 O.2       1 RES1    0.0000
      7 O4         7.0912   13.7811    7.2387 O.2       1 RES1    0.0000
      8 N3         6.2638   13.4883    6.3845 N.pl3     1 RES1    0.0000
      9 N4         3.3422   12.6295    6.1357 N.pl3     1 RES1    0.0000
     10 N5         1.5336   10.8988    0.0374 N.2       1 RES1    0.0000
     11 N6         7.3040   10.8694    3.6500 N.pl3     1 RES1    0.0000
     12 O5         7.9998   10.7460    4.6163 O.2       1 RES1    0.0000
     13 C1         5.3916   11.7905    4.9549 C.ar      1 RES1    0.0000
     14 C2         3.7300   11.0866    2.8107 C.ar      1 RES1    0.0000
     15 C3         5.8665   11.1281    3.8226 C.ar      1 RES1    0.0000
     16 C4         4.0167   12.0577    4.9571 C.ar      1 RES1    0.0000
     17 C5         5.0645   10.7614    2.7562 C.ar      1 RES1    0.0000
     18 H2         5.4177   10.3093    2.0245 H         1 RES1    0.0000
     19 C6         3.1945   11.7427    3.8989 C.ar      1 RES1    0.0000
     20 H3         2.2923   11.9677    3.9183 H         1 RES1    0.0000
     21 O6         7.7255   10.7549    2.5350 O.2       1 RES1    0.0000
     22 N7         2.7979    9.5440    1.1778 N.2       1 RES1    0.0000
     23 N8         1.9779    9.6331    0.1824 N.2       1 RES1    0.0000
     24 C7         2.1076   11.5834    0.9783 C.2       1 RES1    0.0000
     25 H4         1.9912   12.4938    1.1277 H         1 RES1    0.0000
@<TRIPOS>BOND
     1    1    8 2
     2    2    3 1
     3    4    9 2
     4    5   14 1
     5    6    9 2
     6    7    8 2
     7    8    2 1
     8    9   16 1
     9   10   23 1
    10   11   12 2
    11   13    2 1
    12   14   17 ar
    13   15   11 1
    14   16   13 ar
    15   17   15 ar
    16   18   17 1
    17   19   14 ar
    18   20   19 1
    19   21   11 2
    20   22    5 1
    21   23   22 2
    22   24    5 1
    23   25   24 1
    24   10   24 2
    25   13   15 ar
    26   16   19 ar
@<TRIPOS>SUBSTRUCTURE
     1 RES1 1

@<TRIPOS>CRYSIN
   7.9223   18.5920    7.5610  90.0000  98.7300  90.0000  14 1

