# MOL2 file generated by ConQuest
# Please check atom types

@<TRIPOS>MOLECULE
LAPWOR
    23    24     1
SMALL
NO_CHARGES
****
Generated from CSD

@<TRIPOS>ATOM
      1 C1         5.9330    8.6176    3.2200 C.ar      1 RES1    0.0000
      2 N1         6.9817    7.9980    2.5007 N.pl3     1 RES1    0.0000
      3 C2         5.0019    9.2762    5.3133 C.ar      1 RES1    0.0000
      4 C3         3.8028    9.6682    3.2826 C.ar      1 RES1    0.0000
      5 N2         2.6546   10.1845    2.5404 N.pl3     1 RES1    0.0000
      6 C4         3.8645    9.7619    4.6853 C.ar      1 RES1    0.0000
      7 C5         6.0354    8.7050    4.6051 C.ar      1 RES1    0.0000
      8 H1         6.7893    8.3836    5.0441 H         1 RES1    0.0000
      9 C6         4.8181    9.1002    2.5594 C.ar      1 RES1    0.0000
     10 H2         4.7579    9.0401    1.6338 H         1 RES1    0.0000
     11 N3         5.1733    9.3763    6.7799 N.pl3     1 RES1    0.0000
     12 C7         8.0719    7.5280    3.1263 C.2       1 RES1    0.0000
     13 H3         8.2469    7.5838    4.0383 H         1 RES1    0.0000
     14 N4         2.7533   10.3710    5.4261 N.pl3     1 RES1    0.0000
     15 O1         2.5137    9.8125    1.4109 O.2       1 RES1    0.0000
     16 N5         8.2317    7.0833    1.0113 N.2       1 RES1    0.0000
     17 N6         8.8199    6.9958    2.2563 N.2       1 RES1    0.0000
     18 N7         7.1081    7.7103    1.1812 N.2       1 RES1    0.0000
     19 O2         4.2371    9.7619    7.4310 O.2       1 RES1    0.0000
     20 O3         6.2613    9.1139    7.2352 O.2       1 RES1    0.0000
     21 O4         2.8601   11.5459    5.7183 O.2       1 RES1    0.0000
     22 O5         1.8099    9.6650    5.6626 O.2       1 RES1    0.0000
     23 O6         1.8673   10.9095    3.1059 O.2       1 RES1    0.0000
@<TRIPOS>BOND
     1    1    2 1
     2    2   12 1
     3    3    6 ar
     4    4    5 1
     5    5   15 2
     6    6    4 ar
     7    7    1 ar
     8    8    7 1
     9    9    1 ar
    10   10    9 1
    11   11    3 1
    12   12   13 1
    13   14    6 1
    14   16   17 1
    15   17   12 2
    16   18    2 1
    17   19   11 2
    18   20   11 2
    19   21   14 2
    20   22   14 2
    21   23    5 2
    22    3    7 ar
    23    4    9 ar
    24   16   18 2
@<TRIPOS>SUBSTRUCTURE
     1 RES1 1

@<TRIPOS>CRYSIN
   7.2628   10.5375   13.5924  90.0000  90.0000  90.0000  19 1

