# MOL2 file generated by ConQuest
# Please check atom types

@<TRIPOS>MOLECULE
LAPWAD
    23    24     1
SMALL
USER_CHARGES
****
Generated from CSD

@<TRIPOS>ATOM
      1 C1         1.5068   -0.0021    1.4477 C.ar      1 RES1    0.0000
      2 H1         0.6078   -0.2310    1.3878 H         1 RES1    0.0000
      3 N1         0.9263    1.9786    2.7314 N.pl3     1 RES1    0.0000
      4 C2         1.8915    1.1556    2.0885 C.ar      1 RES1    0.0000
      5 C3         3.8425   -0.4919    0.9189 C.ar      1 RES1    0.0000
      6 C4         2.4765   -0.8202    0.8949 C.ar      1 RES1    0.0000
      7 C5         4.1399    0.7214    1.5473 C.ar      1 RES1    0.0000
      8 N2         1.9876   -2.0433    0.2525 N.pl3     1 RES1    0.0000
      9 C6         3.2221    1.5354    2.1407 C.ar      1 RES1    0.0000
     10 H2         3.4810    2.3209    2.5662 H         1 RES1    0.0000
     11 O1         0.8576   -2.0342   -0.1884 O.2       1 RES1    0.0000
     12 N3         4.9805   -1.1375    0.4383 N.2       1 RES1    0.0000
     13 N4         1.1185    3.3046    2.8815 N.2       1 RES1    0.0000
     14 O2         2.7388   -3.0061    0.2219 O.2       1 RES1    0.0000
     15 N5        -0.8038    2.7640    3.7425 N.2       1 RES1    0.0000
     16 N6         4.9456   -1.9890   -0.4379 N.1       1 RES1    1.0000
     17 N7         0.0765    3.7498    3.4929 N.2       1 RES1    0.0000
     18 C7        -0.2563    1.6766    3.2789 C.2       1 RES1    0.0000
     19 H3        -0.6283    0.8251    3.3210 H         1 RES1    0.0000
     20 N8         5.5446    1.1764    1.5301 N.pl3     1 RES1    0.0000
     21 O3         5.8639    1.8714    0.6023 O.2       1 RES1    0.0000
     22 O4         6.2650    0.8300    2.3954 O.2       1 RES1    0.0000
     23 N9         5.1380   -2.7313   -1.2444 N.2       1 RES1   -1.0000
@<TRIPOS>BOND
     1    1    2 1
     2    3    4 1
     3    4    1 ar
     4    5    6 ar
     5    6    1 ar
     6    7    5 ar
     7    8    6 1
     8    9    4 ar
     9   10    9 1
    10   11    8 2
    11   12    5 1
    12   13    3 1
    13   14    8 2
    14   15   17 1
    15   16   12 2
    16   17   13 2
    17   18    3 1
    18   19   18 1
    19   20    7 1
    20   21   20 2
    21   22   20 2
    22   23   16 2
    23    7    9 ar
    24   15   18 2
@<TRIPOS>SUBSTRUCTURE
     1 RES1 1

@<TRIPOS>CRYSIN
  13.9435    6.9570   12.8193  90.0000 117.3630  90.0000  14 1

