# MOL2 file generated by ConQuest
# Please check atom types

@<TRIPOS>MOLECULE
LAPWEH
    24    25     1
SMALL
NO_CHARGES
****
Generated from CSD

@<TRIPOS>ATOM
      1 N1        -0.2519   10.6809    2.6607 N.pl3     1 RES1    0.0000
      2 N2         3.4746   13.5606    5.7750 N.pl3     1 RES1    0.0000
      3 C1         0.7249   11.2928    4.8406 C.ar      1 RES1    0.0000
      4 C2         2.4353   13.0940    3.5270 C.ar      1 RES1    0.0000
      5 C3         1.6125   12.0398    5.5755 C.ar      1 RES1    0.0000
      6 H1         1.6334   11.9707    6.5024 H         1 RES1    0.0000
      7 N3        -0.1245   10.3288    5.5596 N.pl3     1 RES1    0.0000
      8 O1        -0.6676   10.7219    6.5783 O.2       1 RES1    0.0000
      9 C4         1.4869   12.3531    2.8359 C.ar      1 RES1    0.0000
     10 H2         1.4041   12.4809    1.9179 H         1 RES1    0.0000
     11 C5         0.6589   11.4339    3.4539 C.ar      1 RES1    0.0000
     12 O2        -0.2090    9.1928    5.1187 O.2       1 RES1    0.0000
     13 C6         2.4723   12.8927    4.9172 C.ar      1 RES1    0.0000
     14 N4        -1.1765    9.5017    1.1135 N.2       1 RES1    0.0000
     15 O3         4.5457   13.8429    5.2740 O.2       1 RES1    0.0000
     16 O4         3.2013   13.7460    6.9496 O.2       1 RES1    0.0000
     17 N5        -1.5627   10.5923    2.9759 N.2       1 RES1    0.0000
     18 C7        -0.0538   10.0153    1.5251 C.2       1 RES1    0.0000
     19 H3         0.7643    9.9300    1.0906 H         1 RES1    0.0000
     20 N6        -2.1000    9.8857    2.0288 N.2       1 RES1    0.0000
     21 C8         3.3246   14.0345    2.7474 C.3       1 RES1    0.0000
     22 H4         3.0027   14.1057    1.8462 H         1 RES1    0.0000
     23 H5         4.2226   13.6939    2.7411 H         1 RES1    0.0000
     24 H6         3.3148   14.9016    3.1602 H         1 RES1    0.0000
@<TRIPOS>BOND
     1    1   11 1
     2    2   13 1
     3    3    5 ar
     4    4    9 ar
     5    5    6 1
     6    7    3 1
     7    8    7 2
     8    9   10 1
     9   11    3 ar
    10   12    7 2
    11   13    4 ar
    12   14   18 2
    13   15    2 2
    14   16    2 2
    15   17    1 1
    16   18    1 1
    17   19   18 1
    18   20   14 1
    19   21    4 1
    20   22   21 1
    21   23   21 1
    22   24   21 1
    23    5   13 ar
    24    9   11 ar
    25   17   20 2
@<TRIPOS>SUBSTRUCTURE
     1 RES1 1

@<TRIPOS>CRYSIN
   5.7900   13.2860   13.7880  90.0000  90.0000  90.0000  19 1

