# MOL2 file generated by ConQuest
# Please check atom types

@<TRIPOS>MOLECULE
LAPYUY
    30    30     1
SMALL
NO_CHARGES
****
Generated from CSD

@<TRIPOS>ATOM
      1 C1         1.6958    5.5667    4.2264 C.ar      1 RES1    0.0000
      2 C2         2.2324    5.4670    2.9310 C.ar      1 RES1    0.0000
      3 C3         1.7850    6.2729    1.8930 C.ar      1 RES1    0.0000
      4 H1         2.1550    6.1731    1.0455 H         1 RES1    0.0000
      5 C4         0.8019    7.2183    2.0959 C.ar      1 RES1    0.0000
      6 C5         0.2938    7.3469    3.3807 C.ar      1 RES1    0.0000
      7 H2        -0.3554    7.9914    3.5472 H         1 RES1    0.0000
      8 C6         0.7247    6.5454    4.4183 C.ar      1 RES1    0.0000
      9 H3         0.3579    6.6624    5.2647 H         1 RES1    0.0000
     10 C7         1.3035    4.2187    6.2512 C.2       1 RES1    0.0000
     11 C8         2.0148    3.2616    7.1774 C.3       1 RES1    0.0000
     12 H4         2.6025    3.7655    7.7620 H         1 RES1    0.0000
     13 H5         2.5652    2.6622    6.6500 H         1 RES1    0.0000
     14 C9         1.0632    2.4399    8.0248 C.3       1 RES1    0.0000
     15 H6         0.3284    2.1438    7.4658 H         1 RES1    0.0000
     16 H7         1.5305    1.6496    8.3371 H         1 RES1    0.0000
     17 C10        0.5019    3.1599    9.2073 C.2       1 RES1    0.0000
     18 C11        0.2858    8.0663    0.9639 C.3       1 RES1    0.0000
     19 H8        -0.5452    7.7045    0.6458 H         1 RES1    0.0000
     20 H9         0.9268    8.0698    0.2483 H         1 RES1    0.0000
     21 H10        0.1469    8.9635    1.2732 H         1 RES1    0.0000
     22 N1         2.1035    4.7440    5.2903 N.am      1 RES1    0.0000
     23 H11        2.8982    4.4759    5.2821 H         1 RES1    0.0000
     24 N2         3.2926    4.5060    2.5985 N.pl3     1 RES1    0.0000
     25 O1         0.1170    4.4787    6.3626 O.2       1 RES1    0.0000
     26 O2         1.0658    4.0919    9.7533 O.2       1 RES1    0.0000
     27 O3        -0.6197    2.6508    9.6427 O.3       1 RES1    0.0000
     28 H12       -0.8342    3.0013   10.3617 H         1 RES1    0.0000
     29 O4         3.6364    4.4034    1.4378 O.2       1 RES1    0.0000
     30 O5         3.8158    3.8504    3.4793 O.2       1 RES1    0.0000
@<TRIPOS>BOND
     1    1    2 ar
     2    2    3 ar
     3    3    4 1
     4    5    3 ar
     5    6    5 ar
     6    7    6 1
     7    8    1 ar
     8    9    8 1
     9   10   11 1
    10   11   12 1
    11   13   11 1
    12   14   11 1
    13   15   14 1
    14   16   14 1
    15   17   14 1
    16   18    5 1
    17   19   18 1
    18   20   18 1
    19   21   18 1
    20   22    1 1
    21   23   22 1
    22   24    2 1
    23   25   10 2
    24   26   17 2
    25   27   17 1
    26   28   27 1
    27   29   24 2
    28   30   24 2
    29    6    8 ar
    30   10   22 1
@<TRIPOS>SUBSTRUCTURE
     1 RES1 1

@<TRIPOS>CRYSIN
   4.8531   11.0150   11.7870  69.5900  78.7700  83.6200   2 1

