# MOL2 file generated by ConQuest
# Please check atom types

@<TRIPOS>MOLECULE
LAQDIS
    40    39     1
SMALL
NO_CHARGES
****
Generated from CSD

@<TRIPOS>ATOM
      1 C1         3.1488   -3.2023    1.7209 C.3       1 RES1    0.0000
      2 H1         2.9205   -2.8958    0.8404 H         1 RES1    0.0000
      3 H2         2.3564   -3.5129    2.1664 H         1 RES1    0.0000
      4 H3         3.7812   -3.9208    1.6555 H         1 RES1    0.0000
      5 C2         3.7409   -2.0950    2.4881 C.3       1 RES1    0.0000
      6 H4         3.9703   -2.4007    3.3799 H         1 RES1    0.0000
      7 H5         4.5542   -1.7934    2.0531 H         1 RES1    0.0000
      8 C3         2.9306    0.0196    1.7487 C.2       1 RES1    0.0000
      9 C4         1.8858    1.0785    1.9590 C.2       1 RES1    0.0000
     10 C5         0.6951    1.0746    1.0981 C.2       1 RES1    0.0000
     11 C6        -0.1979    2.2611    1.0932 C.3       1 RES1    0.0000
     12 H6        -0.9600    2.0858    0.5361 H         1 RES1    0.0000
     13 H7         0.2798    3.0204    0.7515 H         1 RES1    0.0000
     14 H8        -0.4916    2.4447    1.9885 H         1 RES1    0.0000
     15 O1         2.7860   -0.9856    2.5757 O.3       1 RES1    0.0000
     16 O2         3.8009    0.1245    0.9210 O.2       1 RES1    0.0000
     17 O3         3.1768    1.8800    3.5564 O.3       1 RES1    0.0000
     18 H9         3.2303    2.4904    4.1009 H         1 RES1    0.0000
     19 N1         2.0046    2.0103    2.8289 N.2       1 RES1    0.0000
     20 N2         0.5712    0.0027    0.4053 N.2       1 RES1    0.0000
     21 C1B       -3.1488    3.2023   -1.7209 C.3       1 RES1    0.0000
     22 H1B       -2.9205    2.8958   -0.8404 H         1 RES1    0.0000
     23 H2B       -2.3564    3.5129   -2.1664 H         1 RES1    0.0000
     24 H3B       -3.7812    3.9208   -1.6555 H         1 RES1    0.0000
     25 C2B       -3.7409    2.0950   -2.4881 C.3       1 RES1    0.0000
     26 H4B       -3.9703    2.4007   -3.3799 H         1 RES1    0.0000
     27 H5B       -4.5542    1.7934   -2.0531 H         1 RES1    0.0000
     28 C3B       -2.9306   -0.0196   -1.7487 C.2       1 RES1    0.0000
     29 C4B       -1.8858   -1.0785   -1.9590 C.2       1 RES1    0.0000
     30 C5B       -0.6951   -1.0746   -1.0981 C.2       1 RES1    0.0000
     31 C6B        0.1979   -2.2611   -1.0932 C.3       1 RES1    0.0000
     32 H6B        0.9600   -2.0858   -0.5361 H         1 RES1    0.0000
     33 H7B       -0.2798   -3.0204   -0.7515 H         1 RES1    0.0000
     34 H8B        0.4916   -2.4447   -1.9885 H         1 RES1    0.0000
     35 O1B       -2.7860    0.9856   -2.5757 O.3       1 RES1    0.0000
     36 O2B       -3.8009   -0.1245   -0.9210 O.2       1 RES1    0.0000
     37 O3B       -3.1768   -1.8800   -3.5564 O.3       1 RES1    0.0000
     38 H9B       -3.2303   -2.4904   -4.1009 H         1 RES1    0.0000
     39 N1B       -2.0046   -2.0103   -2.8289 N.2       1 RES1    0.0000
     40 N2B       -0.5712   -0.0027   -0.4053 N.2       1 RES1    0.0000
@<TRIPOS>BOND
     1    1    2 1
     2    3    1 1
     3    4    1 1
     4    5    1 1
     5    6    5 1
     6    7    5 1
     7    8    9 1
     8    9   10 1
     9   10   11 1
    10   11   12 1
    11   13   11 1
    12   14   11 1
    13   15    5 1
    14   16    8 2
    15   17   18 1
    16   19    9 2
    17   20   10 2
    18   21   22 1
    19   23   21 1
    20   24   21 1
    21   25   21 1
    22   26   25 1
    23   27   25 1
    24   28   29 1
    25   29   30 1
    26   30   31 1
    27   31   32 1
    28   33   31 1
    29   34   31 1
    30   35   25 1
    31   36   28 2
    32   37   38 1
    33   39   29 2
    34   40   20 1
    35    8   15 1
    36   17   19 1
    37   28   35 1
    38   30   40 2
    39   37   39 1
@<TRIPOS>SUBSTRUCTURE
     1 RES1 1

@<TRIPOS>CRYSIN
  10.8587    8.3068    8.8465  90.0000  99.7820  90.0000  14 1

