# MOL2 file generated by ConQuest
# Please check atom types

@<TRIPOS>MOLECULE
LAQKIZ
    26    26     1
SMALL
NO_CHARGES
****
Generated from CSD

@<TRIPOS>ATOM
      1 N1         0.7827   -0.4713    2.4585 N.pl3     1 RES1    0.0000
      2 N2         2.5231    7.0467    0.7576 N.pl3     1 RES1    0.0000
      3 O1         1.0190   -0.9751    3.5389 O.2       1 RES1    0.0000
      4 O2         0.0669   -0.9772    1.6293 O.2       1 RES1    0.0000
      5 O3        -0.5312    1.8318    2.8879 O.3       1 RES1    0.0000
      6 O4         3.0264    7.6568    1.6869 O.2       1 RES1    0.0000
      7 O5         2.4636    7.4871   -0.3749 O.2       1 RES1    0.0000
      8 C1         2.4738    0.6092    1.0685 C.3       1 RES1    0.0000
      9 H1         3.0646   -0.0924    1.3521 H         1 RES1    0.0000
     10 H2         2.9785    1.4128    0.9202 H         1 RES1    0.0000
     11 H3         2.0375    0.3508    0.2529 H         1 RES1    0.0000
     12 C2         1.4391    0.8563    2.1340 C.3       1 RES1    0.0000
     13 H4         1.8975    1.1775    2.9382 H         1 RES1    0.0000
     14 C3         0.3405    1.8446    1.7831 C.3       1 RES1    0.0000
     15 H5        -0.1380    1.5294    0.9875 H         1 RES1    0.0000
     16 C4         0.9275    3.2175    1.5062 C.ar      1 RES1    0.0000
     17 C5         1.1864    4.0903    2.5525 C.ar      1 RES1    0.0000
     18 H6         1.0038    3.8277    3.4252 H         1 RES1    0.0000
     19 C6         1.7114    5.3426    2.3147 C.ar      1 RES1    0.0000
     20 H7         1.8814    5.9274    3.0176 H         1 RES1    0.0000
     21 C7         1.9777    5.7073    1.0172 C.ar      1 RES1    0.0000
     22 C8         1.7264    4.8697   -0.0503 C.ar      1 RES1    0.0000
     23 H8         1.9073    5.1386   -0.9216 H         1 RES1    0.0000
     24 C9         1.2015    3.6237    0.2111 C.ar      1 RES1    0.0000
     25 H9         1.0285    3.0441   -0.4951 H         1 RES1    0.0000
     26 H10       -1.0819    2.4159    2.8118 H         1 RES1    0.0000
@<TRIPOS>BOND
     1    1    3 2
     2    2    6 2
     3    4    1 2
     4    5   14 1
     5    7    2 2
     6    8    9 1
     7   10    8 1
     8   11    8 1
     9   12    1 1
    10   13   12 1
    11   14   12 1
    12   15   14 1
    13   16   14 1
    14   17   16 ar
    15   18   17 1
    16   19   17 ar
    17   20   19 1
    18   21    2 1
    19   22   21 ar
    20   23   22 1
    21   24   16 ar
    22   25   24 1
    23   26    5 1
    24    8   12 1
    25   19   21 ar
    26   22   24 ar
@<TRIPOS>SUBSTRUCTURE
     1 RES1 1

@<TRIPOS>CRYSIN
   7.4013   10.5040   13.6810  90.0000 100.4650  90.0000  14 1

