# MOL2 file generated by ConQuest
# Please check atom types

@<TRIPOS>MOLECULE
LAQSUT
    34    35     1
SMALL
NO_CHARGES
****
Generated from CSD

@<TRIPOS>ATOM
      1 O1         1.0596    9.5959    6.0624 O.3       1 RES1    0.0000
      2 H1         1.1755    8.7791    6.2235 H         1 RES1    0.0000
      3 O2        -1.5378    9.2639   10.0897 O.3       1 RES1    0.0000
      4 H2        -1.9557    9.7350   10.6551 H         1 RES1    0.0000
      5 O3         4.8061    2.5913    3.6365 O.2       1 RES1    0.0000
      6 O4         4.7875    4.4406    2.4878 O.2       1 RES1    0.0000
      7 N1         0.9589    7.4383    7.3871 N.2       1 RES1    0.0000
      8 N2         1.4973    6.1880    7.5373 N.pl3     1 RES1    0.0000
      9 H3         1.3044    5.7114    8.2480 H         1 RES1    0.0000
     10 N3         4.4909    3.7860    3.4895 N.pl3     1 RES1    0.0000
     11 C1        -0.1182    9.3840    8.1729 C.ar      1 RES1    0.0000
     12 C2         0.2618   10.1347    7.0311 C.ar      1 RES1    0.0000
     13 C3        -0.1561   11.4457    6.8410 C.ar      1 RES1    0.0000
     14 H4         0.1508   11.9426    6.0916 H         1 RES1    0.0000
     15 C4        -1.0176   12.0196    7.7491 C.ar      1 RES1    0.0000
     16 H5        -1.3065   12.9161    7.6220 H         1 RES1    0.0000
     17 C5        -1.4683   11.3040    8.8449 C.ar      1 RES1    0.0000
     18 H6        -2.0738   11.7063    9.4564 H         1 RES1    0.0000
     19 C6        -1.0386    9.9983    9.0544 C.ar      1 RES1    0.0000
     20 C7         0.4294    8.0270    8.4236 C.2       1 RES1    0.0000
     21 C8         0.4736    7.3883    9.7821 C.3       1 RES1    0.0000
     22 H7        -0.2488    6.7294    9.8572 H         1 RES1    0.0000
     23 H8         0.3606    8.0756   10.4710 H         1 RES1    0.0000
     24 H9         1.3373    6.9414    9.9056 H         1 RES1    0.0000
     25 C9         2.2188    5.6263    6.5044 C.ar      1 RES1    0.0000
     26 C10        2.5598    6.3446    5.3505 C.ar      1 RES1    0.0000
     27 H10        2.2668    7.2412    5.2416 H         1 RES1    0.0000
     28 C11        3.3242    5.7397    4.3758 C.ar      1 RES1    0.0000
     29 H11        3.5667    6.2218    3.5937 H         1 RES1    0.0000
     30 C12        3.7350    4.4300    4.5417 C.ar      1 RES1    0.0000
     31 C13        3.4069    3.7023    5.6762 C.ar      1 RES1    0.0000
     32 H12        3.6951    2.8030    5.7731 H         1 RES1    0.0000
     33 C14        2.6568    4.3085    6.6558 C.ar      1 RES1    0.0000
     34 H13        2.4342    3.8265    7.4440 H         1 RES1    0.0000
@<TRIPOS>BOND
     1    1    2 1
     2    3    4 1
     3    5   10 2
     4    6   10 2
     5    7    8 1
     6    8    9 1
     7   10   30 1
     8   11   12 ar
     9   12    1 1
    10   13   12 ar
    11   14   13 1
    12   15   13 ar
    13   16   15 1
    14   17   15 ar
    15   18   17 1
    16   19    3 1
    17   20    7 2
    18   21   20 1
    19   22   21 1
    20   23   21 1
    21   24   21 1
    22   25    8 1
    23   26   25 ar
    24   27   26 1
    25   28   26 ar
    26   29   28 1
    27   30   28 ar
    28   31   30 ar
    29   32   31 1
    30   33   25 ar
    31   34   33 1
    32   11   19 ar
    33   11   20 1
    34   17   19 ar
    35   31   33 ar
@<TRIPOS>SUBSTRUCTURE
     1 RES1 1

@<TRIPOS>CRYSIN
   7.9714   13.5021   12.1081  90.0000  90.1860  90.0000 231 1

