# MOL2 file generated by ConQuest
# Please check atom types

@<TRIPOS>MOLECULE
LARJIA
    31    33     1
SMALL
NO_CHARGES
****
Generated from CSD

@<TRIPOS>ATOM
      1 O1         8.4262    0.7002    0.3227 O.2       1 RES1    0.0000
      2 O2        10.0867    0.9784    1.6911 O.2       1 RES1    0.0000
      3 N1         4.6331    3.6163    5.6705 N.ar      1 RES1    0.0000
      4 N2         8.9549    1.2407    1.2875 N.pl3     1 RES1    0.0000
      5 N3         6.1784    4.3527    7.9293 N.ar      1 RES1    0.0000
      6 C1         3.9394    1.8615    9.3798 C.ar      1 RES1    0.0000
      7 H1         3.7727    1.4470   10.2190 H         1 RES1    0.0000
      8 C2         4.9340    2.7915    9.2745 C.ar      1 RES1    0.0000
      9 H2         5.4535    3.0213   10.0366 H         1 RES1    0.0000
     10 C3         5.1878    3.4128    8.0295 C.ar      1 RES1    0.0000
     11 C4         4.4101    3.0575    6.8992 C.ar      1 RES1    0.0000
     12 C5         5.5858    4.5176    5.5933 C.ar      1 RES1    0.0000
     13 C6         5.9039    5.1112    4.2425 C.3       1 RES1    0.0000
     14 H3         6.4113    5.9529    4.3605 H         1 RES1    0.0000
     15 H4         5.0628    5.3227    3.7663 H         1 RES1    0.0000
     16 C7         6.7217    4.1342    3.4231 C.ar      1 RES1    0.0000
     17 C8         8.0160    3.7934    3.8214 C.ar      1 RES1    0.0000
     18 H5         8.3933    4.2117    4.5859 H         1 RES1    0.0000
     19 C9         8.7601    2.8601    3.1255 C.ar      1 RES1    0.0000
     20 H6         9.6400    2.6322    3.4015 H         1 RES1    0.0000
     21 C10        8.1871    2.2661    2.0143 C.ar      1 RES1    0.0000
     22 C11        6.3421    4.8870    6.7416 C.ar      1 RES1    0.0000
     23 H7         7.0049    5.5609    6.6432 H         1 RES1    0.0000
     24 C12        3.1533    1.5062    8.2557 C.ar      1 RES1    0.0000
     25 H8         2.4624    0.8595    8.3440 H         1 RES1    0.0000
     26 C13        3.3885    2.0950    7.0414 C.ar      1 RES1    0.0000
     27 H9         2.8600    1.8535    6.2887 H         1 RES1    0.0000
     28 C14        6.1853    3.5223    2.2923 C.ar      1 RES1    0.0000
     29 H10        5.3090    3.7521    2.0061 H         1 RES1    0.0000
     30 C15        6.9129    2.5819    1.5803 C.ar      1 RES1    0.0000
     31 H11        6.5445    2.1641    0.8115 H         1 RES1    0.0000
@<TRIPOS>BOND
     1    1    4 2
     2    2    4 2
     3    3   11 ar
     4    4   21 1
     5    5   10 ar
     6    6    7 1
     7    8    6 ar
     8    9    8 1
     9   10    8 ar
    10   11   10 ar
    11   12    3 ar
    12   13   12 1
    13   14   13 1
    14   15   13 1
    15   16   13 1
    16   17   16 ar
    17   18   17 1
    18   19   17 ar
    19   20   19 1
    20   21   19 ar
    21   22    5 ar
    22   23   22 1
    23   24    6 ar
    24   25   24 1
    25   26   11 ar
    26   27   26 1
    27   28   16 ar
    28   29   28 1
    29   30   21 ar
    30   31   30 1
    31   12   22 ar
    32   24   26 ar
    33   28   30 ar
@<TRIPOS>SUBSTRUCTURE
     1 RES1 1

@<TRIPOS>CRYSIN
   6.3151    4.6995   20.5000  90.0000  91.6810  90.0000   4 1

