# MOL2 file generated by ConQuest
# Please check atom types

@<TRIPOS>MOLECULE
LARYIP
    80    85     1
SMALL
NO_CHARGES
****
Generated from CSD

@<TRIPOS>ATOM
      1 N1         3.7963    3.6265    5.6643 N.2       1 RES1    0.0000
      2 O1         2.4576    3.8480    6.0717 O.3       1 RES1    0.0000
      3 H1         1.9044    3.4458    5.4717 H         1 RES1    0.0000
      4 C1         3.0637    3.7407   10.7685 C.3       1 RES1    0.0000
      5 H2         2.6810    4.4726   10.2595 H         1 RES1    0.0000
      6 H3         2.6938    2.9148   10.4203 H         1 RES1    0.0000
      7 C2         2.6462    3.8897   12.2382 C.3       1 RES1    0.0000
      8 H4         2.9094    4.7653   12.5610 H         1 RES1    0.0000
      9 H5         1.6808    3.8223   12.3068 H         1 RES1    0.0000
     10 C3         3.2865    2.8222   13.1016 C.3       1 RES1    0.0000
     11 H6         2.9069    1.9465   12.8778 H         1 RES1    0.0000
     12 C4         4.7892    2.7814   12.9271 C.3       1 RES1    0.0000
     13 H7         5.1530    2.0424   13.4390 H         1 RES1    0.0000
     14 H8         5.1749    3.6026   13.2717 H         1 RES1    0.0000
     15 C5         5.1759    2.6196   11.4594 C.3       1 RES1    0.0000
     16 H9         4.7815    1.7743   11.1581 H         1 RES1    0.0000
     17 C6         6.6812    2.4826   11.2830 C.3       1 RES1    0.0000
     18 H10        7.1129    3.3104   11.5471 H         1 RES1    0.0000
     19 H11        7.0104    1.7758   11.8598 H         1 RES1    0.0000
     20 C7         7.0387    2.1668    9.8493 C.3       1 RES1    0.0000
     21 H12        6.7429    1.2662    9.6437 H         1 RES1    0.0000
     22 H13        8.0040    2.1889    9.7547 H         1 RES1    0.0000
     23 C8         6.4217    3.1320    8.8392 C.3       1 RES1    0.0000
     24 H14        6.8656    4.0014    8.9275 H         1 RES1    0.0000
     25 C9         4.9107    3.3266    9.0874 C.3       1 RES1    0.0000
     26 H15        4.5032    2.4447    8.9577 H         1 RES1    0.0000
     27 C10        4.5880    3.7308   10.5521 C.3       1 RES1    0.0000
     28 C11        4.2803    4.2402    8.0238 C.3       1 RES1    0.0000
     29 H16        3.3166    4.2280    8.1301 H         1 RES1    0.0000
     30 H17        4.5833    5.1495    8.1710 H         1 RES1    0.0000
     31 C12        4.6213    3.8341    6.6136 C.2       1 RES1    0.0000
     32 C13        6.0907    3.6196    6.3238 C.3       1 RES1    0.0000
     33 C14        6.6005    2.6414    7.4122 C.3       1 RES1    0.0000
     34 H18        6.0458    1.8372    7.3329 H         1 RES1    0.0000
     35 C15        7.9868    2.2462    6.9017 C.3       1 RES1    0.0000
     36 H19        8.6366    2.9469    7.0663 H         1 RES1    0.0000
     37 H20        8.2930    1.4228    7.3129 H         1 RES1    0.0000
     38 C16        7.7348    2.0615    5.4099 C.3       1 RES1    0.0000
     39 H21        7.6250    1.1094    5.2049 H         1 RES1    0.0000
     40 C17        6.4441    2.8351    5.0368 C.3       1 RES1    0.0000
     41 H22        5.7280    2.1950    4.8408 H         1 RES1    0.0000
     42 C18        6.8125    4.9641    6.3902 C.3       1 RES1    0.0000
     43 H23        7.7482    4.8343    6.2206 H         1 RES1    0.0000
     44 H24        6.6955    5.3477    7.2627 H         1 RES1    0.0000
     45 H25        6.4466    5.5569    5.7291 H         1 RES1    0.0000
     46 C19        5.1552    5.1210   10.8822 C.3       1 RES1    0.0000
     47 H26        6.1007    5.1286   10.7158 H         1 RES1    0.0000
     48 H27        4.9914    5.3224   11.8065 H         1 RES1    0.0000
     49 H28        4.7280    5.7805   10.3305 H         1 RES1    0.0000
     50 C20        6.8134    3.5918    3.7538 C.3       1 RES1    0.0000
     51 H29        6.9829    4.5254    3.9972 H         1 RES1    0.0000
     52 C21        5.7431    3.5828    2.6661 C.3       1 RES1    0.0000
     53 H30        6.0558    4.0779    1.9054 H         1 RES1    0.0000
     54 H31        4.9404    3.9878    3.0033 H         1 RES1    0.0000
     55 H32        5.5591    2.6774    2.4051 H         1 RES1    0.0000
     56 C22        8.1539    2.9662    3.3339 C.3       1 RES1    0.0000
     57 O2         8.7682    2.6253    4.5825 O.3       1 RES1    0.0000
     58 C23        9.1003    3.8599    2.5719 C.3       1 RES1    0.0000
     59 H33        9.3554    4.6079    3.1338 H         1 RES1    0.0000
     60 H34        8.6459    4.2140    1.7914 H         1 RES1    0.0000
     61 C24       10.3469    3.1191    2.1302 C.3       1 RES1    0.0000
     62 H35       10.8680    3.6883    1.5426 H         1 RES1    0.0000
     63 H36       10.8901    2.9122    2.9066 H         1 RES1    0.0000
     64 C25        9.9951    1.8351    1.4056 C.3       1 RES1    0.0000
     65 H37        9.5412    2.0710    0.5697 H         1 RES1    0.0000
     66 C26        9.0363    1.0437    2.2538 C.3       1 RES1    0.0000
     67 H38        8.7670    0.2480    1.7680 H         1 RES1    0.0000
     68 H39        9.4902    0.7577    3.0619 H         1 RES1    0.0000
     69 O3         7.8695    1.7864    2.6129 O.3       1 RES1    0.0000
     70 C27       11.2359    1.0139    1.0580 C.3       1 RES1    0.0000
     71 H40       11.8097    1.5276    0.4854 H         1 RES1    0.0000
     72 H41       10.9702    0.2092    0.6067 H         1 RES1    0.0000
     73 H42       11.7061    0.7884    1.8640 H         1 RES1    0.0000
     74 O4         3.0429    3.1151   14.5105 O.3       1 RES1    0.0000
     75 C28        1.8911    2.7387   15.0527 C.2       1 RES1    0.0000
     76 O5         1.0337    2.1509   14.4431 O.2       1 RES1    0.0000
     77 C29        1.7988    3.1906   16.4655 C.3       1 RES1    0.0000
     78 H43        2.5285    2.8211   16.9682 H         1 RES1    0.0000
     79 H44        0.9676    2.8947   16.8430 H         1 RES1    0.0000
     80 H45        1.8417    4.1496   16.4980 H         1 RES1    0.0000
@<TRIPOS>BOND
     1    1    2 1
     2    2    3 1
     3    4    5 1
     4    6    4 1
     5    7    4 1
     6    8    7 1
     7    9    7 1
     8   10    7 1
     9   11   10 1
    10   12   10 1
    11   13   12 1
    12   14   12 1
    13   15   12 1
    14   16   15 1
    15   17   15 1
    16   18   17 1
    17   19   17 1
    18   20   17 1
    19   21   20 1
    20   22   20 1
    21   23   20 1
    22   24   23 1
    23   25   23 1
    24   26   25 1
    25   27    4 1
    26   28   25 1
    27   29   28 1
    28   30   28 1
    29   31    1 2
    30   32   31 1
    31   33   23 1
    32   34   33 1
    33   35   33 1
    34   36   35 1
    35   37   35 1
    36   38   35 1
    37   39   38 1
    38   40   32 1
    39   41   40 1
    40   42   32 1
    41   43   42 1
    42   44   42 1
    43   45   42 1
    44   46   27 1
    45   47   46 1
    46   48   46 1
    47   49   46 1
    48   50   40 1
    49   51   50 1
    50   52   50 1
    51   53   52 1
    52   54   52 1
    53   55   52 1
    54   56   50 1
    55   57   38 1
    56   58   56 1
    57   59   58 1
    58   60   58 1
    59   61   58 1
    60   62   61 1
    61   63   61 1
    62   64   61 1
    63   65   64 1
    64   66   64 1
    65   67   66 1
    66   68   66 1
    67   69   56 1
    68   70   64 1
    69   71   70 1
    70   72   70 1
    71   73   70 1
    72   74   10 1
    73   75   74 1
    74   76   75 2
    75   77   75 1
    76   78   77 1
    77   79   77 1
    78   80   77 1
    79   15   27 1
    80   25   27 1
    81   28   31 1
    82   32   33 1
    83   38   40 1
    84   56   57 1
    85   66   69 1
@<TRIPOS>SUBSTRUCTURE
     1 RES1 1

@<TRIPOS>CRYSIN
   8.3161    9.9302   33.0414  90.0000  90.0000  90.0000  19 1

