# MOL2 file generated by ConQuest
# Please check atom types

@<TRIPOS>MOLECULE
LASGUK
    35    36     1
SMALL
NO_CHARGES
****
Generated from CSD

@<TRIPOS>ATOM
      1 O1         4.5543    1.0290    5.5195 O.2       1 RES1    0.0000
      2 O2         2.4676    0.4650    6.0574 O.3       1 RES1    0.0000
      3 O3         2.1912    3.4248    6.3393 O.2       1 RES1    0.0000
      4 O4         0.4372    2.7974    7.4274 O.2       1 RES1    0.0000
      5 N1         5.9064    1.9543    3.3963 N.3       1 RES1    0.0000
      6 N2         1.0828    2.9057    6.3853 N.pl3     1 RES1    0.0000
      7 C1         7.0381    2.0979    2.6726 C.2       1 RES1    0.0000
      8 C2         6.6675    2.3562    1.3615 C.2       1 RES1    0.0000
      9 C3         5.2703    2.3903    1.2993 C.2       1 RES1    0.0000
     10 C4         4.7942    2.1272    2.5954 C.2       1 RES1    0.0000
     11 C5         3.4303    2.1065    2.9919 C.2       1 RES1    0.0000
     12 C6         2.7362    1.7449    4.1178 C.2       1 RES1    0.0000
     13 C7         3.3487    1.0827    5.2760 C.2       1 RES1    0.0000
     14 C8         8.3876    2.0004    3.2875 C.3       1 RES1    0.0000
     15 C9         4.4620    2.6423    0.0669 C.3       1 RES1    0.0000
     16 C10        1.2523    1.9140    4.0949 C.ar      1 RES1    0.0000
     17 C11        0.4694    2.4156    5.1452 C.ar      1 RES1    0.0000
     18 C12       -0.9144    2.5235    5.0831 C.ar      1 RES1    0.0000
     19 C13       -1.5709    2.1425    3.9289 C.ar      1 RES1    0.0000
     20 C14       -0.8413    1.6538    2.8608 C.ar      1 RES1    0.0000
     21 C15        0.5400    1.5368    2.9498 C.ar      1 RES1    0.0000
     22 H1         5.8349    1.7512    4.2486 H         1 RES1    0.0000
     23 H2         2.9188   -0.0073    6.7213 H         1 RES1    0.0000
     24 H3         7.2966    2.4767    0.6337 H         1 RES1    0.0000
     25 H4         2.8331    2.4444    2.2763 H         1 RES1    0.0000
     26 H5         9.0951    2.1030    2.6342 H         1 RES1    0.0000
     27 H6         8.5154    2.6892    4.0158 H         1 RES1    0.0000
     28 H7         8.5146    1.1504    3.6822 H         1 RES1    0.0000
     29 H8         4.9978    2.5426   -0.7090 H         1 RES1    0.0000
     30 H9         4.1275    3.5611   -0.0081 H         1 RES1    0.0000
     31 H10        3.6969    2.1030   -0.0350 H         1 RES1    0.0000
     32 H11       -1.3979    2.8943    5.8307 H         1 RES1    0.0000
     33 H12       -2.5309    2.2202    3.9122 H         1 RES1    0.0000
     34 H13       -1.2863    1.3482    2.0180 H         1 RES1    0.0000
     35 H14        1.0305    1.1651    2.2238 H         1 RES1    0.0000
@<TRIPOS>BOND
     1    1   13 2
     2    2   13 1
     3    3    6 2
     4    4    6 2
     5    5    7 1
     6    6   17 1
     7    7    8 2
     8    8    9 1
     9    9   10 2
    10   10    5 1
    11   11   10 1
    12   12   11 2
    13   13   12 1
    14   14    7 1
    15   15    9 1
    16   16   12 1
    17   17   16 ar
    18   18   17 ar
    19   19   18 ar
    20   20   19 ar
    21   21   16 ar
    22   22    5 1
    23   23    2 1
    24   24    8 1
    25   25   11 1
    26   26   14 1
    27   27   14 1
    28   28   14 1
    29   29   15 1
    30   30   15 1
    31   31   15 1
    32   32   18 1
    33   33   19 1
    34   34   20 1
    35   35   21 1
    36   20   21 ar
@<TRIPOS>SUBSTRUCTURE
     1 RES1 1

@<TRIPOS>CRYSIN
  13.8996    7.3274   14.6266  90.0000 113.1054  90.0000 231 1

