# MOL2 file generated by ConQuest
# Please check atom types

@<TRIPOS>MOLECULE
LASHAR
    49    52     1
SMALL
USER_CHARGES
****
Generated from CSD

@<TRIPOS>ATOM
      1 O1        -2.8633    4.7343   14.4785 O.2       1 RES1   -1.0000
      2 N1        -0.4420    4.5816   15.5068 N.3       1 RES1    0.0000
      3 N2        -2.2109    4.9099   13.3547 N.pl3     1 RES1    1.0000
      4 N3         0.5520    5.4121   11.3272 N.2       1 RES1    0.0000
      5 N4         2.8449    5.9925    6.2396 N.3       1 RES1    0.0000
      6 C1         0.0449    4.6213   14.2033 C.2       1 RES1    0.0000
      7 C2         1.4098    4.3127   14.2670 C.2       1 RES1    0.0000
      8 C3         1.6994    4.1005   15.6292 C.2       1 RES1    0.0000
      9 C4         0.5507    4.2688   16.3734 C.2       1 RES1    0.0000
     10 C5         2.4353    4.1392   13.1847 C.3       1 RES1    0.0000
     11 C6         0.3198    4.1868   17.8459 C.3       1 RES1    0.0000
     12 C7        -0.8920    4.8896   13.1536 C.2       1 RES1    0.0000
     13 C8        -0.6495    5.2057   11.7243 C.2       1 RES1    0.0000
     14 C9        -1.9964    5.3652   11.1132 C.ar      1 RES1    0.0000
     15 C10       -2.4803    5.7429    9.8675 C.ar      1 RES1    0.0000
     16 C11       -3.8582    5.8977    9.7015 C.ar      1 RES1    0.0000
     17 C12       -4.7422    5.6901   10.7533 C.ar      1 RES1    0.0000
     18 C13       -4.2798    5.3429   12.0198 C.ar      1 RES1    0.0000
     19 C14       -2.9168    5.1985   12.1499 C.ar      1 RES1    0.0000
     20 C15        0.9730    5.6016   10.0063 C.ar      1 RES1    0.0000
     21 C16        2.1044    6.4088    9.8294 C.ar      1 RES1    0.0000
     22 C17        2.7137    6.5609    8.6032 C.ar      1 RES1    0.0000
     23 C18        2.2354    5.8613    7.4741 C.ar      1 RES1    0.0000
     24 C19        1.1106    5.0294    7.6566 C.ar      1 RES1    0.0000
     25 C20        0.4912    4.9044    8.8914 C.ar      1 RES1    0.0000
     26 C21        4.2017    6.5050    6.1706 C.3       1 RES1    0.0000
     27 C22        2.4099    5.1501    5.1337 C.3       1 RES1    0.0000
     28 H1        -1.3294    4.6819   15.6587 H         1 RES1    0.0000
     29 H2         2.5743    3.8590   15.9721 H         1 RES1    0.0000
     30 H3         2.0792    3.6178   12.4104 H         1 RES1    0.0000
     31 H4         2.7253    5.0224   12.8376 H         1 RES1    0.0000
     32 H5         3.2118    3.6888   13.5504 H         1 RES1    0.0000
     33 H6         1.1205    3.8236   18.2777 H         1 RES1    0.0000
     34 H7         0.0745    5.0721   18.2174 H         1 RES1    0.0000
     35 H8        -0.4668    3.6107   18.0827 H         1 RES1    0.0000
     36 H9        -1.8522    5.9233    9.1180 H         1 RES1    0.0000
     37 H10       -4.2446    6.1361    8.7999 H         1 RES1    0.0000
     38 H11       -5.7002    5.7956   10.5947 H         1 RES1    0.0000
     39 H12       -4.8668    5.2210   12.7842 H         1 RES1    0.0000
     40 H13        2.4724    6.8668   10.6202 H         1 RES1    0.0000
     41 H14        3.4923    7.1222    8.5398 H         1 RES1    0.0000
     42 H15        0.7989    4.4904    6.9076 H         1 RES1    0.0000
     43 H16       -0.2635    4.2847    8.9740 H         1 RES1    0.0000
     44 H17        4.4489    6.6043    5.2056 H         1 RES1    0.0000
     45 H18        4.2753    7.3776    6.5941 H         1 RES1    0.0000
     46 H19        4.8656    5.8808    6.6452 H         1 RES1    0.0000
     47 H20        2.5635    4.1641    5.3101 H         1 RES1    0.0000
     48 H21        1.4518    5.2849    4.9711 H         1 RES1    0.0000
     49 H22        2.9093    5.4055    4.3233 H         1 RES1    0.0000
@<TRIPOS>BOND
     1    1    3 1
     2    2    6 1
     3    3   12 2
     4    4   13 2
     5    5   23 1
     6    6    7 2
     7    7    8 1
     8    8    9 2
     9    9    2 1
    10   10    7 1
    11   11    9 1
    12   12    6 1
    13   13   12 1
    14   14   13 1
    15   15   14 ar
    16   16   15 ar
    17   17   16 ar
    18   18   17 ar
    19   19    3 1
    20   20    4 1
    21   21   20 ar
    22   22   21 ar
    23   23   22 ar
    24   24   23 ar
    25   25   20 ar
    26   26    5 1
    27   27    5 1
    28   28    2 1
    29   29    8 1
    30   30   10 1
    31   31   10 1
    32   32   10 1
    33   33   11 1
    34   34   11 1
    35   35   11 1
    36   36   15 1
    37   37   16 1
    38   38   17 1
    39   39   18 1
    40   40   21 1
    41   41   22 1
    42   42   24 1
    43   43   25 1
    44   44   26 1
    45   45   26 1
    46   46   26 1
    47   47   27 1
    48   48   27 1
    49   49   27 1
    50   14   19 ar
    51   18   19 ar
    52   24   25 ar
@<TRIPOS>SUBSTRUCTURE
     1 RES1 1

@<TRIPOS>CRYSIN
  10.7644    7.0938   23.6831  90.0000 101.3654  90.0000 231 1

