# MOL2 file generated by ConQuest
# Please check atom types

@<TRIPOS>MOLECULE
LATPIF
    42    43     1
SMALL
NO_CHARGES
****
Generated from CSD

@<TRIPOS>ATOM
      1 O1         6.2930    0.0541    5.9671 O.2       1 RES1    0.0000
      2 N1         5.9328    1.2921    5.9588 N.3       1 RES1    0.0000
      3 C1         6.9543    2.2544    5.4695 C.3       1 RES1    0.0000
      4 C2         7.2435    1.9466    4.0017 C.3       1 RES1    0.0000
      5 C3         8.2312    2.0312    6.2940 C.3       1 RES1    0.0000
      6 C4         6.4791    3.6970    5.6923 C.3       1 RES1    0.0000
      7 C5         5.0094    4.0014    5.4362 C.3       1 RES1    0.0000
      8 O2         4.6661    3.8720    4.0516 O.3       1 RES1    0.0000
      9 C6         4.7126    5.4381    5.9130 C.3       1 RES1    0.0000
     10 C7         4.1731    3.0146    6.2149 C.3       1 RES1    0.0000
     11 C8         4.4657    1.5263    5.9650 C.3       1 RES1    0.0000
     12 C9         3.8797    0.7357    7.1372 C.3       1 RES1    0.0000
     13 C10        3.8627    1.0198    4.6471 C.3       1 RES1    0.0000
     14 N2         2.7584    5.7840    7.2955 N.ar      1 RES1    0.0000
     15 C11        3.2548    5.7840    6.0442 C.ar      1 RES1    0.0000
     16 C12        2.4675    6.1171    4.9615 C.ar      1 RES1    0.0000
     17 C13        1.1610    6.4850    5.1593 C.ar      1 RES1    0.0000
     18 C14        0.6537    6.4994    6.4252 C.ar      1 RES1    0.0000
     19 C15        1.4764    6.1341    7.4537 C.ar      1 RES1    0.0000
     20 H1         5.1295    4.4378    3.6082 H         1 RES1    0.0000
     21 H2         7.5479    0.9877    3.9434 H         1 RES1    0.0000
     22 H3         6.5112    2.1030    3.5207 H         1 RES1    0.0000
     23 H4         8.0155    2.5681    3.6831 H         1 RES1    0.0000
     24 H5         8.5906    1.2050    6.0879 H         1 RES1    0.0000
     25 H6         8.8417    2.7956    5.9317 H         1 RES1    0.0000
     26 H7         7.9893    2.1622    7.3392 H         1 RES1    0.0000
     27 H8         7.0735    4.2204    5.1572 H         1 RES1    0.0000
     28 H9         6.6651    3.8915    6.5626 H         1 RES1    0.0000
     29 H10        5.0906    6.0021    5.3363 H         1 RES1    0.0000
     30 H11        5.1286    5.5497    6.7604 H         1 RES1    0.0000
     31 H12        3.2285    3.1491    6.0338 H         1 RES1    0.0000
     32 H13        4.3228    3.2260    7.1810 H         1 RES1    0.0000
     33 H14        2.9131    0.9048    7.1851 H         1 RES1    0.0000
     34 H15        4.2940    1.0663    8.0263 H         1 RES1    0.0000
     35 H16        4.1207   -0.1615    6.9769 H         1 RES1    0.0000
     36 H17        4.0268    0.0271    4.5451 H         1 RES1    0.0000
     37 H18        4.1824    1.5914    3.8788 H         1 RES1    0.0000
     38 H19        2.8751    1.1526    4.6700 H         1 RES1    0.0000
     39 H20        2.9097    6.0461    4.0808 H         1 RES1    0.0000
     40 H21        0.6866    6.7032    4.4514 H         1 RES1    0.0000
     41 H22       -0.2072    6.8444    6.6063 H         1 RES1    0.0000
     42 H23        1.1069    6.1155    8.3573 H         1 RES1    0.0000
@<TRIPOS>BOND
     1    1    2 1
     2    2    3 1
     3    3    4 1
     4    4   21 1
     5    5    3 1
     6    6    3 1
     7    7    6 1
     8    8    7 1
     9    9    7 1
    10   10    7 1
    11   11    2 1
    12   12   11 1
    13   13   11 1
    14   14   15 ar
    15   15    9 1
    16   16   15 ar
    17   17   16 ar
    18   18   17 ar
    19   19   14 ar
    20   20    8 1
    21   22    4 1
    22   23    4 1
    23   24    5 1
    24   25    5 1
    25   26    5 1
    26   27    6 1
    27   28    6 1
    28   29    9 1
    29   30    9 1
    30   31   10 1
    31   32   10 1
    32   33   12 1
    33   34   12 1
    34   35   12 1
    35   36   13 1
    36   37   13 1
    37   38   13 1
    38   39   16 1
    39   40   17 1
    40   41   18 1
    41   42   19 1
    42   10   11 1
    43   18   19 ar
@<TRIPOS>SUBSTRUCTURE
     1 RES1 1

@<TRIPOS>CRYSIN
   8.4561    8.4561   20.8204  90.0000  90.0000  90.0000  76 1

