# MOL2 file generated by ConQuest
# Please check atom types

@<TRIPOS>MOLECULE
LATWOT
    48    49     1
SMALL
NO_CHARGES
****
Generated from CSD

@<TRIPOS>ATOM
      1 N1         0.8969    3.5948   -0.4275 N.pl3     1 RES1    0.0000
      2 N2        -0.2005    3.8596    4.7534 N.am      1 RES1    0.0000
      3 O1         0.1682    4.4901    2.1609 O.3       1 RES1    0.0000
      4 O2         0.4439    1.7959    5.3898 O.2       1 RES1    0.0000
      5 O3        -0.7760    6.4066    4.6875 O.3       1 RES1    0.0000
      6 O4        -2.6525    8.3486    7.7414 O.2       1 RES1    0.0000
      7 O5        -0.8514    8.6314    6.4755 O.3       1 RES1    0.0000
      8 O6         1.8828    3.7173   -1.1288 O.2       1 RES1    0.0000
      9 O7        -0.1602    4.1331   -0.6594 O.2       1 RES1    0.0000
     10 C1         0.6312    3.2076    2.0088 C.ar      1 RES1    0.0000
     11 C2         1.0027    2.7201    0.7530 C.ar      1 RES1    0.0000
     12 C3         1.4383    1.4364    0.5550 C.ar      1 RES1    0.0000
     13 C4         1.4812    0.5482    1.6116 C.ar      1 RES1    0.0000
     14 C5         1.0964    1.0183    2.8565 C.ar      1 RES1    0.0000
     15 C6         0.6707    2.3165    3.0828 C.ar      1 RES1    0.0000
     16 C7         0.2915    2.6323    4.5225 C.2       1 RES1    0.0000
     17 C8        -0.6310    4.4350    5.9611 C.ar      1 RES1    0.0000
     18 C9        -0.9699    5.7863    5.9056 C.ar      1 RES1    0.0000
     19 C10       -1.4321    6.4363    7.0460 C.ar      1 RES1    0.0000
     20 C11       -1.5988    5.6977    8.2115 C.ar      1 RES1    0.0000
     21 C12       -1.2516    4.3636    8.2942 C.ar      1 RES1    0.0000
     22 C13       -0.7649    3.7446    7.1581 C.ar      1 RES1    0.0000
     23 C14        1.1158    5.5650    1.9859 C.3       1 RES1    0.0000
     24 C15        1.9386   -0.8833    1.4299 C.3       1 RES1    0.0000
     25 H1         1.3572   -1.3286    0.8096 H         1 RES1    0.0000
     26 H2         1.9120   -1.3365    2.2754 H         1 RES1    0.0000
     27 H3         2.8363   -0.8914    1.0904 H         1 RES1    0.0000
     28 C16       -1.9018    7.0527    4.0949 C.3       1 RES1    0.0000
     29 H4        -2.6930    6.8407    4.5965 H         1 RES1    0.0000
     30 H5        -2.0061    6.7491    3.1906 H         1 RES1    0.0000
     31 H6        -1.7655    8.0022    4.1003 H         1 RES1    0.0000
     32 C17       -1.7513    7.8880    7.1167 C.2       1 RES1    0.0000
     33 C18       -1.0746   10.0600    6.4682 C.3       1 RES1    0.0000
     34 H7        -1.7444   10.2763    5.8153 H         1 RES1    0.0000
     35 H8        -0.2564   10.5101    6.2495 H         1 RES1    0.0000
     36 H9        -1.3723   10.3417    7.3366 H         1 RES1    0.0000
     37 C19       -1.3916    3.6093    9.5924 C.3       1 RES1    0.0000
     38 H10        1.6553    1.2112   -0.3265 H         1 RES1    0.0000
     39 H11        1.1367    0.4451    3.6019 H         1 RES1    0.0000
     40 H12       -1.9060    6.1390    8.9014 H         1 RES1    0.0000
     41 H13       -0.4477    2.8356    7.2114 H         1 RES1    0.0000
     42 H14        1.7581    5.3903    1.3711 H         1 RES1    0.0000
     43 H15        0.5394    6.3308    1.8499 H         1 RES1    0.0000
     44 H16        1.7147    5.5362    2.7640 H         1 RES1    0.0000
     45 H17       -0.7492    3.7975   10.2290 H         1 RES1    0.0000
     46 H18       -2.2864    3.6468    9.8699 H         1 RES1    0.0000
     47 H19       -1.1859    2.7038    9.5216 H         1 RES1    0.0000
     48 H20       -0.2549    4.3883    4.0916 H         1 RES1    0.0000
@<TRIPOS>BOND
     1    1    8 2
     2    2   16 1
     3    3   10 1
     4    4   16 2
     5    5   18 1
     6    6   32 2
     7    7   32 1
     8    9    1 2
     9   10   11 ar
    10   11    1 1
    11   12   11 ar
    12   13   12 ar
    13   14   13 ar
    14   15   10 ar
    15   16   15 1
    16   17    2 1
    17   18   17 ar
    18   19   18 ar
    19   20   19 ar
    20   21   20 ar
    21   22   17 ar
    22   23    3 1
    23   24   13 1
    24   25   24 1
    25   26   24 1
    26   27   24 1
    27   28    5 1
    28   29   28 1
    29   30   28 1
    30   31   28 1
    31   32   19 1
    32   33    7 1
    33   34   33 1
    34   35   33 1
    35   36   33 1
    36   37   21 1
    37   38   12 1
    38   39   14 1
    39   40   20 1
    40   41   22 1
    41   42   23 1
    42   43   23 1
    43   44   23 1
    44   45   37 1
    45   46   37 1
    46   47   37 1
    47   48    2 1
    48   14   15 ar
    49   21   22 ar
@<TRIPOS>SUBSTRUCTURE
     1 RES1 1

@<TRIPOS>CRYSIN
   7.5626   11.4681   11.7866 107.1550 100.7190 100.9020   2 1

