# MOL2 file generated by ConQuest
# Please check atom types

@<TRIPOS>MOLECULE
LATWOS
    31    33     1
SMALL
NO_CHARGES
****
Generated from CSD

@<TRIPOS>ATOM
      1 O1         5.8163   -0.2751    8.7225 O.3       1 RES1    0.0000
      2 O2         8.2750    3.0338    9.3292 O.2       1 RES1    0.0000
      3 O3         8.1289    4.7065    7.9669 O.2       1 RES1    0.0000
      4 O4         6.6743    3.7802    3.5286 O.2       1 RES1    0.0000
      5 O5         4.9748    2.4844    3.2268 O.2       1 RES1    0.0000
      6 O6         3.1162    0.7322    5.1593 O.2       1 RES1    0.0000
      7 O7         5.7943   -0.8616    3.9782 O.2       1 RES1    0.0000
      8 N1         5.2037   -0.2639    7.5026 N.2       1 RES1    0.0000
      9 N2         6.6227    0.8192    8.9383 N.2       1 RES1    0.0000
     10 N3         7.8918    3.5587    8.3085 N.pl3     1 RES1    0.0000
     11 N4         5.8727    2.9491    3.9080 N.pl3     1 RES1    0.0000
     12 C1         5.3375    1.3210    5.6288 C.2       1 RES1    0.0000
     13 C2         5.6262    0.8438    6.9440 C.2       1 RES1    0.0000
     14 C3         6.5096    1.5195    7.8327 C.2       1 RES1    0.0000
     15 C4         7.0769    2.7536    7.4041 C.2       1 RES1    0.0000
     16 C5         6.8526    3.1855    6.1559 C.2       1 RES1    0.0000
     17 C6         6.0123    2.4384    5.2756 C.2       1 RES1    0.0000
     18 C7         4.2587    0.6378    4.8103 C.2       1 RES1    0.0000
     19 C8         4.7453   -0.3100    3.7235 C.2       1 RES1    0.0000
     20 C9         3.9448   -0.5308    2.5089 C.ar      1 RES1    0.0000
     21 C10        4.2337   -1.6318    1.7051 C.ar      1 RES1    0.0000
     22 C11        3.5230   -1.8250    0.5334 C.ar      1 RES1    0.0000
     23 C12        2.5695   -0.9181    0.1404 C.ar      1 RES1    0.0000
     24 C13        2.2800    0.1829    0.9243 C.ar      1 RES1    0.0000
     25 C14        2.9545    0.3717    2.1253 C.ar      1 RES1    0.0000
     26 H1         7.2464    3.9772    5.8583 H         1 RES1    0.0000
     27 H2         4.8497   -2.1930    2.0017 H         1 RES1    0.0000
     28 H3         3.7786   -2.6242    0.0629 H         1 RES1    0.0000
     29 H4         2.1022   -1.0036   -0.7231 H         1 RES1    0.0000
     30 H5         1.6320    0.8177    0.6498 H         1 RES1    0.0000
     31 H6         2.7957    1.1225    2.6619 H         1 RES1    0.0000
@<TRIPOS>BOND
     1    1    8 1
     2    2   10 2
     3    3   10 2
     4    4   11 2
     5    5   11 2
     6    6   18 2
     7    7   19 2
     8    8   13 2
     9    9    1 1
    10   10   15 1
    11   11   17 1
    12   12   13 1
    13   13   14 1
    14   14    9 2
    15   15   14 1
    16   16   15 2
    17   17   12 2
    18   18   12 1
    19   19   18 1
    20   20   19 1
    21   21   20 ar
    22   22   21 ar
    23   23   22 ar
    24   24   23 ar
    25   25   20 ar
    26   26   16 1
    27   27   21 1
    28   28   22 1
    29   29   23 1
    30   30   24 1
    31   31   25 1
    32   16   17 1
    33   24   25 ar
@<TRIPOS>SUBSTRUCTURE
     1 RES1 1

@<TRIPOS>CRYSIN
   8.9413    7.4340   10.6860  90.0000 101.2700  90.0000   4 1

