# MOL2 file generated by ConQuest
# Please check atom types

@<TRIPOS>MOLECULE
LAVSEJ
    70    60     2
SMALL
NO_CHARGES
****
Generated from CSD

@<TRIPOS>ATOM
      1 O1         4.8167    4.0955    2.6408 O.3       1 RES1    0.0000
      2 O2         5.5083    4.4758    4.8363 O.3       1 RES1    0.0000
      3 H1         5.7254    3.7228    5.0430 H         1 RES1    0.0000
      4 O3         7.5317    3.0507    3.7726 O.2       1 RES1    0.0000
      5 O4         7.5186    4.3624    1.9206 O.3       1 RES1    0.0000
      6 O5         4.7104    8.3718    1.6766 O.2       1 RES1    0.0000
      7 O6         2.7214    7.3368    1.4087 O.3       1 RES1    0.0000
      8 N1         3.7615    5.0749    2.3505 N.3       1 RES1    0.0000
      9 C1         5.7934    4.6823    3.4937 C.3       1 RES1    0.0000
     10 C2         5.7275    6.1754    3.1659 C.3       1 RES1    0.0000
     11 H2         6.2165    6.3364    2.3088 H         1 RES1    0.0000
     12 C3         4.2289    6.3582    2.9157 C.3       1 RES1    0.0000
     13 H3         3.7612    6.5372    3.7814 H         1 RES1    0.0000
     14 C4         2.5582    4.5803    3.0042 C.3       1 RES1    0.0000
     15 H4         2.7062    4.5373    3.9714 H         1 RES1    0.0000
     16 H5         2.3470    3.6860    2.6660 H         1 RES1    0.0000
     17 H6         1.8109    5.1865    2.8154 H         1 RES1    0.0000
     18 C5         7.0793    3.9344    3.0936 C.2       1 RES1    0.0000
     19 C6         8.6233    3.6885    1.1986 C.3       1 RES1    0.0000
     20 C7         8.6611    4.4610   -0.1070 C.3       1 RES1    0.0000
     21 H7         9.3644    4.0951   -0.6835 H         1 RES1    0.0000
     22 H8         8.8487    5.4051    0.0779 H         1 RES1    0.0000
     23 H9         7.7958    4.3823   -0.5585 H         1 RES1    0.0000
     24 C8         8.2429    2.2401    0.9508 C.3       1 RES1    0.0000
     25 H10        8.8766    1.8385    0.3199 H         1 RES1    0.0000
     26 H11        7.3380    2.1994    0.5764 H         1 RES1    0.0000
     27 H12        8.2676    1.7458    1.7973 H         1 RES1    0.0000
     28 C9         9.9037    3.8512    1.9858 C.3       1 RES1    0.0000
     29 H13       10.6596    3.5322    1.4499 H         1 RES1    0.0000
     30 H14        9.8469    3.3289    2.8137 H         1 RES1    0.0000
     31 H15       10.0345    4.7977    2.2049 H         1 RES1    0.0000
     32 C10        6.3038    7.1022    4.2425 C.3       1 RES1    0.0000
     33 H16        6.0514    8.0352    4.0282 H         1 RES1    0.0000
     34 H17        5.8927    6.8726    5.1128 H         1 RES1    0.0000
     35 C11        7.8167    7.0226    4.3789 C.ar      1 RES1    0.0000
     36 C12        8.3920    6.2284    5.3498 C.ar      1 RES1    0.0000
     37 H18        7.8398    5.7291    5.9392 H         1 RES1    0.0000
     38 C13        9.7676    6.1547    5.4667 C.ar      1 RES1    0.0000
     39 H19       10.1589    5.6058    6.1373 H         1 RES1    0.0000
     40 C14       10.5728    6.8790    4.6095 C.ar      1 RES1    0.0000
     41 H20       11.5184    6.8294    4.6890 H         1 RES1    0.0000
     42 C15        9.9992    7.6769    3.6369 C.ar      1 RES1    0.0000
     43 H21       10.5513    8.1775    3.0475 H         1 RES1    0.0000
     44 C16        8.6257    7.7455    3.5200 C.ar      1 RES1    0.0000
     45 H22        8.2344    8.2919    2.8495 H         1 RES1    0.0000
     46 C17        3.9354    7.4816    1.9302 C.2       1 RES1    0.0000
     47 C18        2.2263    8.1982    0.3025 C.3       1 RES1    0.0000
     48 C19        0.8899    7.5669   -0.0196 C.3       1 RES1    0.0000
     49 H23        0.4439    8.0873   -0.7209 H         1 RES1    0.0000
     50 H24        0.3313    7.5562    0.7858 H         1 RES1    0.0000
     51 H25        1.0304    6.6490   -0.3328 H         1 RES1    0.0000
     52 C20        3.1683    8.0863   -0.8857 C.3       1 RES1    0.0000
     53 H26        2.7384    8.4659   -1.6804 H         1 RES1    0.0000
     54 H27        3.3795    7.1433   -1.0472 H         1 RES1    0.0000
     55 H28        3.9949    8.5778   -0.6949 H         1 RES1    0.0000
     56 C21        2.0736    9.6208    0.7917 C.3       1 RES1    0.0000
     57 H29        1.5847   10.1457    0.1234 H         1 RES1    0.0000
     58 H30        2.9603   10.0148    0.9303 H         1 RES1    0.0000
     59 H31        1.5793    9.6247    1.6366 H         1 RES1    0.0000
     60 C22        7.8227    7.1115    4.1695 Du        2 SUP2    0.0000
     61 C23        8.5678    6.3923    5.0836 Du        2 SUP2    0.0000
     62 H32        8.1314    5.8485    5.7281 Du        2 SUP2    0.0000
     63 C24        9.9488    6.4648    5.0641 Du        2 SUP2    0.0000
     64 H33       10.4591    5.9692    5.6940 Du        2 SUP2    0.0000
     65 C25       10.5856    7.2563    4.1289 Du        2 SUP2    0.0000
     66 H34       11.5335    7.3072    4.1143 Du        2 SUP2    0.0000
     67 C26        9.8405    7.9755    3.2131 Du        2 SUP2    0.0000
     68 H35       10.2779    8.5218    2.5702 Du        2 SUP2    0.0000
     69 C27        8.4627    7.9031    3.2326 Du        2 SUP2    0.0000
     70 H36        7.9524    8.3961    2.6010 Du        2 SUP2    0.0000
@<TRIPOS>BOND
     1    1    8 1
     2    2    3 1
     3    4   18 2
     4    5   18 1
     5    6   46 2
     6    7   46 1
     7    8   12 1
     8    9    1 1
     9   10    9 1
    10   11   10 1
    11   12   10 1
    12   13   12 1
    13   14    8 1
    14   15   14 1
    15   16   14 1
    16   17   14 1
    17   18    9 1
    18   19    5 1
    19   20   19 1
    20   21   20 1
    21   22   20 1
    22   23   20 1
    23   24   19 1
    24   25   24 1
    25   26   24 1
    26   27   24 1
    27   28   19 1
    28   29   28 1
    29   30   28 1
    30   31   28 1
    31   32   10 1
    32   33   32 1
    33   34   32 1
    34   35   32 1
    35   36   35 ar
    36   37   36 1
    37   38   36 ar
    38   39   38 1
    39   40   38 ar
    40   41   40 1
    41   42   40 ar
    42   43   42 1
    43   44   35 ar
    44   45   44 1
    45   46   12 1
    46   47    7 1
    47   48   47 1
    48   49   48 1
    49   50   48 1
    50   51   48 1
    51   52   47 1
    52   53   52 1
    53   54   52 1
    54   55   52 1
    55   56   47 1
    56   57   56 1
    57   58   56 1
    58   59   56 1
    59    2    9 1
    60   42   44 ar
@<TRIPOS>SUBSTRUCTURE
     1 RES1 1
     2 SUP2 60

@<TRIPOS>CRYSIN
  10.7218   12.7059   16.2362  90.0000  90.0000  90.0000  19 1

