# MOL2 file generated by ConQuest
# Please check atom types

@<TRIPOS>MOLECULE
LAVSAF
    55    58     1
SMALL
NO_CHARGES
****
Generated from CSD

@<TRIPOS>ATOM
      1 O1         2.5343    3.5568    9.5316 O.3       1 RES1    0.0000
      2 O2         1.2131    5.4453    9.8227 O.3       1 RES1    0.0000
      3 H1         0.7435    5.1419   10.4929 H         1 RES1    0.0000
      4 O3         4.3554    5.0037   11.4338 O.2       1 RES1    0.0000
      5 O4         2.2334    5.1946   12.1981 O.3       1 RES1    0.0000
      6 N1         3.1526    3.3343    8.2105 N.3       1 RES1    0.0000
      7 C1         2.5200    4.9649    9.8551 C.3       1 RES1    0.0000
      8 C2         3.3487    5.6515    8.7684 C.3       1 RES1    0.0000
      9 H2         4.3068    5.5654    9.0165 H         1 RES1    0.0000
     10 C3         3.0982    4.6762    7.5942 C.3       1 RES1    0.0000
     11 H3         2.1334    4.7955    7.2501 H         1 RES1    0.0000
     12 C4         4.0580    4.8177    6.4365 C.ar      1 RES1    0.0000
     13 C5         3.8675    5.8689    5.5275 C.ar      1 RES1    0.0000
     14 H4         3.0999    6.4777    5.6498 H         1 RES1    0.0000
     15 C6         4.7832    6.0892    4.5098 C.ar      1 RES1    0.0000
     16 H5         4.6385    6.8424    3.8755 H         1 RES1    0.0000
     17 C7         5.8802    5.2581    4.3793 C.ar      1 RES1    0.0000
     18 H6         6.5373    5.3536    3.6699 H         1 RES1    0.0000
     19 C8         6.0460    4.1942    5.2430 C.ar      1 RES1    0.0000
     20 H7         6.8519    3.5944    5.1436 H         1 RES1    0.0000
     21 C9         5.1384    3.9475    6.2815 C.ar      1 RES1    0.0000
     22 C10        5.2791    2.7437    7.1705 C.3       1 RES1    0.0000
     23 H8         6.2571    2.5736    7.3635 H         1 RES1    0.0000
     24 H9         4.9245    1.9514    6.6938 H         1 RES1    0.0000
     25 C11        4.5430    2.9066    8.4853 C.3       1 RES1    0.0000
     26 H10        4.4612    2.0050    9.0139 H         1 RES1    0.0000
     27 H11        5.0160    3.5512    9.0719 H         1 RES1    0.0000
     28 C12        3.1634    5.0683   11.2569 C.2       1 RES1    0.0000
     29 C13        2.5961    5.4787   13.6233 C.3       1 RES1    0.0000
     30 C14        1.2365    5.6086   14.2769 C.3       1 RES1    0.0000
     31 H12        1.3612    5.8660   15.2542 H         1 RES1    0.0000
     32 H13        0.7378    4.7485   14.2260 H         1 RES1    0.0000
     33 H14        0.7149    6.3195   13.8332 H         1 RES1    0.0000
     34 C15        3.3705    4.3208   14.2070 C.3       1 RES1    0.0000
     35 H15        3.5403    4.5145   15.1540 H         1 RES1    0.0000
     36 H16        4.2381    4.1695   13.7436 H         1 RES1    0.0000
     37 H17        2.8426    3.4375   14.1390 H         1 RES1    0.0000
     38 C16        3.3459    6.7912   13.6608 C.3       1 RES1    0.0000
     39 H18        3.4774    7.0711   14.5925 H         1 RES1    0.0000
     40 H19        2.8654    7.4933   13.1688 H         1 RES1    0.0000
     41 H20        4.2210    6.7156   13.2268 H         1 RES1    0.0000
     42 C17        2.9964    7.1008    8.4895 C.3       1 RES1    0.0000
     43 H21        3.5060    7.4201    7.6877 H         1 RES1    0.0000
     44 H22        1.9847    7.1900    8.2256 H         1 RES1    0.0000
     45 C18        3.2870    8.0642    9.6281 C.ar      1 RES1    0.0000
     46 C19        4.5087    8.0596   10.2899 C.ar      1 RES1    0.0000
     47 H23        5.1933    7.4240   10.0183 H         1 RES1    0.0000
     48 C20        4.7723    8.9768   11.3025 C.ar      1 RES1    0.0000
     49 H24        5.6279    8.9519   11.7320 H         1 RES1    0.0000
     50 C21        3.8303    9.9189   11.6542 C.ar      1 RES1    0.0000
     51 H25        4.0379   10.6014   12.3647 H         1 RES1    0.0000
     52 C22        2.6269    9.9425   10.9901 C.ar      1 RES1    0.0000
     53 H26        1.9618   10.5870   11.2100 H         1 RES1    0.0000
     54 C23        2.3513    9.0290    9.9817 C.ar      1 RES1    0.0000
     55 H27        1.5042    9.0565    9.5095 H         1 RES1    0.0000
@<TRIPOS>BOND
     1    1    6 1
     2    2    3 1
     3    4   28 2
     4    5   28 1
     5    6   10 1
     6    7    1 1
     7    8    7 1
     8    9    8 1
     9   10    8 1
    10   11   10 1
    11   12   10 1
    12   13   12 ar
    13   14   13 1
    14   15   13 ar
    15   16   15 1
    16   17   15 ar
    17   18   17 1
    18   19   17 ar
    19   20   19 1
    20   21   12 ar
    21   22   21 1
    22   23   22 1
    23   24   22 1
    24   25    6 1
    25   26   25 1
    26   27   25 1
    27   28    7 1
    28   29    5 1
    29   30   29 1
    30   31   30 1
    31   32   30 1
    32   33   30 1
    33   34   29 1
    34   35   34 1
    35   36   34 1
    36   37   34 1
    37   38   29 1
    38   39   38 1
    39   40   38 1
    40   41   38 1
    41   42    8 1
    42   43   42 1
    43   44   42 1
    44   45   42 1
    45   46   45 ar
    46   47   46 1
    47   48   46 ar
    48   49   48 1
    49   50   48 ar
    50   51   50 1
    51   52   50 ar
    52   53   52 1
    53   54   45 ar
    54   55   54 1
    55    2    7 1
    56   19   21 ar
    57   22   25 1
    58   52   54 ar
@<TRIPOS>SUBSTRUCTURE
     1 RES1 1

@<TRIPOS>CRYSIN
   5.7195   13.0704   26.3640  90.0000  90.0000  90.0000  19 1

