# MOL2 file generated by ConQuest
# Please check atom types

@<TRIPOS>MOLECULE
LAVTOS
    33    35     1
SMALL
NO_CHARGES
****
Generated from CSD

@<TRIPOS>ATOM
      1 N1        -0.1609    9.1085    5.8707 N.3       1 RES1    0.0000
      2 O1         0.6664   12.5631    5.2029 O.2       1 RES1    0.0000
      3 C1         1.4102    8.7558    3.2333 C.ar      1 RES1    0.0000
      4 N2         4.0382    7.5055    0.8864 N.pl3     1 RES1    0.0000
      5 O2         4.6637    8.5515    0.7230 O.2       1 RES1    0.0000
      6 C2         0.5664    7.6372    3.2780 C.ar      1 RES1    0.0000
      7 H1        -0.2280    7.6690    3.7983 H         1 RES1    0.0000
      8 O3         4.3500    6.4362    0.3640 O.2       1 RES1    0.0000
      9 C3         0.8793    6.4845    2.5710 C.ar      1 RES1    0.0000
     10 H2         0.2931    5.7378    2.6070 H         1 RES1    0.0000
     11 C4         2.0396    6.4121    1.8116 C.ar      1 RES1    0.0000
     12 H3         2.2749    5.6163    1.3499 H         1 RES1    0.0000
     13 C5         2.8428    7.5361    1.7484 C.ar      1 RES1    0.0000
     14 C6         2.5547    8.7089    2.4282 C.ar      1 RES1    0.0000
     15 H4         3.1228    9.4666    2.3497 H         1 RES1    0.0000
     16 C7         1.1352    9.9981    3.9614 C.2       1 RES1    0.0000
     17 H5         1.4997   10.7881    3.5806 H         1 RES1    0.0000
     18 C8         0.4387   10.1669    5.0910 C.2       1 RES1    0.0000
     19 C9         0.2261   11.5251    5.6750 C.2       1 RES1    0.0000
     20 C10       -0.6042   11.4427    6.9318 C.3       1 RES1    0.0000
     21 H6        -0.7641   12.3501    7.3190 H         1 RES1    0.0000
     22 C11       -1.9340   10.7475    6.5742 C.3       1 RES1    0.0000
     23 H7        -2.4418   11.3031    5.9303 H         1 RES1    0.0000
     24 H8        -2.4846   10.6326    7.3890 H         1 RES1    0.0000
     25 C12       -1.6220    9.3617    5.9472 C.3       1 RES1    0.0000
     26 H9        -2.0480    8.6528    6.4922 H         1 RES1    0.0000
     27 H10       -2.0086    9.3208    5.0368 H         1 RES1    0.0000
     28 C13        0.1645   10.5444    7.9187 C.3       1 RES1    0.0000
     29 H11       -0.3577   10.4310    8.7524 H         1 RES1    0.0000
     30 H12        1.0335   10.9581    8.1483 H         1 RES1    0.0000
     31 C14        0.3943    9.1683    7.2475 C.3       1 RES1    0.0000
     32 H13        1.3659    8.9832    7.2135 H         1 RES1    0.0000
     33 H14       -0.0299    8.4633    7.7990 H         1 RES1    0.0000
@<TRIPOS>BOND
     1    1   18 1
     2    2   19 2
     3    3    6 ar
     4    4    5 2
     5    6    7 1
     6    8    4 2
     7    9    6 ar
     8   10    9 1
     9   11    9 ar
    10   12   11 1
    11   13    4 1
    12   14    3 ar
    13   15   14 1
    14   16    3 1
    15   17   16 1
    16   18   16 2
    17   19   18 1
    18   20   19 1
    19   21   20 1
    20   22   20 1
    21   23   22 1
    22   24   22 1
    23   25    1 1
    24   26   25 1
    25   27   25 1
    26   28   20 1
    27   29   28 1
    28   30   28 1
    29   31    1 1
    30   32   31 1
    31   33   31 1
    32   11   13 ar
    33   13   14 ar
    34   22   25 1
    35   28   31 1
@<TRIPOS>SUBSTRUCTURE
     1 RES1 1

@<TRIPOS>CRYSIN
   5.8095   24.2920    8.5473  90.0000  99.2211  90.0000  14 1

