# MOL2 file generated by ConQuest
# Please check atom types

@<TRIPOS>MOLECULE
LAVXIQ
    29    29     1
SMALL
NO_CHARGES
****
Generated from CSD

@<TRIPOS>ATOM
      1 O1        -1.0707    3.9126    9.6887 O.3       1 RES1    0.0000
      2 H1        -0.7438    3.1803    9.5176 H         1 RES1    0.0000
      3 O2        -0.1648    0.4406    8.1325 O.3       1 RES1    0.0000
      4 H2         0.3526    0.2191    8.7281 H         1 RES1    0.0000
      5 N1        -0.7380    1.6761    8.4488 N.2       1 RES1    0.0000
      6 C1        -2.0279    4.2152    8.7550 C.ar      1 RES1    0.0000
      7 C2        -2.3048    3.3188    7.7017 C.ar      1 RES1    0.0000
      8 C3        -1.5951    2.0479    7.5823 C.2       1 RES1    0.0000
      9 H3        -1.7734    1.4964    6.8550 H         1 RES1    0.0000
     10 C4        -3.2899    3.6655    6.7535 C.ar      1 RES1    0.0000
     11 C5        -3.6426    2.7549    5.5993 C.3       1 RES1    0.0000
     12 H4        -4.3234    3.1668    5.0630 H         1 RES1    0.0000
     13 H5        -3.9658    1.9174    5.9390 H         1 RES1    0.0000
     14 H6        -2.8618    2.6016    5.0617 H         1 RES1    0.0000
     15 C6        -3.9397    4.8737    6.8924 C.ar      1 RES1    0.0000
     16 H7        -4.5844    5.1166    6.2679 H         1 RES1    0.0000
     17 C7        -3.6555    5.7371    7.9417 C.ar      1 RES1    0.0000
     18 H8        -4.1168    6.5418    8.0026 H         1 RES1    0.0000
     19 C8        -2.7014    5.4323    8.9025 C.ar      1 RES1    0.0000
     20 C9        -2.4087    6.3328   10.0934 C.3       1 RES1    0.0000
     21 H9        -1.4368    6.3516   10.2139 H         1 RES1    0.0000
     22 C10       -2.8701    7.7695    9.8899 C.3       1 RES1    0.0000
     23 H10       -2.5487    8.3141   10.6120 H         1 RES1    0.0000
     24 H11       -3.8291    7.7975    9.8704 H         1 RES1    0.0000
     25 H12       -2.5226    8.1022    9.0583 H         1 RES1    0.0000
     26 C11       -3.0171    5.7522   11.3736 C.3       1 RES1    0.0000
     27 H13       -2.7090    4.8507   11.4933 H         1 RES1    0.0000
     28 H14       -3.9746    5.7576   11.3043 H         1 RES1    0.0000
     29 H15       -2.7479    6.2849   12.1257 H         1 RES1    0.0000
@<TRIPOS>BOND
     1    1    2 1
     2    3    4 1
     3    5    3 1
     4    6    1 1
     5    7    6 ar
     6    8    5 2
     7    9    8 1
     8   10    7 ar
     9   11   10 1
    10   12   11 1
    11   13   11 1
    12   14   11 1
    13   15   10 ar
    14   16   15 1
    15   17   15 ar
    16   18   17 1
    17   19    6 ar
    18   20   19 1
    19   21   20 1
    20   22   20 1
    21   23   22 1
    22   24   22 1
    23   25   22 1
    24   26   20 1
    25   27   26 1
    26   28   26 1
    27   29   26 1
    28    7    8 1
    29   17   19 ar
@<TRIPOS>SUBSTRUCTURE
     1 RES1 1

@<TRIPOS>CRYSIN
   8.8517    9.0145   13.5956  90.0000 101.6980  90.0000 231 1

