# MOL2 file generated by ConQuest
# Please check atom types

@<TRIPOS>MOLECULE
LAWCUI
    31    32     1
SMALL
NO_CHARGES
****
Generated from CSD

@<TRIPOS>ATOM
      1 O1         3.9613    2.3459    9.4403 O.2       1 RES1    0.0000
      2 O2         5.8521    2.4719   10.4742 O.2       1 RES1    0.0000
      3 O3        -1.3320    4.8858    0.5330 O.2       1 RES1    0.0000
      4 O4        -2.9331    3.9564    1.6481 O.2       1 RES1    0.0000
      5 N1         3.6586    3.3236    7.0408 N.3       1 RES1    0.0000
      6 N2         2.9807    3.6617    5.9029 N.2       1 RES1    0.0000
      7 N3         5.1639    2.6859    9.4760 N.pl3     1 RES1    0.0000
      8 N4        -1.7620    4.3195    1.5237 N.pl3     1 RES1    0.0000
      9 C1         4.9895    3.6183    7.1640 C.ar      1 RES1    0.0000
     10 C2         5.7475    3.3262    8.3294 C.ar      1 RES1    0.0000
     11 C3         7.1046    3.6339    8.4169 C.ar      1 RES1    0.0000
     12 C4         7.7504    4.2206    7.3633 C.ar      1 RES1    0.0000
     13 C5         7.0343    4.5064    6.2046 C.ar      1 RES1    0.0000
     14 C6         5.6940    4.2362    6.1105 C.ar      1 RES1    0.0000
     15 C7         0.8587    3.6350    4.7615 C.ar      1 RES1    0.0000
     16 C8         1.3338    4.2206    3.5765 C.ar      1 RES1    0.0000
     17 C9         0.4843    4.4350    2.5107 C.ar      1 RES1    0.0000
     18 C10       -0.8477    4.0772    2.6494 C.ar      1 RES1    0.0000
     19 C11       -1.3528    3.5157    3.7985 C.ar      1 RES1    0.0000
     20 C12       -0.4928    3.2965    4.8656 C.ar      1 RES1    0.0000
     21 C13        1.7315    3.3537    5.9053 C.2       1 RES1    0.0000
     22 H1         3.2387    2.9148    7.6961 H         1 RES1    0.0000
     23 H2         7.5835    3.4347    9.2124 H         1 RES1    0.0000
     24 H3         8.6756    4.4306    7.4212 H         1 RES1    0.0000
     25 H4         7.4839    4.8966    5.4644 H         1 RES1    0.0000
     26 H5         5.2272    4.4707    5.3170 H         1 RES1    0.0000
     27 H6         2.2484    4.4711    3.5077 H         1 RES1    0.0000
     28 H7         0.8042    4.8182    1.7020 H         1 RES1    0.0000
     29 H8        -2.2724    3.2823    3.8608 H         1 RES1    0.0000
     30 H9        -0.8253    2.9148    5.6701 H         1 RES1    0.0000
     31 H10        1.3638    2.9304    6.6713 H         1 RES1    0.0000
@<TRIPOS>BOND
     1    1    7 2
     2    2    7 2
     3    3    8 2
     4    4    8 2
     5    5    6 1
     6    6   21 2
     7    7   10 1
     8    8   18 1
     9    9    5 1
    10   10    9 ar
    11   11   10 ar
    12   12   11 ar
    13   13   12 ar
    14   14    9 ar
    15   15   16 ar
    16   16   17 ar
    17   17   18 ar
    18   18   19 ar
    19   19   20 ar
    20   20   15 ar
    21   21   15 1
    22   22    5 1
    23   23   11 1
    24   24   12 1
    25   25   13 1
    26   26   14 1
    27   27   16 1
    28   28   17 1
    29   29   19 1
    30   30   20 1
    31   31   21 1
    32   13   14 ar
@<TRIPOS>SUBSTRUCTURE
     1 RES1 1

@<TRIPOS>CRYSIN
  17.9563    3.7160   22.0624  90.0000 124.4060  90.0000  14 1

