# MOL2 file generated by ConQuest
# Please check atom types

@<TRIPOS>MOLECULE
LAWJAV
    38    45     1
SMALL
NO_CHARGES
****
Generated from CSD

@<TRIPOS>ATOM
      1 O1        -3.5011    4.6632    8.1479 O.2       1 RES1    0.0000
      2 O2        -4.7172    4.1037    6.4583 O.2       1 RES1    0.0000
      3 N1        -1.1557    3.4300    8.6459 N.2       1 RES1    0.0000
      4 N2         0.0293    3.1246    9.2943 N.2       1 RES1    0.0000
      5 N3        -3.7368    3.9344    7.1842 N.2       1 RES1    0.0000
      6 C1        -1.6666    2.6720    7.6365 C.3       1 RES1    0.0000
      7 C2        -2.8304    2.8387    6.8852 C.2       1 RES1    0.0000
      8 C3        -3.1607    1.9885    5.8389 C.2       1 RES1    0.0000
      9 C4        -2.3133    0.9570    5.5167 C.2       1 RES1    0.0000
     10 C5        -1.1630    0.7655    6.2614 C.2       1 RES1    0.0000
     11 C6        -0.8351    1.6011    7.3052 C.3       1 RES1    0.0000
     12 C7         0.3227    3.9090   10.2505 C.3       1 RES1    0.0000
     13 H1        -1.5990    4.1469    8.8982 H         1 RES1    0.0000
     14 H2        -1.4478    3.2654    8.3456 H         1 RES1    0.0000
     15 H3        -3.9649    2.1185    5.3500 H         1 RES1    0.0000
     16 H4        -2.5154    0.3803    4.7899 H         1 RES1    0.0000
     17 H5        -0.5871    0.0415    6.0482 H         1 RES1    0.0000
     18 H6        -0.0383    1.4501    7.8002 H         1 RES1    0.0000
     19 H7        -0.2683    4.6340   10.4126 H         1 RES1    0.0000
     20 O1B        4.1504    0.7315   10.2750 O.2       1 RES1    0.0000
     21 O2B        5.3665    1.2910   11.9646 O.2       1 RES1    0.0000
     22 N1B        1.8051    1.9647    9.7770 N.2       1 RES1    0.0000
     23 N2B        0.6201    2.2701    9.1285 N.2       1 RES1    0.0000
     24 N3B        4.3861    1.4603   11.2387 N.2       1 RES1    0.0000
     25 C1B        2.3159    2.7227   10.7864 C.3       1 RES1    0.0000
     26 C2B        3.4797    2.5560   11.5377 C.2       1 RES1    0.0000
     27 C3B        3.8100    3.4062   12.5839 C.2       1 RES1    0.0000
     28 C4B        2.9626    4.4377   12.9061 C.2       1 RES1    0.0000
     29 C5B        1.8123    4.6292   12.1615 C.2       1 RES1    0.0000
     30 C6B        1.4844    3.7936   11.1177 C.3       1 RES1    0.0000
     31 C7B        0.3266    1.4857    8.1724 C.3       1 RES1    0.0000
     32 H1B        2.2483    1.2478    9.5246 H         1 RES1    0.0000
     33 H2B        2.0971    2.1293   10.0773 H         1 RES1    0.0000
     34 H3B        4.6142    3.2762   13.0729 H         1 RES1    0.0000
     35 H4B        3.1648    5.0144   13.6329 H         1 RES1    0.0000
     36 H5B        1.2364    5.3532   12.3746 H         1 RES1    0.0000
     37 H6B        0.6877    3.9446   10.6226 H         1 RES1    0.0000
     38 H7B        0.9176    0.7607    8.0103 H         1 RES1    0.0000
@<TRIPOS>BOND
     1    1    5 1
     2    2    5 1
     3    3    4 1
     4    4   12 1
     5    5    7 1
     6    6    3 1
     7    7    6 1
     8    8    7 1
     9    9    8 1
    10   10    9 1
    11   11    6 1
    12   12   19 1
    13   13    3 1
    14   14    3 1
    15   15    8 1
    16   16    9 1
    17   17   10 1
    18   18   11 1
    19   20   24 1
    20   21   24 1
    21   22   23 1
    22   23    4 1
    23   24   26 1
    24   25   22 1
    25   26   25 1
    26   27   26 1
    27   28   27 1
    28   29   28 1
    29   30   12 1
    30   31   11 1
    31   32   22 1
    32   33   22 1
    33   34   27 1
    34   35   28 1
    35   36   29 1
    36   37   12 1
    37   38   31 1
    38    6   14 1
    39   10   11 1
    40   18   31 1
    41   23   31 1
    42   25   30 1
    43   25   33 1
    44   29   30 1
    45   30   37 1
@<TRIPOS>SUBSTRUCTURE
     1 RES1 1

@<TRIPOS>CRYSIN
   6.2280    5.3947   19.2490  90.0000 106.8470  90.0000  14 1

