# MOL2 file generated by ConQuest
# Please check atom types

@<TRIPOS>MOLECULE
LAWRAF
    94    99     1
SMALL
NO_CHARGES
****
Generated from CSD

@<TRIPOS>ATOM
      1 O1         1.0705    3.8309   10.0267 O.3       1 RES1    0.0000
      2 O2         1.7789    1.8354   10.8135 O.2       1 RES1    0.0000
      3 O3        -0.8397   -0.0029   14.6435 O.2       1 RES1    0.0000
      4 O4        -2.5950    1.0510   15.3486 O.2       1 RES1    0.0000
      5 O5        -3.5521    5.4963   13.6964 O.2       1 RES1    0.0000
      6 O6        -2.2640    6.3629   12.1856 O.2       1 RES1    0.0000
      7 N1        -1.6169    0.9458   14.6222 N.pl3     1 RES1    0.0000
      8 N2        -2.6099    5.4430   12.9164 N.pl3     1 RES1    0.0000
      9 C1        10.9389    3.2380    1.8293 C.3       1 RES1    0.0000
     10 H1        11.6594    3.2906    1.1672 H         1 RES1    0.0000
     11 H2        10.6141    2.3152    1.8850 H         1 RES1    0.0000
     12 H3        11.2801    3.5182    2.7042 H         1 RES1    0.0000
     13 C2         9.2413    3.6731    0.0612 C.3       1 RES1    0.0000
     14 H4         8.4974    4.2501   -0.2107 H         1 RES1    0.0000
     15 H5         8.9239    2.7503    0.1482 H         1 RES1    0.0000
     16 H6         9.9488    3.7127   -0.6148 H         1 RES1    0.0000
     17 C3         9.7953    4.1558    1.4117 C.3       1 RES1    0.0000
     18 C4        10.3100    5.6066    1.3012 C.3       1 RES1    0.0000
     19 H7        10.7909    5.8414    2.1347 H         1 RES1    0.0000
     20 H8        10.9570    5.6613    0.5540 H         1 RES1    0.0000
     21 C5         9.2021    6.6215    1.0691 C.3       1 RES1    0.0000
     22 H9         8.7910    6.4537    0.1841 H         1 RES1    0.0000
     23 H10        9.5950    7.5306    1.0533 H         1 RES1    0.0000
     24 C6         8.1089    6.5668    2.1486 C.3       1 RES1    0.0000
     25 H11        7.3524    7.1402    1.8335 H         1 RES1    0.0000
     26 C7         7.5656    5.1383    2.2985 C.3       1 RES1    0.0000
     27 H12        7.1106    4.9071    1.4387 H         1 RES1    0.0000
     28 C8         8.6998    4.1140    2.4965 C.3       1 RES1    0.0000
     29 H13        8.3069    3.2056    2.5139 H         1 RES1    0.0000
     30 H14        9.1213    4.2753    3.3783 H         1 RES1    0.0000
     31 C9         6.5171    5.0252    3.4011 C.2       1 RES1    0.0000
     32 C10        6.6205    5.8652    4.6805 C.3       1 RES1    0.0000
     33 C11        7.3500    7.2144    4.4490 C.3       1 RES1    0.0000
     34 H15        6.7051    7.8663    4.0759 H         1 RES1    0.0000
     35 H16        7.6600    7.5638    5.3211 H         1 RES1    0.0000
     36 C12        8.5529    7.1078    3.5021 C.3       1 RES1    0.0000
     37 H17        8.9641    8.0010    3.3846 H         1 RES1    0.0000
     38 H18        9.2324    6.5049    3.8949 H         1 RES1    0.0000
     39 C13        7.4991    5.0591    5.6766 C.3       1 RES1    0.0000
     40 H19        7.1858    4.1313    5.7128 H         1 RES1    0.0000
     41 H20        7.4341    5.4603    6.5679 H         1 RES1    0.0000
     42 H21        8.4319    5.0764    5.3773 H         1 RES1    0.0000
     43 C14        4.3102    6.8665    4.1595 C.3       1 RES1    0.0000
     44 H22        3.4966    7.2259    4.5721 H         1 RES1    0.0000
     45 H23        4.0654    6.2491    3.4392 H         1 RES1    0.0000
     46 H24        4.8418    7.6027    3.7919 H         1 RES1    0.0000
     47 C15        5.1411    6.1123    5.2262 C.3       1 RES1    0.0000
     48 C16        4.5220    4.7191    5.5403 C.3       1 RES1    0.0000
     49 H25        5.1883    4.2674    6.1341 H         1 RES1    0.0000
     50 C17        4.4621    3.8482    4.2726 C.3       1 RES1    0.0000
     51 H26        4.5095    2.8966    4.5409 H         1 RES1    0.0000
     52 H27        3.5868    3.9915    3.8324 H         1 RES1    0.0000
     53 C18        5.5491    4.1169    3.2750 C.2       1 RES1    0.0000
     54 H28        5.5474    3.5932    2.4827 H         1 RES1    0.0000
     55 C19        5.1788    6.9688    6.5114 C.3       1 RES1    0.0000
     56 H29        5.9095    6.6388    7.0922 H         1 RES1    0.0000
     57 H30        5.3892    7.9038    6.2652 H         1 RES1    0.0000
     58 C20        3.8649    6.9508    7.3085 C.3       1 RES1    0.0000
     59 H31        3.9777    7.4694    8.1439 H         1 RES1    0.0000
     60 H32        3.1493    7.3801    6.7754 H         1 RES1    0.0000
     61 C21        3.4549    5.5136    7.6508 C.3       1 RES1    0.0000
     62 H33        4.2786    5.0987    8.0378 H         1 RES1    0.0000
     63 C22        1.9687    5.2385    5.5502 C.3       1 RES1    0.0000
     64 H34        1.1493    4.8062    5.8704 H         1 RES1    0.0000
     65 H35        2.0929    5.0368    4.5986 H         1 RES1    0.0000
     66 H36        1.8957    6.2081    5.6722 H         1 RES1    0.0000
     67 C23        3.1778    4.7076    6.3516 C.3       1 RES1    0.0000
     68 C24        2.8950    3.2402    6.7536 C.3       1 RES1    0.0000
     69 H37        2.6247    2.7323    5.9484 H         1 RES1    0.0000
     70 H38        3.7287    2.8353    7.1015 H         1 RES1    0.0000
     71 C25        1.7984    3.1105    7.8153 C.3       1 RES1    0.0000
     72 H39        0.9389    3.4368    7.4464 H         1 RES1    0.0000
     73 H40        1.6857    2.1582    8.0612 H         1 RES1    0.0000
     74 C26        2.1606    3.9123    9.0435 C.3       1 RES1    0.0000
     75 H41        2.9891    3.5269    9.4484 H         1 RES1    0.0000
     76 C27        2.3861    5.4149    8.7851 C.3       1 RES1    0.0000
     77 C28        1.0592    6.1331    8.4849 C.3       1 RES1    0.0000
     78 H42        1.2453    7.0213    8.1158 H         1 RES1    0.0000
     79 H43        0.5420    6.2239    9.3127 H         1 RES1    0.0000
     80 H44        0.5454    5.6102    7.8350 H         1 RES1    0.0000
     81 C29        2.9779    6.0287   10.0701 C.3       1 RES1    0.0000
     82 H45        3.9015    5.7211   10.1834 H         1 RES1    0.0000
     83 H46        2.4440    5.7478   10.8419 H         1 RES1    0.0000
     84 H47        2.9643    7.0062   10.0008 H         1 RES1    0.0000
     85 C30        1.0328    2.7828   10.8438 C.2       1 RES1    0.0000
     86 C31       -0.0736    2.9297   11.8511 C.ar      1 RES1    0.0000
     87 C32       -0.3351    1.8816   12.7366 C.ar      1 RES1    0.0000
     88 H48        0.1748    1.0805   12.7051 H         1 RES1    0.0000
     89 C33       -1.3536    2.0365   13.6615 C.ar      1 RES1    0.0000
     90 C34       -2.1307    3.1782   13.7428 C.ar      1 RES1    0.0000
     91 H49       -2.8341    3.2596   14.3763 H         1 RES1    0.0000
     92 C35       -1.8315    4.1911   12.8569 C.ar      1 RES1    0.0000
     93 C36       -0.8205    4.1039   11.9132 C.ar      1 RES1    0.0000
     94 H50       -0.6413    4.8264   11.3225 H         1 RES1    0.0000
@<TRIPOS>BOND
     1    1   74 1
     2    2   85 2
     3    3    7 2
     4    4    7 2
     5    5    8 2
     6    6    8 2
     7    7   89 1
     8    8   92 1
     9    9   10 1
    10   11    9 1
    11   12    9 1
    12   13   14 1
    13   15   13 1
    14   16   13 1
    15   17    9 1
    16   18   17 1
    17   19   18 1
    18   20   18 1
    19   21   18 1
    20   22   21 1
    21   23   21 1
    22   24   21 1
    23   25   24 1
    24   26   24 1
    25   27   26 1
    26   28   17 1
    27   29   28 1
    28   30   28 1
    29   31   26 1
    30   32   31 1
    31   33   32 1
    32   34   33 1
    33   35   33 1
    34   36   24 1
    35   37   36 1
    36   38   36 1
    37   39   32 1
    38   40   39 1
    39   41   39 1
    40   42   39 1
    41   43   44 1
    42   45   43 1
    43   46   43 1
    44   47   32 1
    45   48   47 1
    46   49   48 1
    47   50   48 1
    48   51   50 1
    49   52   50 1
    50   53   31 2
    51   54   53 1
    52   55   47 1
    53   56   55 1
    54   57   55 1
    55   58   55 1
    56   59   58 1
    57   60   58 1
    58   61   58 1
    59   62   61 1
    60   63   64 1
    61   65   63 1
    62   66   63 1
    63   67   48 1
    64   68   67 1
    65   69   68 1
    66   70   68 1
    67   71   68 1
    68   72   71 1
    69   73   71 1
    70   74   71 1
    71   75   74 1
    72   76   61 1
    73   77   76 1
    74   78   77 1
    75   79   77 1
    76   80   77 1
    77   81   76 1
    78   82   81 1
    79   83   81 1
    80   84   81 1
    81   85    1 1
    82   86   85 1
    83   87   86 ar
    84   88   87 1
    85   89   87 ar
    86   90   89 ar
    87   91   90 1
    88   92   90 ar
    89   93   86 ar
    90   94   93 1
    91   13   17 1
    92   26   28 1
    93   33   36 1
    94   43   47 1
    95   50   53 1
    96   61   67 1
    97   63   67 1
    98   74   76 1
    99   92   93 ar
@<TRIPOS>SUBSTRUCTURE
     1 RES1 1

@<TRIPOS>CRYSIN
  14.3817    7.2036   15.6304  90.0000  93.3070  90.0000   4 1

