# MOL2 file generated by ConQuest
# Please check atom types

@<TRIPOS>MOLECULE
LAYHUO
    51    55     1
SMALL
NO_CHARGES
****
Generated from CSD

@<TRIPOS>ATOM
      1 O1         2.7389    2.6444    1.9685 O.2       1 RES1    0.0000
      2 N1         3.3741    1.6867    2.5289 N.pl3     1 RES1    0.0000
      3 N2         5.1847   -1.3589    2.5586 N.2       1 RES1    0.0000
      4 C1         4.1860    0.7092    1.7524 C.3       1 RES1    0.0000
      5 C2         4.6306   -0.2558    2.8686 C.2       1 RES1    0.0000
      6 C3         4.2474    0.3540    4.1561 C.ar      1 RES1    0.0000
      7 C4         4.5333    0.0388    5.4843 C.ar      1 RES1    0.0000
      8 C5         3.9982    0.8439    6.4862 C.ar      1 RES1    0.0000
      9 C6         3.1915    1.9337    6.1864 C.ar      1 RES1    0.0000
     10 C7         2.9143    2.2888    4.8793 C.ar      1 RES1    0.0000
     11 C8         3.4732    1.4914    3.8892 C.ar      1 RES1    0.0000
     12 C9         3.2827    0.0240    0.6989 C.3       1 RES1    0.0000
     13 C10        2.0286   -0.6107    1.2586 C.ar      1 RES1    0.0000
     14 C11        0.8960    0.1482    1.4832 C.ar      1 RES1    0.0000
     15 C12       -0.2727   -0.4258    1.9888 C.ar      1 RES1    0.0000
     16 C13       -0.3080   -1.7608    2.2682 C.ar      1 RES1    0.0000
     17 C14        0.7990   -2.5381    2.0358 C.ar      1 RES1    0.0000
     18 C15        1.9743   -1.9717    1.5325 C.ar      1 RES1    0.0000
     19 C16        5.3807    1.4316    1.1247 C.ar      1 RES1    0.0000
     20 C17        6.0733    0.8529    0.0767 C.ar      1 RES1    0.0000
     21 C18        7.1489    1.5092   -0.5150 C.ar      1 RES1    0.0000
     22 C19        7.5429    2.7432   -0.0681 C.ar      1 RES1    0.0000
     23 C20        6.8719    3.3238    0.9964 C.ar      1 RES1    0.0000
     24 C21        5.8018    2.6723    1.5865 C.ar      1 RES1    0.0000
     25 C22        5.4407   -2.3675    3.5323 C.ar      1 RES1    0.0000
     26 C23        6.7403   -2.7985    3.7467 C.ar      1 RES1    0.0000
     27 C24        6.9757   -3.8679    4.6054 C.ar      1 RES1    0.0000
     28 C25        5.9291   -4.5167    5.2237 C.ar      1 RES1    0.0000
     29 C26        4.6459   -4.1021    4.9959 C.ar      1 RES1    0.0000
     30 C27        4.3904   -3.0253    4.1498 C.ar      1 RES1    0.0000
     31 H1         5.0959   -0.7586    5.7215 H         1 RES1    0.0000
     32 H2         4.0811    0.6605    7.3808 H         1 RES1    0.0000
     33 H3         2.8698    2.4449    6.9112 H         1 RES1    0.0000
     34 H4         2.3086    3.0975    4.6414 H         1 RES1    0.0000
     35 H5         3.0552    0.7311   -0.0313 H         1 RES1    0.0000
     36 H6         3.8286   -0.6653    0.1800 H         1 RES1    0.0000
     37 H7         0.9705    1.1821    1.2288 H         1 RES1    0.0000
     38 H8        -1.1591    0.1138    1.9959 H         1 RES1    0.0000
     39 H9        -1.1666   -2.1899    2.5203 H         1 RES1    0.0000
     40 H10        0.8797   -3.4740    2.1524 H         1 RES1    0.0000
     41 H11        2.7964   -2.4571    1.2914 H         1 RES1    0.0000
     42 H12        5.8209   -0.0464   -0.2035 H         1 RES1    0.0000
     43 H13        7.5769    1.0654   -1.2367 H         1 RES1    0.0000
     44 H14        8.4011    3.2246   -0.4461 H         1 RES1    0.0000
     45 H15        7.1552    4.2943    1.3384 H         1 RES1    0.0000
     46 H16        5.3485    3.0747    2.2933 H         1 RES1    0.0000
     47 H17        7.4444   -2.3827    3.3030 H         1 RES1    0.0000
     48 H18        8.0017   -4.1304    4.7196 H         1 RES1    0.0000
     49 H19        6.0800   -5.3041    5.7841 H         1 RES1    0.0000
     50 H20        3.8178   -4.5892    5.4162 H         1 RES1    0.0000
     51 H21        3.4039   -2.7087    4.0309 H         1 RES1    0.0000
@<TRIPOS>BOND
     1    1    2 1
     2    2    4 1
     3    3    5 2
     4    4    5 1
     5    5    6 1
     6    6    7 ar
     7    7    8 ar
     8    8    9 ar
     9    9   10 ar
    10   10   11 ar
    11   11    2 1
    12   12    4 1
    13   13   12 1
    14   14   13 ar
    15   15   14 ar
    16   16   15 ar
    17   17   16 ar
    18   18   13 ar
    19   19    4 1
    20   20   19 ar
    21   21   20 ar
    22   22   21 ar
    23   23   22 ar
    24   24   19 ar
    25   25    3 1
    26   26   25 ar
    27   27   26 ar
    28   28   27 ar
    29   29   28 ar
    30   30   25 ar
    31   31    7 1
    32   32    8 1
    33   33    9 1
    34   34   10 1
    35   35   12 1
    36   36   12 1
    37   37   14 1
    38   38   15 1
    39   39   16 1
    40   40   17 1
    41   41   18 1
    42   42   20 1
    43   43   21 1
    44   44   22 1
    45   45   23 1
    46   46   24 1
    47   47   26 1
    48   48   27 1
    49   49   28 1
    50   50   29 1
    51   51   30 1
    52    6   11 ar
    53   17   18 ar
    54   23   24 ar
    55   29   30 ar
@<TRIPOS>SUBSTRUCTURE
     1 RES1 1

@<TRIPOS>CRYSIN
  15.6700    8.6730    8.3210 108.2000  86.4000  77.6000   2 1

