# MOL2 file generated by ConQuest
# Please check atom types

@<TRIPOS>MOLECULE
LAYPOR
    55    56     2
SMALL
NO_CHARGES
****
Generated from CSD

@<TRIPOS>ATOM
      1 O1         7.8179    5.0499    1.7057 O.2       1 RES1    0.0000
      2 O2         3.6477    6.7795    4.0257 O.2       1 RES1    0.0000
      3 O3         3.3520    6.3200    2.0232 Du        2 SUP2    0.0000
      4 N1         6.5956    5.1756    1.5318 N.2       1 RES1    0.0000
      5 N2         4.4477    5.7663    1.7312 N.2       1 RES1    0.0000
      6 C1         5.6642    5.8799    2.2557 C.2       1 RES1    0.0000
      7 C2         4.4626    4.7637    0.6313 C.3       1 RES1    0.0000
      8 C3         5.9791    4.6793    0.2759 C.3       1 RES1    0.0000
      9 C4         3.5418    5.2175   -0.4999 C.3       1 RES1    0.0000
     10 C5         3.9121    3.4585    1.2285 C.3       1 RES1    0.0000
     11 C6         6.3671    5.6553   -0.8410 C.3       1 RES1    0.0000
     12 C7         6.5140    3.2947   -0.0331 C.3       1 RES1    0.0000
     13 C8         5.9604    6.6028    3.4880 C.2       1 RES1    0.0000
     14 C9         7.2833    6.9163    3.8556 C.2       1 RES1    0.0000
     15 C10        4.9236    6.9273    4.3914 C.2       1 RES1    0.0000
     16 H1         4.0307    5.7449   -1.1208 H         1 RES1    0.0000
     17 H2         3.1967    4.4488   -0.9403 H         1 RES1    0.0000
     18 H3         2.8239    5.7290   -0.1465 H         1 RES1    0.0000
     19 H4         2.9687    3.4302    1.1245 H         1 RES1    0.0000
     20 H5         4.3024    2.7164    0.7806 H         1 RES1    0.0000
     21 H6         4.1315    3.4230    2.1517 H         1 RES1    0.0000
     22 H7         7.1872    5.3837   -1.2379 H         1 RES1    0.0000
     23 H8         5.6862    5.6727   -1.5035 H         1 RES1    0.0000
     24 H9         6.4682    6.5223   -0.4678 H         1 RES1    0.0000
     25 H10        5.9534    2.6456    0.3752 H         1 RES1    0.0000
     26 H11        6.5292    3.1542   -0.9724 H         1 RES1    0.0000
     27 H12        7.3947    3.2163    0.3137 H         1 RES1    0.0000
     28 H13        7.9973    6.7058    3.2649 H         1 RES1    0.0000
     29 O1B        4.6670    9.3991    7.7442 O.2       1 RES1    0.0000
     30 O2B        8.8373    7.6695    5.4242 O.2       1 RES1    0.0000
     31 N1B        5.8894    9.2734    7.9181 N.2       1 RES1    0.0000
     32 N2B        8.0373    8.6827    7.7187 N.2       1 RES1    0.0000
     33 C1B        6.8208    8.5691    7.1942 C.2       1 RES1    0.0000
     34 C2B        8.0224    9.6853    8.8186 C.3       1 RES1    0.0000
     35 C3B        6.5059    9.7697    9.1740 C.3       1 RES1    0.0000
     36 C4B        8.9432    9.2315    9.9498 C.3       1 RES1    0.0000
     37 C5B        8.5729   10.9905    8.2214 C.3       1 RES1    0.0000
     38 C6B        6.1178    8.7937   10.2909 C.3       1 RES1    0.0000
     39 C7B        5.9709   11.1543    9.4830 C.3       1 RES1    0.0000
     40 C8B        6.5245    7.8462    5.9619 C.2       1 RES1    0.0000
     41 C9B        5.2017    7.5327    5.5943 C.2       1 RES1    0.0000
     42 C10B       7.5614    7.5217    5.0585 C.2       1 RES1    0.0000
     43 H1B        8.4543    8.7041   10.5706 H         1 RES1    0.0000
     44 H2B        9.2883   10.0002   10.3902 H         1 RES1    0.0000
     45 H3B        9.6610    8.7200    9.5964 H         1 RES1    0.0000
     46 H4B        9.5163   11.0188    8.3254 H         1 RES1    0.0000
     47 H5B        8.1826   11.7326    8.6693 H         1 RES1    0.0000
     48 H6B        8.3535   11.0260    7.2981 H         1 RES1    0.0000
     49 H7B        5.2977    9.0653   10.6878 H         1 RES1    0.0000
     50 H8B        6.7987    8.7763   10.9534 H         1 RES1    0.0000
     51 H9B        6.0168    7.9267    9.9177 H         1 RES1    0.0000
     52 H10B       6.5316   11.8034    9.0747 H         1 RES1    0.0000
     53 H11B       5.9558   11.2948   10.4223 H         1 RES1    0.0000
     54 H12B       5.0903   11.2327    9.1362 H         1 RES1    0.0000
     55 H13B       4.4877    7.7432    6.1850 H         1 RES1    0.0000
@<TRIPOS>BOND
     1    1    4 1
     2    2   15 1
     3    4    6 1
     4    5    6 1
     5    6   13 1
     6    7    5 1
     7    8    4 1
     8    9    7 1
     9   10    7 1
    10   11    8 1
    11   12    8 1
    12   13   14 1
    13   14   28 1
    14   15   13 1
    15   16    9 1
    16   17    9 1
    17   18    9 1
    18   19   10 1
    19   20   10 1
    20   21   10 1
    21   22   11 1
    22   23   11 1
    23   24   11 1
    24   25   12 1
    25   26   12 1
    26   27   12 1
    27   29   31 1
    28   30   42 1
    29   31   33 1
    30   32   33 1
    31   33   40 1
    32   34   32 1
    33   35   31 1
    34   36   34 1
    35   37   34 1
    36   38   35 1
    37   39   35 1
    38   40   41 1
    39   41   15 1
    40   42   14 1
    41   43   36 1
    42   44   36 1
    43   45   36 1
    44   46   37 1
    45   47   37 1
    46   48   37 1
    47   49   38 1
    48   50   38 1
    49   51   38 1
    50   52   39 1
    51   53   39 1
    52   54   39 1
    53   55   41 1
    54    7    8 1
    55   34   35 1
    56   40   42 1
@<TRIPOS>SUBSTRUCTURE
     1 RES1 1
     2 SUP2 3

@<TRIPOS>CRYSIN
   7.0650   14.4490    9.5920  90.0000  99.8750  90.0000 231 1

