# MOL2 file generated by ConQuest
# Please check atom types

@<TRIPOS>MOLECULE
LAZZIV
    25    25     1
SMALL
NO_CHARGES
****
Generated from CSD

@<TRIPOS>ATOM
      1 C1         0.9371    1.7337    7.3245 C.2       1 RES1    0.0000
      2 C2        -0.0037    1.4191    8.4549 C.3       1 RES1    0.0000
      3 C3         0.2831    0.0534    9.0647 C.3       1 RES1    0.0000
      4 C4        -0.7142   -0.3416   10.1227 C.2       1 RES1    0.0000
      5 C5        -1.7407   -1.3751    9.8513 C.ar      1 RES1    0.0000
      6 C6        -2.0665   -2.3183   10.8267 C.ar      1 RES1    0.0000
      7 C7        -3.0350   -3.2708   10.5757 C.ar      1 RES1    0.0000
      8 C8        -3.7070   -3.2866    9.3737 C.ar      1 RES1    0.0000
      9 C9        -3.3892   -2.3664    8.3996 C.ar      1 RES1    0.0000
     10 C10       -2.3969   -1.4221    8.6195 C.ar      1 RES1    0.0000
     11 N1        -0.7446    0.1573   11.3053 N.2       1 RES1    0.0000
     12 O1         0.2633    1.0975   11.5347 O.3       1 RES1    0.0000
     13 O2         1.9414    1.0887    7.0883 O.2       1 RES1    0.0000
     14 O3         0.5545    2.7755    6.6054 O.3       1 RES1    0.0000
     15 H1        -0.9018    1.4790    8.1217 H         1 RES1    0.0000
     16 H2         0.0842    2.1304    9.1335 H         1 RES1    0.0000
     17 H3         1.1433    0.0822    9.4438 H         1 RES1    0.0000
     18 H4         0.3042   -0.5928    8.3780 H         1 RES1    0.0000
     19 H5        -1.5917   -2.2772   11.6699 H         1 RES1    0.0000
     20 H6        -3.2874   -3.9322   11.2786 H         1 RES1    0.0000
     21 H7        -4.3719   -3.9264    9.1875 H         1 RES1    0.0000
     22 H8        -3.8340   -2.3769    7.5955 H         1 RES1    0.0000
     23 H9        -2.1751   -0.7923    7.9328 H         1 RES1    0.0000
     24 H10        0.0368    1.3968   12.3444 H         1 RES1    0.0000
     25 H11        1.1843    2.8699    5.8956 H         1 RES1    0.0000
@<TRIPOS>BOND
     1    1    2 1
     2    2    3 1
     3    3    4 1
     4    4    5 1
     5    5    6 ar
     6    6    7 ar
     7    7    8 ar
     8    8    9 ar
     9    9   10 ar
    10   10    5 ar
    11   11    4 2
    12   12   11 1
    13   13    1 2
    14   14    1 1
    15   15    2 1
    16   16    2 1
    17   17    3 1
    18   18    3 1
    19   19    6 1
    20   20    7 1
    21   21    8 1
    22   22    9 1
    23   23   10 1
    24   24   12 1
    25   25   14 1
@<TRIPOS>SUBSTRUCTURE
     1 RES1 1

@<TRIPOS>CRYSIN
  12.2420    5.8690   14.8120  90.0000 114.3800  90.0000  14 1

