# MOL2 file generated by ConQuest
# Please check atom types

@<TRIPOS>MOLECULE
LAZZOB
    28    28     1
SMALL
NO_CHARGES
****
Generated from CSD

@<TRIPOS>ATOM
      1 N1        11.2001    0.7234   16.8756 N.2       1 RES1    0.0000
      2 O1        10.9244   -0.6414   17.0666 O.3       1 RES1    0.0000
      3 O2        10.8744    0.2733   11.3646 O.2       1 RES1    0.0000
      4 O3        11.0786   -1.8887   10.8574 O.3       1 RES1    0.0000
      5 C1        10.7412   -0.8974   11.6627 C.2       1 RES1    0.0000
      6 C2        10.1486   -1.3730   12.9530 C.3       1 RES1    0.0000
      7 C3        10.1544   -0.3271   14.0640 C.3       1 RES1    0.0000
      8 C4        11.5585   -0.0191   14.5717 C.3       1 RES1    0.0000
      9 C5        11.5187    1.0113   15.6642 C.2       1 RES1    0.0000
     10 C6        11.7903    2.4436   15.3911 C.ar      1 RES1    0.0000
     11 C7        11.0540    3.4458   16.0144 C.ar      1 RES1    0.0000
     12 C8        11.3401    4.7778   15.7798 C.ar      1 RES1    0.0000
     13 C9        12.3716    5.1213   14.9303 C.ar      1 RES1    0.0000
     14 C10       13.1042    4.1437   14.3002 C.ar      1 RES1    0.0000
     15 C11       12.8111    2.8080   14.5114 C.ar      1 RES1    0.0000
     16 H1         9.1932   -1.6309   12.7519 H         1 RES1    0.0000
     17 H2        10.6083   -2.1593   13.2043 H         1 RES1    0.0000
     18 H3         9.7433    0.5102   13.7741 H         1 RES1    0.0000
     19 H4         9.6204   -0.6742   14.8297 H         1 RES1    0.0000
     20 H5        12.1108    0.3189   13.8243 H         1 RES1    0.0000
     21 H6        11.9570   -0.8382   14.9470 H         1 RES1    0.0000
     22 H7        10.3217    3.1889   16.6395 H         1 RES1    0.0000
     23 H8        10.8091    5.4484   16.2205 H         1 RES1    0.0000
     24 H9        12.6233    6.0315   14.7795 H         1 RES1    0.0000
     25 H10       13.8430    4.4097   13.7070 H         1 RES1    0.0000
     26 H11       13.3463    2.1502   14.0422 H         1 RES1    0.0000
     27 H12       11.3752   -1.5306   10.0205 H         1 RES1    0.0000
     28 H13       10.6936   -0.6378   17.9297 H         1 RES1    0.0000
@<TRIPOS>BOND
     1    1    2 1
     2    2   28 1
     3    3    5 2
     4    4    5 1
     5    5    6 1
     6    6    7 1
     7    7    8 1
     8    8    9 1
     9    9    1 2
    10   10    9 1
    11   11   10 ar
    12   12   11 ar
    13   13   12 ar
    14   14   13 ar
    15   15   10 ar
    16   16    6 1
    17   17    6 1
    18   18    7 1
    19   19    7 1
    20   20    8 1
    21   21    8 1
    22   22   11 1
    23   23   12 1
    24   24   13 1
    25   25   14 1
    26   26   15 1
    27   27    4 1
    28   14   15 ar
@<TRIPOS>SUBSTRUCTURE
     1 RES1 1

@<TRIPOS>CRYSIN
  13.7000    9.1110   16.7790  90.0000  92.9500  90.0000  15 1

