# MOL2 file generated by ConQuest
# Please check atom types

@<TRIPOS>MOLECULE
LEBGEE02
    27    27     1
SMALL
NO_CHARGES
****
Generated from CSD

@<TRIPOS>ATOM
      1 O1         6.5100    4.8736    3.2534 O.2       1 RES1    0.0000
      2 O2         5.7011    4.3549    1.3172 O.2       1 RES1    0.0000
      3 O3         1.4946    2.2380    0.8243 O.2       1 RES1    0.0000
      4 O4         0.2159    1.9125    2.5444 O.2       1 RES1    0.0000
      5 N1         5.0956    4.5962    5.4165 N.3       1 RES1    0.0000
      6 N2         4.7945    4.6982    6.7673 N.2       1 RES1    0.0000
      7 N3         5.6011    4.4254    2.5352 N.pl3     1 RES1    0.0000
      8 N4         1.2529    2.3311    2.0198 N.pl3     1 RES1    0.0000
      9 C1         4.1683    4.0911    4.5687 C.ar      1 RES1    0.0000
     10 C2         4.3783    3.9690    3.1720 C.ar      1 RES1    0.0000
     11 C3         3.4230    3.3981    2.3340 C.ar      1 RES1    0.0000
     12 C4         2.2487    2.9530    2.8834 C.ar      1 RES1    0.0000
     13 C5         1.9789    3.0860    4.2487 C.ar      1 RES1    0.0000
     14 C6         2.9189    3.6476    5.0701 C.ar      1 RES1    0.0000
     15 C7         5.7520    5.1240    7.5148 C.2       1 RES1    0.0000
     16 C8         5.4605    5.2384    8.9714 C.3       1 RES1    0.0000
     17 C9         7.1264    5.4870    7.0276 C.3       1 RES1    0.0000
     18 H1         5.9792    4.8245    5.0921 H         1 RES1    0.0000
     19 H2         3.5822    3.3187    1.4005 H         1 RES1    0.0000
     20 H3         1.1494    2.7887    4.6035 H         1 RES1    0.0000
     21 H4         2.7297    3.7426    5.9967 H         1 RES1    0.0000
     22 H5         4.5100    5.0607    9.1298 H         1 RES1    0.0000
     23 H6         5.6782    6.1440    9.2779 H         1 RES1    0.0000
     24 H7         6.0016    4.5874    9.4647 H         1 RES1    0.0000
     25 H8         7.5835    4.6807    6.7089 H         1 RES1    0.0000
     26 H9         7.6388    5.8840    7.7624 H         1 RES1    0.0000
     27 H10        7.0531    6.1322    6.2939 H         1 RES1    0.0000
@<TRIPOS>BOND
     1    1    7 2
     2    2    7 2
     3    3    8 2
     4    4    8 2
     5    5    6 1
     6    6   15 2
     7    7   10 1
     8    8   12 1
     9    9    5 1
    10   10    9 ar
    11   11   10 ar
    12   12   11 ar
    13   13   12 ar
    14   14    9 ar
    15   15   16 1
    16   16   22 1
    17   17   15 1
    18   18    5 1
    19   19   11 1
    20   20   13 1
    21   21   14 1
    22   23   16 1
    23   24   16 1
    24   25   17 1
    25   26   17 1
    26   27   17 1
    27   13   14 ar
@<TRIPOS>SUBSTRUCTURE
     1 RES1 1

@<TRIPOS>CRYSIN
   7.0932    8.2032   10.0526  66.6130  88.8220  77.3870   2 1

