# MOL2 file generated by ConQuest
# Please check atom types

@<TRIPOS>MOLECULE
LEBKIN
    34    35     1
SMALL
NO_CHARGES
****
Generated from CSD

@<TRIPOS>ATOM
      1 O1        -2.4115   -0.3820    4.3776 O.2       1 RES1    0.0000
      2 N1         1.3063    0.6345    1.7132 N.ar      1 RES1    0.0000
      3 N2         0.4095    3.1701   -0.7050 N.ar      1 RES1    0.0000
      4 N3        -1.1381   -0.4507    4.2696 N.3       1 RES1    0.0000
      5 C1         0.5043    1.4374    0.9701 C.ar      1 RES1    0.0000
      6 C2        -0.8169    1.6019    1.2877 C.ar      1 RES1    0.0000
      7 C3        -1.3481    0.9725    2.3468 C.ar      1 RES1    0.0000
      8 C4        -0.5553    0.1671    3.1645 C.ar      1 RES1    0.0000
      9 C5         0.7807    0.0298    2.7723 C.ar      1 RES1    0.0000
     10 C6         1.1198    2.1561   -0.1651 C.ar      1 RES1    0.0000
     11 C7         2.3719    1.8298   -0.6113 C.ar      1 RES1    0.0000
     12 C8         2.9269    2.5433   -1.6291 C.ar      1 RES1    0.0000
     13 C9         2.2286    3.5832   -2.2007 C.ar      1 RES1    0.0000
     14 C10        0.9812    3.8642   -1.7069 C.ar      1 RES1    0.0000
     15 C11       -0.3981   -1.1577    5.3954 C.3       1 RES1    0.0000
     16 C12       -1.4155   -1.4426    6.4798 C.3       1 RES1    0.0000
     17 C13        0.1878   -2.4579    4.8777 C.3       1 RES1    0.0000
     18 C14        0.6884   -0.2448    5.9559 C.3       1 RES1    0.0000
     19 H1        -1.2458    2.0461    0.7304 H         1 RES1    0.0000
     20 H2        -2.2411    0.9583    2.5564 H         1 RES1    0.0000
     21 H3         1.3438   -0.5439    3.2074 H         1 RES1    0.0000
     22 H4         2.8497    1.0360   -0.2223 H         1 RES1    0.0000
     23 H5         3.7961    2.3439   -1.9371 H         1 RES1    0.0000
     24 H6         2.6947    4.0921   -2.8898 H         1 RES1    0.0000
     25 H7         0.4531    4.6878   -2.0959 H         1 RES1    0.0000
     26 H8        -1.9719   -0.5180    6.8434 H         1 RES1    0.0000
     27 H9        -2.1652   -1.9943    6.1289 H         1 RES1    0.0000
     28 H10       -0.9539   -1.8130    7.1451 H         1 RES1    0.0000
     29 H11       -0.6346   -3.0303    4.6364 H         1 RES1    0.0000
     30 H12        0.7057   -3.0173    5.6526 H         1 RES1    0.0000
     31 H13        0.7525   -2.2792    4.1918 H         1 RES1    0.0000
     32 H14        1.1136   -0.8029    6.8276 H         1 RES1    0.0000
     33 H15        1.4061   -0.0129    5.3668 H         1 RES1    0.0000
     34 H16        0.2721    0.5180    6.2560 H         1 RES1    0.0000
@<TRIPOS>BOND
     1    1    4 1
     2    2    5 ar
     3    3   10 ar
     4    4    8 1
     5    5    6 ar
     6    6    7 ar
     7    7    8 ar
     8    8    9 ar
     9    9    2 ar
    10   10    5 1
    11   11   10 ar
    12   12   11 ar
    13   13   12 ar
    14   14    3 ar
    15   15    4 1
    16   16   15 1
    17   17   15 1
    18   18   15 1
    19   19    6 1
    20   20    7 1
    21   21    9 1
    22   22   11 1
    23   23   12 1
    24   24   13 1
    25   25   14 1
    26   26   16 1
    27   27   16 1
    28   28   16 1
    29   29   17 1
    30   30   17 1
    31   31   17 1
    32   32   18 1
    33   33   18 1
    34   34   18 1
    35   13   14 ar
@<TRIPOS>SUBSTRUCTURE
     1 RES1 1

@<TRIPOS>CRYSIN
   6.1429   12.9498   15.9699  90.0000  96.1480  90.0000 231 1

