# MOL2 file generated by ConQuest
# Please check atom types

@<TRIPOS>MOLECULE
LEBKIN01
    34    35     1
SMALL
NO_CHARGES
****
Generated from CSD

@<TRIPOS>ATOM
      1 O1         5.9094   -2.0647   28.5547 O.2       1 RES1    0.0000
      2 N1         5.0402    1.4960   27.0030 N.ar      1 RES1    0.0000
      3 N2         3.5095    2.9370   24.0614 N.ar      1 RES1    0.0000
      4 N3         4.6679   -2.1177   27.8074 N.3       1 RES1    0.0000
      5 C1         4.3014    1.5837   25.8787 C.ar      1 RES1    0.0000
      6 C2         3.6541    0.4729   25.3650 C.ar      1 RES1    0.0000
      7 C3         3.7533   -0.7511   26.0039 C.ar      1 RES1    0.0000
      8 C4         4.4913   -0.8448   27.1762 C.ar      1 RES1    0.0000
      9 C5         5.1226    0.3190   27.6186 C.ar      1 RES1    0.0000
     10 C6         4.1862    2.9136   25.2257 C.ar      1 RES1    0.0000
     11 C7         4.7124    4.0703   25.8059 C.ar      1 RES1    0.0000
     12 C8         4.5569    5.2871   25.1673 C.ar      1 RES1    0.0000
     13 C9         3.8836    5.3268   23.9678 C.ar      1 RES1    0.0000
     14 C10        3.3851    4.1426   23.4690 C.ar      1 RES1    0.0000
     15 C11        3.5910   -2.5345   28.7671 C.3       1 RES1    0.0000
     16 C12        3.5070   -1.5541   29.9482 C.3       1 RES1    0.0000
     17 C13        3.9491   -3.9256   29.2720 C.3       1 RES1    0.0000
     18 C14        2.2612   -2.5763   28.0272 C.3       1 RES1    0.0000
     19 H1         3.1607    0.5605   24.5596 H         1 RES1    0.0000
     20 H2         3.3456   -1.5388   25.6275 H         1 RES1    0.0000
     21 H3         5.6404    0.3159   28.3754 H         1 RES1    0.0000
     22 H4         5.1193    3.9745   26.7383 H         1 RES1    0.0000
     23 H5         4.9175    6.2063   25.6520 H         1 RES1    0.0000
     24 H6         3.7323    6.2165   23.4855 H         1 RES1    0.0000
     25 H7         2.8917    4.0866   22.6746 H         1 RES1    0.0000
     26 H8         3.1943   -0.6013   29.5841 H         1 RES1    0.0000
     27 H9         4.4468   -1.6204   30.4317 H         1 RES1    0.0000
     28 H10        2.8244   -2.0280   30.6857 H         1 RES1    0.0000
     29 H11        4.8419   -3.7911   29.8075 H         1 RES1    0.0000
     30 H12        3.1943   -4.1579   29.8625 H         1 RES1    0.0000
     31 H13        3.9340   -4.4942   28.3540 H         1 RES1    0.0000
     32 H14        1.5383   -2.9248   28.7059 H         1 RES1    0.0000
     33 H15        2.5890   -3.3732   27.2034 H         1 RES1    0.0000
     34 H16        1.9334   -1.6509   27.8307 H         1 RES1    0.0000
@<TRIPOS>BOND
     1    1    4 1
     2    2    5 ar
     3    3   10 ar
     4    4    8 1
     5    5    6 ar
     6    6    7 ar
     7    7    8 ar
     8    8    9 ar
     9    9    2 ar
    10   10    5 1
    11   11   10 ar
    12   12   11 ar
    13   13   12 ar
    14   14    3 ar
    15   15    4 1
    16   16   15 1
    17   17   15 1
    18   18   15 1
    19   19    6 1
    20   20    7 1
    21   21    9 1
    22   22   11 1
    23   23   12 1
    24   24   13 1
    25   25   14 1
    26   26   16 1
    27   27   16 1
    28   28   16 1
    29   29   17 1
    30   30   17 1
    31   31   17 1
    32   32   18 1
    33   33   18 1
    34   34   18 1
    35   13   14 ar
@<TRIPOS>SUBSTRUCTURE
     1 RES1 1

@<TRIPOS>CRYSIN
   8.4060   10.1910   30.6000  90.0000  90.0000  90.0000  61 1

