# MOL2 file generated by ConQuest
# Please check atom types

@<TRIPOS>MOLECULE
LECVAQ
    36    39     1
SMALL
NO_CHARGES
****
Generated from CSD

@<TRIPOS>ATOM
      1 N1        -0.8657    5.3585    2.9526 N.2       1 RES1    0.0000
      2 N2         0.0144    6.4464    2.7769 N.am      1 RES1    0.0000
      3 N3         1.2224    8.6588    1.1484 N.pl3     1 RES1    0.0000
      4 N4         4.6368    5.4756   -0.2542 N.pl3     1 RES1    0.0000
      5 O1         0.9192    3.9428    2.3725 O.3       1 RES1    0.0000
      6 O2        -2.3887    3.1224    3.4942 O.3       1 RES1    0.0000
      7 O3         0.8382    8.3141    3.7432 O.2       1 RES1    0.0000
      8 O4        -1.0951    8.5487    5.4962 O.3       1 RES1    0.0000
      9 O5         0.0072    8.7692    1.1140 O.2       1 RES1    0.0000
     10 O6         2.0094    9.5831    1.0661 O.2       1 RES1    0.0000
     11 O7         5.2629    6.4133   -0.6976 O.2       1 RES1    0.0000
     12 O8         4.9863    4.3144   -0.3672 O.2       1 RES1    0.0000
     13 C1        -0.3655    4.2109    2.7622 C.2       1 RES1    0.0000
     14 C2         1.1109    6.2819    1.9209 C.ar      1 RES1    0.0000
     15 C3         1.7747    7.2971    1.2208 C.ar      1 RES1    0.0000
     16 C4         2.9348    7.0514    0.5244 C.ar      1 RES1    0.0000
     17 H1         3.4041    7.7430    0.1167 H         1 RES1    0.0000
     18 C5         3.3795    5.7533    0.4495 C.ar      1 RES1    0.0000
     19 C6         2.6983    4.6953    1.0219 C.ar      1 RES1    0.0000
     20 H2         2.9877    3.8181    0.9138 H         1 RES1    0.0000
     21 C7         1.5814    4.9913    1.7526 C.ar      1 RES1    0.0000
     22 C8        -1.1195    2.9993    2.9931 C.2       1 RES1    0.0000
     23 C9        -0.7873    1.7131    2.8519 C.2       1 RES1    0.0000
     24 H3         0.0136    1.3677    2.5289 H         1 RES1    0.0000
     25 C10       -1.9296    0.9835    3.3063 C.2       1 RES1    0.0000
     26 H4        -2.0104    0.0566    3.3395 H         1 RES1    0.0000
     27 C11       -2.8400    1.8519    3.6649 C.2       1 RES1    0.0000
     28 H5        -3.6815    1.6294    3.9916 H         1 RES1    0.0000
     29 C12       -0.0633    7.4975    3.6870 C.2       1 RES1    0.0000
     30 C13       -1.2483    7.5923    4.5357 C.2       1 RES1    0.0000
     31 C14       -2.5035    7.0935    4.6057 C.2       1 RES1    0.0000
     32 H6        -2.8617    6.4256    4.0665 H         1 RES1    0.0000
     33 C15       -3.1645    7.7713    5.6423 C.2       1 RES1    0.0000
     34 H7        -4.0422    7.6423    5.9199 H         1 RES1    0.0000
     35 C16       -2.2863    8.6349    6.1483 C.2       1 RES1    0.0000
     36 H8        -2.4628    9.2184    6.8521 H         1 RES1    0.0000
@<TRIPOS>BOND
     1    1    2 1
     2    2   14 1
     3    3    9 2
     4    4   11 2
     5    5   13 1
     6    6   22 1
     7    7   29 2
     8    8   30 1
     9   10    3 2
    10   12    4 2
    11   13    1 2
    12   14   15 ar
    13   15    3 1
    14   16   15 ar
    15   17   16 1
    16   18    4 1
    17   19   18 ar
    18   20   19 1
    19   21    5 1
    20   22   13 1
    21   23   22 2
    22   24   23 1
    23   25   23 1
    24   26   25 1
    25   27    6 1
    26   28   27 1
    27   29    2 1
    28   30   29 1
    29   31   30 2
    30   32   31 1
    31   33   31 1
    32   34   33 1
    33   35    8 1
    34   36   35 1
    35   14   21 ar
    36   16   18 ar
    37   19   21 ar
    38   25   27 2
    39   33   35 2
@<TRIPOS>SUBSTRUCTURE
     1 RES1 1

@<TRIPOS>CRYSIN
   6.4680   19.5140   12.3652  90.0000  96.6530  90.0000 231 1

