# MOL2 file generated by ConQuest
# Please check atom types

@<TRIPOS>MOLECULE
LEDBII
    38    39     1
SMALL
NO_CHARGES
****
Generated from CSD

@<TRIPOS>ATOM
      1 O1         2.1752    8.4212    6.3679 O.3       1 RES1    0.0000
      2 O2         0.1444    8.8651    5.5828 O.2       1 RES1    0.0000
      3 O3         0.2984   12.0851    5.6818 O.2       1 RES1    0.0000
      4 O4         3.0948   11.2214    6.6088 O.3       1 RES1    0.0000
      5 O5         2.8263   10.8204    8.7699 O.2       1 RES1    0.0000
      6 C1        -2.5754   12.0223    9.1387 C.ar      1 RES1    0.0000
      7 H1        -2.2418   11.4767    9.8143 H         1 RES1    0.0000
      8 C2        -4.2081   13.5902    8.3636 C.ar      1 RES1    0.0000
      9 H2        -4.9628   14.1098    8.5228 H         1 RES1    0.0000
     10 C3        -3.7120   12.7656    9.3553 C.ar      1 RES1    0.0000
     11 H3        -4.1487   12.7136   10.1749 H         1 RES1    0.0000
     12 C4        -1.9226   12.0833    7.9093 C.ar      1 RES1    0.0000
     13 C5        -0.7189   11.3141    7.7126 C.2       1 RES1    0.0000
     14 C6         0.0157   10.2116    8.4514 C.3       1 RES1    0.0000
     15 H4         0.4121   10.5572    9.2781 H         1 RES1    0.0000
     16 C7         1.0481   10.2884    7.2712 C.3       1 RES1    0.0000
     17 C8         1.0582    9.1193    6.2947 C.2       1 RES1    0.0000
     18 C9         2.2888    7.2735    5.4680 C.3       1 RES1    0.0000
     19 H5         1.7401    6.5562    5.7935 H         1 RES1    0.0000
     20 H6         3.2048    6.9854    5.4317 H         1 RES1    0.0000
     21 H7         1.9977    7.5265    4.5887 H         1 RES1    0.0000
     22 N1         0.1591   11.3793    6.7326 N.pl3     1 RES1    0.0000
     23 C10       -3.5821   13.6388    7.1435 C.ar      1 RES1    0.0000
     24 H8        -3.9337   14.1720    6.4679 H         1 RES1    0.0000
     25 C11       -2.4388   12.9057    6.9059 C.ar      1 RES1    0.0000
     26 H9        -2.0133   12.9588    6.0804 H         1 RES1    0.0000
     27 C12       -0.7066    8.8990    8.7149 C.3       1 RES1    0.0000
     28 H10       -1.4691    9.0639    9.2921 H         1 RES1    0.0000
     29 H11       -1.0380    8.5420    7.8765 H         1 RES1    0.0000
     30 C13        0.2004    7.8790    9.3682 C.3       1 RES1    0.0000
     31 H12        0.9003    7.6361    8.7570 H         1 RES1    0.0000
     32 H13       -0.3091    7.0984    9.5977 H         1 RES1    0.0000
     33 H14        0.5856    8.2551   10.1621 H         1 RES1    0.0000
     34 C14        2.4254   10.8012    7.6529 C.2       1 RES1    0.0000
     35 C15        4.4141   11.7637    6.8567 C.3       1 RES1    0.0000
     36 H15        4.3503   12.4877    7.4831 H         1 RES1    0.0000
     37 H16        4.7881   12.0856    6.0324 H         1 RES1    0.0000
     38 H17        4.9796   11.0769    7.2173 H         1 RES1    0.0000
@<TRIPOS>BOND
     1    1   17 1
     2    2   17 2
     3    3   22 1
     4    4   34 1
     5    5   34 2
     6    6    7 1
     7    8    9 1
     8   10    6 ar
     9   11   10 1
    10   12    6 ar
    11   13   12 1
    12   14   13 1
    13   15   14 1
    14   16   14 1
    15   17   16 1
    16   18    1 1
    17   19   18 1
    18   20   18 1
    19   21   18 1
    20   22   13 2
    21   23    8 ar
    22   24   23 1
    23   25   12 ar
    24   26   25 1
    25   27   14 1
    26   28   27 1
    27   29   27 1
    28   30   27 1
    29   31   30 1
    30   32   30 1
    31   33   30 1
    32   34   16 1
    33   35    4 1
    34   36   35 1
    35   37   35 1
    36   38   35 1
    37    8   10 ar
    38   16   22 1
    39   23   25 ar
@<TRIPOS>SUBSTRUCTURE
     1 RES1 1

@<TRIPOS>CRYSIN
  11.1976   11.2960   11.7088  90.0000  90.0000  90.0000  33 1

