# MOL2 file generated by ConQuest
# Please check atom types

@<TRIPOS>MOLECULE
LEDBEE
    67    63     2
SMALL
NO_CHARGES
****
Generated from CSD

@<TRIPOS>ATOM
      1 N1        -0.3196    4.0910    0.4744 N.3       1 RES1    0.0000
      2 O1        -1.1212    2.9879    0.0159 O.3       1 RES1    0.0000
      3 C1         1.1144    3.7333    0.6014 C.3       1 RES1    0.0000
      4 C2         1.1072    4.2373    2.0839 C.3       1 RES1    0.0000
      5 H1         1.2964    3.4798    2.6759 H         1 RES1    0.0000
      6 C3        -0.4647    4.4021    1.9523 C.3       1 RES1    0.0000
      7 C4        -1.2197    3.3356    2.7615 C.3       1 RES1    0.0000
      8 H2        -0.8622    2.4652    2.5297 H         1 RES1    0.0000
      9 H3        -1.0430    3.4831    3.7044 H         1 RES1    0.0000
     10 C5        -2.7202    3.3072    2.5552 C.2       1 RES1    0.0000
     11 O2        -3.2764    4.0555    1.7606 O.2       1 RES1    0.0000
     12 C6        -1.8968    3.4295   -1.1101 C.3       1 RES1    0.0000
     13 H4        -1.3201    3.6156   -1.8676 H         1 RES1    0.0000
     14 H5        -2.3864    4.2378   -0.8884 H         1 RES1    0.0000
     15 C7        -2.8538    2.3092   -1.4380 C.3       1 RES1    0.0000
     16 H6        -2.3633    1.4892   -1.5412 H         1 RES1    0.0000
     17 H7        -3.3152    2.5105   -2.2556 H         1 RES1    0.0000
     18 H8        -3.4910    2.2136   -0.7267 H         1 RES1    0.0000
     19 C8         1.3920    2.2192    0.4588 C.2       1 RES1    0.0000
     20 O3         1.2954    1.4199    1.3447 O.2       1 RES1    0.0000
     21 C9         2.0279    0.5115   -1.0747 C.3       1 RES1    0.0000
     22 H9         2.8401    0.2633   -0.6266 H         1 RES1    0.0000
     23 H10        2.1312    0.3857   -2.0200 H         1 RES1    0.0000
     24 H11        1.3063   -0.0352   -0.7544 H         1 RES1    0.0000
     25 O4         1.7304    1.9242   -0.7988 O.3       1 RES1    0.0000
     26 C10        1.9616    4.5349   -0.3998 C.2       1 RES1    0.0000
     27 O5         1.5374    5.1930   -1.3072 O.2       1 RES1    0.0000
     28 C11        4.1836    5.3295   -0.7652 C.3       1 RES1    0.0000
     29 H12        4.2387    5.0847   -1.6921 H         1 RES1    0.0000
     30 H13        5.0519    5.2574   -0.3618 H         1 RES1    0.0000
     31 H14        3.8721    6.2351   -0.6928 H         1 RES1    0.0000
     32 O6         3.2547    4.4390   -0.0796 O.3       1 RES1    0.0000
     33 C12       -1.0005    5.8217    2.1720 C.ar      1 RES1    0.0000
     34 C13       -1.0406    6.7508    1.1517 C.ar      1 RES1    0.0000
     35 H15       -0.7904    6.4967    0.2925 H         1 RES1    0.0000
     36 C14       -1.4511    8.0647    1.3872 C.ar      1 RES1    0.0000
     37 H16       -1.4565    8.6751    0.6851 H         1 RES1    0.0000
     38 C15       -1.8449    8.4722    2.6359 C.ar      1 RES1    0.0000
     39 H17       -2.1483    9.3409    2.7745 H         1 RES1    0.0000
     40 C16       -1.7863    7.5817    3.6736 C.ar      1 RES1    0.0000
     41 H18       -2.0258    7.8500    4.5312 H         1 RES1    0.0000
     42 C17       -1.3650    6.2703    3.4411 C.ar      1 RES1    0.0000
     43 H19       -1.3268    5.6766    4.1555 H         1 RES1    0.0000
     44 C18       -3.5320    2.3102    3.3383 C.ar      1 RES1    0.0000
     45 C19       -3.0593    1.6946    4.4918 C.ar      1 RES1    0.0000
     46 H20       -2.1976    1.8732    4.7914 H         1 RES1    0.0000
     47 C20       -3.8730    0.8117    5.2010 C.ar      1 RES1    0.0000
     48 H21       -3.5547    0.4075    5.9770 H         1 RES1    0.0000
     49 C21       -5.1500    0.5333    4.7529 C.ar      1 RES1    0.0000
     50 H22       -5.6955   -0.0453    5.2348 H         1 RES1    0.0000
     51 C22       -5.6100    1.1068    3.6074 C.ar      1 RES1    0.0000
     52 H23       -6.4578    0.8905    3.2903 H         1 RES1    0.0000
     53 C23       -4.8233    2.0057    2.9146 C.ar      1 RES1    0.0000
     54 H24       -5.1622    2.4166    2.1524 H         1 RES1    0.0000
     55 C24        1.9720    5.4050    2.4958 C.3       1 RES1    0.0000
     56 H25        2.8808    5.2490    2.1956 H         1 RES1    0.0000
     57 H26        1.6484    6.2099    2.0585 H         1 RES1    0.0000
     58 C25        1.9734    5.6180    3.9785 C.3       1 RES1    0.0000
     59 H27        2.1886    4.7945    4.4204 H         1 RES1    0.0000
     60 H28        1.1042    5.9148    4.2602 H         1 RES1    0.0000
     61 H29        2.6273    6.2837    4.2063 H         1 RES1    0.0000
     62 H30        2.1357    5.9450    1.7059 Du        2 SUP2    0.0000
     63 H31        1.4578    5.9517    3.1117 Du        2 SUP2    0.0000
     64 C26        3.2618    5.1266    3.1194 Du        2 SUP2    0.0000
     65 H32        3.1244    4.6235    3.9261 Du        2 SUP2    0.0000
     66 H33        3.7026    5.9534    3.3287 Du        2 SUP2    0.0000
     67 H34        3.8063    4.6168    2.5143 Du        2 SUP2    0.0000
@<TRIPOS>BOND
     1    1    2 1
     2    2   12 1
     3    3    1 1
     4    4    3 1
     5    5    4 1
     6    6    1 1
     7    7    6 1
     8    8    7 1
     9    9    7 1
    10   10    7 1
    11   11   10 2
    12   12   13 1
    13   14   12 1
    14   15   12 1
    15   16   15 1
    16   17   15 1
    17   18   15 1
    18   19    3 1
    19   20   19 2
    20   21   22 1
    21   23   21 1
    22   24   21 1
    23   25   19 1
    24   26    3 1
    25   27   26 2
    26   28   29 1
    27   30   28 1
    28   31   28 1
    29   32   26 1
    30   33    6 1
    31   34   33 ar
    32   35   34 1
    33   36   34 ar
    34   37   36 1
    35   38   36 ar
    36   39   38 1
    37   40   38 ar
    38   41   40 1
    39   42   33 ar
    40   43   42 1
    41   44   10 1
    42   45   44 ar
    43   46   45 1
    44   47   45 ar
    45   48   47 1
    46   49   47 ar
    47   50   49 1
    48   51   49 ar
    49   52   51 1
    50   53   44 ar
    51   54   53 1
    52   55    4 1
    53   56   55 1
    54   57   55 1
    55   58   55 1
    56   59   58 1
    57   60   58 1
    58   61   58 1
    59    4    6 1
    60   21   25 1
    61   28   32 1
    62   40   42 ar
    63   51   53 ar
@<TRIPOS>SUBSTRUCTURE
     1 RES1 1
     2 SUP2 62

@<TRIPOS>CRYSIN
   9.5080   16.7700   15.6800  90.0000 100.9100  90.0000  14 1

