# MOL2 file generated by ConQuest
# Please check atom types

@<TRIPOS>MOLECULE
LEDSAO
    59    61     1
SMALL
NO_CHARGES
****
Generated from CSD

@<TRIPOS>ATOM
      1 O1         5.8804   -3.0342    7.0861 O.3       1 RES1    0.0000
      2 O2         4.5895   -3.7979    8.8400 O.3       1 RES1    0.0000
      3 O3         6.4961   -4.4183    9.8849 O.3       1 RES1    0.0000
      4 O4         8.1784   -5.2058    6.7944 O.3       1 RES1    0.0000
      5 O5         8.7391   -3.0664    6.3821 O.3       1 RES1    0.0000
      6 O6         8.0525   -0.1579    7.4431 O.3       1 RES1    0.0000
      7 O7         4.0954   -0.4038    8.8671 O.2       1 RES1    0.0000
      8 O8         5.9885    0.5727    9.2413 O.2       1 RES1    0.0000
      9 O9         5.6667    0.9371    5.0636 O.3       1 RES1    0.0000
     10 O10        4.5052    1.9567    6.8206 O.3       1 RES1    0.0000
     11 N1         5.1890    0.0000    8.5131 N.pl3     1 RES1    0.0000
     12 C1         5.4756   -4.1806    7.8092 C.3       1 RES1    0.0000
     13 C2         6.6137   -4.8919    8.5413 C.3       1 RES1    0.0000
     14 C3         7.9947   -4.5459    8.0405 C.3       1 RES1    0.0000
     15 C4         8.2066   -3.0517    7.7036 C.3       1 RES1    0.0000
     16 C5         6.9047   -2.2853    7.7317 C.3       1 RES1    0.0000
     17 C6         6.9524   -0.9362    7.0086 C.3       1 RES1    0.0000
     18 C7         5.6032   -0.2148    7.0871 C.3       1 RES1    0.0000
     19 C8         5.6113    1.1794    6.4364 C.3       1 RES1    0.0000
     20 C9         5.1036   -4.1870   10.1222 C.3       1 RES1    0.0000
     21 C10        4.9725   -3.0168   11.0716 C.3       1 RES1    0.0000
     22 C11        4.4170   -5.4453   10.6009 C.3       1 RES1    0.0000
     23 C12        9.0824   -4.4100    6.0462 C.3       1 RES1    0.0000
     24 C13       10.5151   -4.7248    6.4183 C.3       1 RES1    0.0000
     25 C14        8.8190   -4.6303    4.5729 C.3       1 RES1    0.0000
     26 C15        5.9708    2.1477    4.3436 C.3       1 RES1    0.0000
     27 C16        6.0146    1.8393    2.8893 C.3       1 RES1    0.0000
     28 C17        3.2183    1.5465    6.3167 C.3       1 RES1    0.0000
     29 C18        2.1861    2.4000    6.9151 C.3       1 RES1    0.0000
     30 H1         7.8179    0.1010    8.2265 H         1 RES1    0.0000
     31 H2         5.0186   -4.7450    7.1504 H         1 RES1    0.0000
     32 H3         6.5190   -5.9382    8.4981 H         1 RES1    0.0000
     33 H4         8.6314   -4.8276    8.7193 H         1 RES1    0.0000
     34 H5         6.6438   -2.1385    8.6590 H         1 RES1    0.0000
     35 H6         7.1197   -1.1197    6.0442 H         1 RES1    0.0000
     36 H7         4.9462   -0.8260    6.7482 H         1 RES1    0.0000
     37 H8         6.5510    1.7530    6.7783 H         1 RES1    0.0000
     38 H9         3.9581   -2.8544   11.1430 H         1 RES1    0.0000
     39 H10        5.4512   -2.1385   10.5195 H         1 RES1    0.0000
     40 H11        5.3962   -3.1572   11.9777 H         1 RES1    0.0000
     41 H12        4.5135   -6.2778    9.8356 H         1 RES1    0.0000
     42 H13        3.3734   -5.1397   10.5899 H         1 RES1    0.0000
     43 H14        4.5738   -5.7087   11.5352 H         1 RES1    0.0000
     44 H15       10.7167   -5.7821    6.0945 H         1 RES1    0.0000
     45 H16       10.6333   -4.5431    7.3616 H         1 RES1    0.0000
     46 H17       11.1135   -4.1576    5.8028 H         1 RES1    0.0000
     47 H18        7.8765   -4.3137    4.4250 H         1 RES1    0.0000
     48 H19        9.1857   -5.6353    4.2440 H         1 RES1    0.0000
     49 H20        9.5412   -3.9649    4.0227 H         1 RES1    0.0000
     50 H21        7.1262    2.2486    4.6161 H         1 RES1    0.0000
     51 H22        5.0531    2.9278    4.6463 H         1 RES1    0.0000
     52 H23        4.9333    1.6245    2.7154 H         1 RES1    0.0000
     53 H24        6.5676    1.1289    2.4438 H         1 RES1    0.0000
     54 H25        6.2932    2.7350    2.3835 H         1 RES1    0.0000
     55 H26        3.0476    0.7893    6.4163 H         1 RES1    0.0000
     56 H27        3.3107    1.7346    5.1491 H         1 RES1    0.0000
     57 H28        2.2867    3.2949    6.7482 H         1 RES1    0.0000
     58 H29        2.3450    2.1293    7.9047 H         1 RES1    0.0000
     59 H30        1.2166    2.0834    6.5269 H         1 RES1    0.0000
@<TRIPOS>BOND
     1    1   12 1
     2    2   12 1
     3    3   13 1
     4    4   14 1
     5    5   15 1
     6    6   17 1
     7    7   11 2
     8    8   11 2
     9    9   19 1
    10   10   19 1
    11   11   18 1
    12   12   13 1
    13   13   14 1
    14   14   15 1
    15   15   16 1
    16   16    1 1
    17   17   16 1
    18   18   17 1
    19   19   18 1
    20   20    2 1
    21   21   20 1
    22   22   20 1
    23   23    4 1
    24   24   23 1
    25   25   23 1
    26   26    9 1
    27   27   26 1
    28   28   10 1
    29   29   28 1
    30   30    6 1
    31   31   12 1
    32   32   13 1
    33   33   14 1
    34   34   16 1
    35   35   17 1
    36   36   18 1
    37   37   19 1
    38   38   21 1
    39   39   21 1
    40   40   21 1
    41   41   22 1
    42   42   22 1
    43   43   22 1
    44   44   24 1
    45   45   24 1
    46   46   24 1
    47   47   25 1
    48   48   25 1
    49   49   25 1
    50   50   26 1
    51   51   26 1
    52   52   27 1
    53   53   27 1
    54   54   27 1
    55   55   28 1
    56   56   28 1
    57   57   29 1
    58   58   29 1
    59   59   29 1
    60    3   20 1
    61    5   23 1
@<TRIPOS>SUBSTRUCTURE
     1 RES1 1

@<TRIPOS>CRYSIN
  11.9800    9.1780   10.8910  90.0000 112.5700  90.0000   4 1

