# MOL2 file generated by ConQuest
# Please check atom types

@<TRIPOS>MOLECULE
LEDVAR
    23    26     1
SMALL
NO_CHARGES
****
Generated from CSD

@<TRIPOS>ATOM
      1 N1         6.4431    4.6264    0.8063 N.2       1 RES1    0.0000
      2 N2         5.6165    4.0536    1.7140 N.3       1 RES1    0.0000
      3 N3         5.7660    6.1231    2.3784 N.2       1 RES1    0.0000
      4 N4         4.3524    4.6770    3.6669 N.2       1 RES1    0.0000
      5 N5         3.5414    1.3227    2.8445 N.2       1 RES1    0.0000
      6 O1         3.9099    0.4193    1.8868 O.2       1 RES1    0.0000
      7 C1         6.4898    5.8478    1.2671 C.2       1 RES1    0.0000
      8 C2         5.2170    4.9286    2.6184 C.2       1 RES1    0.0000
      9 C3         3.8594    3.4856    3.7479 C.2       1 RES1    0.0000
     10 C4         4.2221    2.4239    2.7837 C.2       1 RES1    0.0000
     11 C5         5.3089    2.6296    1.7332 C.3       1 RES1    0.0000
     12 C6         2.8903    3.2293    4.8145 C.ar      1 RES1    0.0000
     13 C7         2.0126    4.2609    5.1654 C.ar      1 RES1    0.0000
     14 C8         1.0846    4.0710    6.1658 C.ar      1 RES1    0.0000
     15 C9         1.0184    2.9002    6.8623 C.ar      1 RES1    0.0000
     16 C10        1.8891    1.8955    6.5743 C.ar      1 RES1    0.0000
     17 C11        2.8167    2.0521    5.5483 C.ar      1 RES1    0.0000
     18 C12        6.5656    1.8369    2.0393 C.ar      1 RES1    0.0000
     19 C13        6.9394    0.7610    1.2276 C.ar      1 RES1    0.0000
     20 C14        8.1078    0.0933    1.4868 C.ar      1 RES1    0.0000
     21 C15        8.5731    1.5189    3.3202 C.ar      1 RES1    0.0000
     22 C16        7.4001    2.2040    3.0802 C.ar      1 RES1    0.0000
     23 C17        8.9223    0.4604    2.5032 C.ar      1 RES1    0.0000
@<TRIPOS>BOND
     1    1    2 1
     2    2    8 1
     3    3    7 1
     4    4    8 1
     5    5    6 1
     6    7    1 2
     7    8    3 2
     8    9    4 2
     9   10    5 2
    10   11    2 1
    11   12    9 1
    12   13   12 ar
    13   14   13 ar
    14   15   14 ar
    15   16   15 ar
    16   17   12 ar
    17   18   11 1
    18   19   18 ar
    19   20   19 ar
    20   21   22 ar
    21   22   18 ar
    22   23   20 ar
    23    9   10 1
    24   10   11 1
    25   16   17 ar
    26   21   23 ar
@<TRIPOS>SUBSTRUCTURE
     1 RES1 1

@<TRIPOS>CRYSIN
   8.9130   15.8220   10.6820  90.0000  93.1700  90.0000  14 1

