# MOL2 file generated by ConQuest
# Please check atom types

@<TRIPOS>MOLECULE
LEFFEI
    20    20     1
SMALL
NO_CHARGES
****
Generated from CSD

@<TRIPOS>ATOM
      1 O1         1.3364    1.0870    0.9108 O.2       1 RES1    0.0000
      2 O2         5.3929    0.0000    1.0633 O.3       1 RES1    0.0000
      3 O3         5.7843    0.0000    3.2975 O.2       1 RES1    0.0000
      4 N1         2.4900   -0.0000   -1.9133 N.2       1 RES1    0.0000
      5 N2         4.4099   -0.0000   -3.0292 N.3       1 RES1    0.0000
      6 N3         1.8671    0.0000    0.7529 N.pl3     1 RES1    0.0000
      7 N4         4.0271    0.0000    1.4338 N.2       1 RES1    0.0000
      8 C1         3.0479   -0.0000   -3.1033 C.2       1 RES1    0.0000
      9 H1         2.5609   -0.0000   -3.9192 H         1 RES1    0.0000
     10 C2         4.7585   -0.0000   -1.7236 C.2       1 RES1    0.0000
     11 H2         5.6367   -0.0000   -1.3597 H         1 RES1    0.0000
     12 C3         3.5632   -0.0000   -1.0322 C.2       1 RES1    0.0000
     13 C4         3.3070    0.0000    0.3757 C.2       1 RES1    0.0000
     14 C5         6.2159    0.0000    2.1800 C.2       1 RES1    0.0000
     15 C6         7.6408    0.0000    1.7421 C.3       1 RES1    0.0000
     16 H3         7.6818    0.0000    0.7625 H         1 RES1    0.0000
     17 H4         8.0883   -0.8002    2.0874 H         1 RES1    0.0000
     18 H5         8.0883    0.8002    2.0874 H         1 RES1    0.0000
     19 H6         4.9925   -0.0000   -3.7124 H         1 RES1    0.0000
     20 O1F        1.3364   -1.0870    0.9108 O.2       1 RES1    0.0000
@<TRIPOS>BOND
     1    1    6 2
     2    2    7 1
     3    3   14 2
     4    4    8 2
     5    5    8 1
     6    6   13 1
     7    7   13 2
     8    8    9 1
     9   10    5 1
    10   11   10 1
    11   12    4 1
    12   13   12 1
    13   14    2 1
    14   15   14 1
    15   16   15 1
    16   17   15 1
    17   18   15 1
    18   19    5 1
    19   20    6 2
    20   10   12 2
@<TRIPOS>SUBSTRUCTURE
     1 RES1 1

@<TRIPOS>CRYSIN
  17.3228    6.6075    7.5269  90.0000 100.1080  90.0000  12 1

