# MOL2 file generated by ConQuest
# Please check atom types

@<TRIPOS>MOLECULE
LEFHAI
    54    57     1
SMALL
NO_CHARGES
****
Generated from CSD

@<TRIPOS>ATOM
      1 O1        -0.0323    3.3900    9.0054 O.3       1 RES1    0.0000
      2 O2         2.1293    3.8104    8.2046 O.3       1 RES1    0.0000
      3 O3         3.5824    1.4722    4.2363 O.3       1 RES1    0.0000
      4 O4         5.2511   -0.0349    4.3386 O.2       1 RES1    0.0000
      5 O5         0.5979   -1.8952   -0.8998 O.2       1 RES1    0.0000
      6 O6         2.3090   -3.2044   -1.0511 O.2       1 RES1    0.0000
      7 N1         1.6864   -2.2939   -0.5104 N.pl3     1 RES1    0.0000
      8 C1         1.8157    3.3387    6.8740 C.3       1 RES1    0.0000
      9 H1         0.8587    3.5476    6.6753 H         1 RES1    0.0000
     10 C2         2.6869    4.1236    5.9414 C.2       1 RES1    0.0000
     11 H2         2.4937    5.0472    5.8301 H         1 RES1    0.0000
     12 C3         3.7115    3.6199    5.2580 C.2       1 RES1    0.0000
     13 C4         4.1069    2.1731    5.4261 C.3       1 RES1    0.0000
     14 H3         5.1041    2.0990    5.4448 H         1 RES1    0.0000
     15 C5         3.5296    1.5356    6.6687 C.3       1 RES1    0.0000
     16 H4         3.9841    1.8968    7.4714 H         1 RES1    0.0000
     17 H5         3.6801    0.5575    6.6426 H         1 RES1    0.0000
     18 C6         2.0281    1.8242    6.7528 C.3       1 RES1    0.0000
     19 H6         1.6054    1.5192    5.9001 H         1 RES1    0.0000
     20 C7         1.3614    1.0962    7.8894 C.2       1 RES1    0.0000
     21 C8         1.5875    1.6975    9.2480 C.3       1 RES1    0.0000
     22 H7         2.5149    1.5103    9.5378 H         1 RES1    0.0000
     23 H8         0.9718    1.2763    9.8997 H         1 RES1    0.0000
     24 C9         1.3562    3.2053    9.2380 C.3       1 RES1    0.0000
     25 C10        1.7942    3.8658   10.5345 C.3       1 RES1    0.0000
     26 H9         2.7803    3.8176   10.6071 H         1 RES1    0.0000
     27 H10        1.4088    3.3686   11.2982 H         1 RES1    0.0000
     28 C11        1.3565    5.3247   10.6137 C.3       1 RES1    0.0000
     29 H11        1.5216    5.6708   11.5270 H         1 RES1    0.0000
     30 H12        1.8901    5.8654    9.9790 H         1 RES1    0.0000
     31 C12       -0.1236    5.4598   10.2784 C.3       1 RES1    0.0000
     32 H13       -0.6666    5.0513   10.9994 H         1 RES1    0.0000
     33 H14       -0.3647    6.4182   10.2172 H         1 RES1    0.0000
     34 C13       -0.4273    4.7743    8.9627 C.3       1 RES1    0.0000
     35 H15       -1.3967    4.8352    8.7743 H         1 RES1    0.0000
     36 H16        0.0572    5.2337    8.2326 H         1 RES1    0.0000
     37 C14        0.6354    0.0057    7.6902 C.2       1 RES1    0.0000
     38 H17        0.2283   -0.4349    8.4264 H         1 RES1    0.0000
     39 H18        0.5224   -0.3358    6.8107 H         1 RES1    0.0000
     40 C15        4.5398    4.4267    4.3031 C.3       1 RES1    0.0000
     41 H19        5.4751    4.4201    4.5949 H         1 RES1    0.0000
     42 H20        4.2106    5.3491    4.2844 H         1 RES1    0.0000
     43 H21        4.4759    4.0381    3.4065 H         1 RES1    0.0000
     44 C16        4.2195    0.3632    3.8569 C.2       1 RES1    0.0000
     45 C17        3.4999   -0.3374    2.7488 C.ar      1 RES1    0.0000
     46 C18        2.2796    0.1179    2.2622 C.ar      1 RES1    0.0000
     47 H22        1.8660    0.8793    2.6524 H         1 RES1    0.0000
     48 C19        1.6672   -0.5403    1.2071 C.ar      1 RES1    0.0000
     49 H23        0.8328   -0.2395    0.8662 H         1 RES1    0.0000
     50 C20        2.2957   -1.6415    0.6633 C.ar      1 RES1    0.0000
     51 C21        3.4875   -2.1388    1.1504 C.ar      1 RES1    0.0000
     52 H24        3.8843   -2.9137    0.7705 H         1 RES1    0.0000
     53 C22        4.0887   -1.4773    2.2069 C.ar      1 RES1    0.0000
     54 H25        4.9070   -1.8022    2.5636 H         1 RES1    0.0000
@<TRIPOS>BOND
     1    1   24 1
     2    2    8 1
     3    3   13 1
     4    4   44 2
     5    5    7 2
     6    6    7 2
     7    7   50 1
     8    8    9 1
     9   10    8 1
    10   11   10 1
    11   12   10 2
    12   13   12 1
    13   14   13 1
    14   15   13 1
    15   16   15 1
    16   17   15 1
    17   18    8 1
    18   19   18 1
    19   20   18 1
    20   21   20 1
    21   22   21 1
    22   23   21 1
    23   24    2 1
    24   25   24 1
    25   26   25 1
    26   27   25 1
    27   28   25 1
    28   29   28 1
    29   30   28 1
    30   31   28 1
    31   32   31 1
    32   33   31 1
    33   34    1 1
    34   35   34 1
    35   36   34 1
    36   37   20 2
    37   38   37 1
    38   39   37 1
    39   40   12 1
    40   41   40 1
    41   42   40 1
    42   43   40 1
    43   44    3 1
    44   45   44 1
    45   46   45 ar
    46   47   46 1
    47   48   46 ar
    48   49   48 1
    49   50   48 ar
    50   51   50 ar
    51   52   51 1
    52   53   45 ar
    53   54   53 1
    54   15   18 1
    55   21   24 1
    56   31   34 1
    57   51   53 ar
@<TRIPOS>SUBSTRUCTURE
     1 RES1 1

@<TRIPOS>CRYSIN
   5.7736    8.0291   23.5381  91.3980  96.2620 109.5220   2 1

