# MOL2 file generated by ConQuest
# Please check atom types

@<TRIPOS>MOLECULE
LEFHAH
    40    40     1
SMALL
NO_CHARGES
****
Generated from CSD

@<TRIPOS>ATOM
      1 C1         3.5857   17.5301   11.7299 C.ar      1 RES1    0.0000
      2 H1         4.1165   17.5763   12.4919 H         1 RES1    0.0000
      3 C2         3.1117   18.6858   11.1643 C.ar      1 RES1    0.0000
      4 C3         2.3401   18.6501    9.9882 C.ar      1 RES1    0.0000
      5 C4         2.0594   17.4098    9.4297 C.ar      1 RES1    0.0000
      6 C5         2.5109   16.2136   10.0059 C.ar      1 RES1    0.0000
      7 C6         3.2844   16.3015   11.1828 C.ar      1 RES1    0.0000
      8 C7         2.9070   20.6046    8.7732 C.3       1 RES1    0.0000
      9 H2         2.4870   21.3372    8.3173 H         1 RES1    0.0000
     10 H3         3.4543   20.1139    8.1560 H         1 RES1    0.0000
     11 H4         3.4543   20.9434    9.4865 H         1 RES1    0.0000
     12 C8         0.4205   20.5829    5.3746 C.3       1 RES1    0.0000
     13 H5         0.8068   21.3600    5.7859 H         1 RES1    0.0000
     14 H6        -0.4951   20.4972    5.6485 H         1 RES1    0.0000
     15 H7         0.4618   20.6739    4.4196 H         1 RES1    0.0000
     16 C9         3.2830   14.2453    8.9011 C.3       1 RES1    0.0000
     17 H8         2.9319   13.4670    8.4607 H         1 RES1    0.0000
     18 H9         3.8147   13.9745    9.6538 H         1 RES1    0.0000
     19 H10        3.8269   14.7428    8.2855 H         1 RES1    0.0000
     20 C10        1.6187   17.0787    5.6815 C.3       1 RES1    0.0000
     21 H11        2.3959   17.1002    5.0848 H         1 RES1    0.0000
     22 C11        0.7387   18.2614    5.2822 C.2       1 RES1    0.0000
     23 C12        1.3418   17.3337    8.0983 C.2       1 RES1    0.0000
     24 C13        0.9495   15.7421    5.4612 C.3       1 RES1    0.0000
     25 H12        1.5464   15.0369    5.7261 H         1 RES1    0.0000
     26 H13        0.7303   15.6424    4.5311 H         1 RES1    0.0000
     27 H14        0.1474   15.6949    5.9871 H         1 RES1    0.0000
     28 N1         3.3646   19.9335   11.9088 N.pl3     1 RES1    0.0000
     29 N2         3.7359   15.1214   11.9155 N.pl3     1 RES1    0.0000
     30 N3         2.1401   17.2408    7.0438 N.am      1 RES1    0.0000
     31 H15        2.9910   17.2770    7.1622 H         1 RES1    0.0000
     32 O1        -0.2093   18.1571    4.5437 O.2       1 RES1    0.0000
     33 O2         0.1178   17.3766    8.0281 O.2       1 RES1    0.0000
     34 O3         1.1503   19.4168    5.7759 O.3       1 RES1    0.0000
     35 O4         1.8989   19.7359    9.3138 O.3       1 RES1    0.0000
     36 O5         2.1965   15.0701    9.3546 O.3       1 RES1    0.0000
     37 O6         4.2906   19.9420   12.6794 O.2       1 RES1    0.0000
     38 O7         2.6447   20.8736   11.7319 O.2       1 RES1    0.0000
     39 O8         4.7782   15.2294   12.5501 O.2       1 RES1    0.0000
     40 O9         3.0591   14.1049   11.8827 O.2       1 RES1    0.0000
@<TRIPOS>BOND
     1    1    2 1
     2    3    1 ar
     3    4    3 ar
     4    5    4 ar
     5    6    5 ar
     6    7    1 ar
     7    8    9 1
     8   10    8 1
     9   11    8 1
    10   12   13 1
    11   14   12 1
    12   15   12 1
    13   16   17 1
    14   18   16 1
    15   19   16 1
    16   20   21 1
    17   22   20 1
    18   23    5 1
    19   24   20 1
    20   25   24 1
    21   26   24 1
    22   27   24 1
    23   28    3 1
    24   29    7 1
    25   30   20 1
    26   31   30 1
    27   32   22 2
    28   33   23 2
    29   34   12 1
    30   35    4 1
    31   36    6 1
    32   37   28 2
    33   38   28 2
    34   39   29 2
    35   40   29 2
    36    6    7 ar
    37    8   35 1
    38   16   36 1
    39   22   34 1
    40   23   30 1
@<TRIPOS>SUBSTRUCTURE
     1 RES1 1

@<TRIPOS>CRYSIN
   4.6933   17.5010   19.9170  90.0000  90.0000  90.0000  19 1

