# MOL2 file generated by ConQuest
# Please check atom types

@<TRIPOS>MOLECULE
LEFHIQ
    55    56     2
SMALL
NO_CHARGES
****
Generated from CSD

@<TRIPOS>ATOM
      1 O1         2.5218    0.9928    1.0017 O.3       1 RES1    0.0000
      2 O2         4.4673    1.7788    2.0491 O.3       1 RES1    0.0000
      3 O3         2.3465   -1.4493    5.1881 O.3       1 RES1    0.0000
      4 O4         2.5328   -3.5918    5.8281 O.2       1 RES1    0.0000
      5 O5        -3.6128   -0.8847    8.5174 O.2       1 RES1    0.0000
      6 O6        -3.9837   -3.0162    8.1367 O.2       1 RES1    0.0000
      7 O7         8.5924    0.6429    4.3485 O.2       1 RES1    0.0000
      8 N1        -3.2619   -1.9692    8.1059 N.pl3     1 RES1    0.0000
      9 C1         5.2619    0.5928    1.8764 C.3       1 RES1    0.0000
     10 H1         4.8589    0.0356    1.1506 H         1 RES1    0.0000
     11 C2         5.2860   -0.2181    3.1673 C.3       1 RES1    0.0000
     12 H2         5.6493   -1.1258    2.9604 H         1 RES1    0.0000
     13 C3         6.2137    0.4498    4.2030 C.3       1 RES1    0.0000
     14 H3         5.8205    1.3138    4.4835 H         1 RES1    0.0000
     15 H4         6.2792   -0.1291    5.0036 H         1 RES1    0.0000
     16 C4         7.5991    0.6911    3.6500 C.2       1 RES1    0.0000
     17 C5         7.6936    1.0685    2.2146 C.2       1 RES1    0.0000
     18 C6         6.6142    1.0573    1.4373 C.2       1 RES1    0.0000
     19 H5         6.7081    1.3650    0.5439 H         1 RES1    0.0000
     20 C7         3.8697   -0.3784    3.6663 C.2       1 RES1    0.0000
     21 C8         2.8748    0.3797    3.2187 C.2       1 RES1    0.0000
     22 H6         1.9968    0.2204    3.5434 H         1 RES1    0.0000
     23 C9         3.0875    1.4854    2.2137 C.3       1 RES1    0.0000
     24 C10        2.4390    2.7885    2.6494 C.3       1 RES1    0.0000
     25 H7         2.9030    3.1336    3.4529 H         1 RES1    0.0000
     26 H8         1.4931    2.6207    2.8890 H         1 RES1    0.0000
     27 C11        2.5044    3.8369    1.5311 C.3       1 RES1    0.0000
     28 H9         1.9935    4.6421    1.7955 H         1 RES1    0.0000
     29 H10        3.4448    4.1041    1.3764 H         1 RES1    0.0000
     30 C12        1.9152    3.2469    0.2473 C.3       1 RES1    0.0000
     31 H11        0.9457    3.0873    0.3686 H         1 RES1    0.0000
     32 H12        2.0314    3.8892   -0.4982 H         1 RES1    0.0000
     33 C13        2.6077    1.9437   -0.0905 C.3       1 RES1    0.0000
     34 H13        2.1916    1.5515   -0.8982 H         1 RES1    0.0000
     35 H14        3.5600    2.1223   -0.2943 H         1 RES1    0.0000
     36 C14        9.0456    1.4822    1.7117 C.3       1 RES1    0.0000
     37 H15        9.3295    2.2982    2.1746 H         1 RES1    0.0000
     38 H16        8.9968    1.6539    0.7477 H         1 RES1    0.0000
     39 H17        9.6916    0.7668    1.8841 H         1 RES1    0.0000
     40 C15        3.6791   -1.5032    4.6431 C.3       1 RES1    0.0000
     41 H18        3.8186   -2.3698    4.1863 H         1 RES1    0.0000
     42 H19        4.3428   -1.4280    5.3741 H         1 RES1    0.0000
     43 C16        1.9007   -2.5678    5.7741 C.2       1 RES1    0.0000
     44 C17        0.5375   -2.3874    6.3575 C.ar      1 RES1    0.0000
     45 C18       -0.0289   -1.1260    6.5055 C.ar      1 RES1    0.0000
     46 H20        0.4436   -0.3552    6.2142 H         1 RES1    0.0000
     47 C19       -1.2836   -0.9957    7.0781 C.ar      1 RES1    0.0000
     48 H21       -1.6783   -0.1415    7.2001 H         1 RES1    0.0000
     49 C20       -1.9448   -2.1425    7.4683 C.ar      1 RES1    0.0000
     50 C21       -1.4060   -3.4147    7.3325 C.ar      1 RES1    0.0000
     51 H22       -1.8895   -4.1842    7.6106 H         1 RES1    0.0000
     52 C22       -0.1418   -3.5255    6.7787 C.ar      1 RES1    0.0000
     53 H23        0.2620   -4.3805    6.6866 H         1 RES1    0.0000
     54 O8        -3.8639   -0.9784    7.9240 Du        2 SUP2    0.0000
     55 N2        -3.3984   -2.0950    7.8868 Du        2 SUP2    0.0000
@<TRIPOS>BOND
     1    1   23 1
     2    2    9 1
     3    3   40 1
     4    4   43 2
     5    5    8 2
     6    6    8 2
     7    7   16 2
     8    8   49 1
     9    9   10 1
    10   11    9 1
    11   12   11 1
    12   13   11 1
    13   14   13 1
    14   15   13 1
    15   16   13 1
    16   17   16 1
    17   18    9 1
    18   19   18 1
    19   20   11 1
    20   21   20 2
    21   22   21 1
    22   23    2 1
    23   24   23 1
    24   25   24 1
    25   26   24 1
    26   27   24 1
    27   28   27 1
    28   29   27 1
    29   30   27 1
    30   31   30 1
    31   32   30 1
    32   33    1 1
    33   34   33 1
    34   35   33 1
    35   36   17 1
    36   37   36 1
    37   38   36 1
    38   39   36 1
    39   40   20 1
    40   41   40 1
    41   42   40 1
    42   43    3 1
    43   44   43 1
    44   45   44 ar
    45   46   45 1
    46   47   45 ar
    47   48   47 1
    48   49   47 ar
    49   50   49 ar
    50   51   50 1
    51   52   44 ar
    52   53   52 1
    53   17   18 2
    54   21   23 1
    55   30   33 1
    56   50   52 ar
@<TRIPOS>SUBSTRUCTURE
     1 RES1 1
     2 SUP2 54

@<TRIPOS>CRYSIN
  10.1269   11.0806   11.2922 119.3680  90.3080 113.4930   2 1

