# MOL2 file generated by ConQuest
# Please check atom types

@<TRIPOS>MOLECULE
LEFMAM
    32    33     1
SMALL
NO_CHARGES
****
Generated from CSD

@<TRIPOS>ATOM
      1 O1         2.5108    2.4001   -1.0599 O.2       1 RES1    0.0000
      2 O2        -1.1770    4.2395    3.3565 O.2       1 RES1    0.0000
      3 O3        -0.3410    4.9023    1.4806 O.2       1 RES1    0.0000
      4 O4         1.1176    1.4089    6.3416 O.2       1 RES1    0.0000
      5 O5         3.0716    0.6338    5.8343 O.2       1 RES1    0.0000
      6 N1         3.2208    4.2581    0.0049 N.am      1 RES1    0.0000
      7 H1         3.7968    4.9588    0.1486 H         1 RES1    0.0000
      8 N2         2.1037    4.2827    0.8252 N.pl3     1 RES1    0.0000
      9 H2         1.4151    4.5865    0.5326 H         1 RES1    0.0000
     10 N3        -0.2620    4.2658    2.5430 N.pl3     1 RES1    0.0000
     11 N4         2.0885    1.3336    5.5951 N.pl3     1 RES1    0.0000
     12 C1         3.3330    3.3045   -0.9483 C.2       1 RES1    0.0000
     13 C2         4.5427    3.4170   -1.8240 C.ar      1 RES1    0.0000
     14 C3         4.5467    2.6816   -3.0132 C.ar      1 RES1    0.0000
     15 H3         3.7984    2.1418   -3.2402 H         1 RES1    0.0000
     16 C4         5.6423    2.7409   -3.8618 C.ar      1 RES1    0.0000
     17 H4         5.6396    2.2458   -4.6722 H         1 RES1    0.0000
     18 C5         6.7440    3.5219   -3.5326 C.ar      1 RES1    0.0000
     19 H5         7.4942    3.5575   -4.1156 H         1 RES1    0.0000
     20 C6         6.7470    4.2522   -2.3487 C.ar      1 RES1    0.0000
     21 H6         7.5006    4.7853   -2.1235 H         1 RES1    0.0000
     22 C7         5.6548    4.2031   -1.4963 C.ar      1 RES1    0.0000
     23 H7         5.6606    4.7032   -0.6892 H         1 RES1    0.0000
     24 C8         2.0871    3.5752    1.9806 C.ar      1 RES1    0.0000
     25 C9         0.9563    3.5439    2.8385 C.ar      1 RES1    0.0000
     26 C10        0.9568    2.8111    4.0204 C.ar      1 RES1    0.0000
     27 H8         0.1900    2.7967    4.5808 H         1 RES1    0.0000
     28 C11        2.0848    2.1088    4.3633 C.ar      1 RES1    0.0000
     29 C12        3.2195    2.1164    3.5571 C.ar      1 RES1    0.0000
     30 H9         3.9900    1.6205    3.8105 H         1 RES1    0.0000
     31 C13        3.2175    2.8433    2.3960 C.ar      1 RES1    0.0000
     32 H10        3.9987    2.8543    1.8561 H         1 RES1    0.0000
@<TRIPOS>BOND
     1    1   12 2
     2    2   10 2
     3    3   10 2
     4    4   11 2
     5    5   11 2
     6    6    7 1
     7    8    6 1
     8    9    8 1
     9   10   25 1
    10   11   28 1
    11   12    6 1
    12   13   12 1
    13   14   13 ar
    14   15   14 1
    15   16   14 ar
    16   17   16 1
    17   18   16 ar
    18   19   18 1
    19   20   18 ar
    20   21   20 1
    21   22   13 ar
    22   23   22 1
    23   24    8 1
    24   25   24 ar
    25   26   25 ar
    26   27   26 1
    27   28   26 ar
    28   29   28 ar
    29   30   29 1
    30   31   24 ar
    31   32   31 1
    32   20   22 ar
    33   29   31 ar
@<TRIPOS>SUBSTRUCTURE
     1 RES1 1

@<TRIPOS>CRYSIN
  13.5714    8.4621   11.4547  90.0000  93.8300  90.0000   5 1

