# MOL2 file generated by ConQuest
# Please check atom types

@<TRIPOS>MOLECULE
LEGKUF
    50    54     1
SMALL
NO_CHARGES
****
Generated from CSD

@<TRIPOS>ATOM
      1 O1         8.7660   -0.6085   -3.3427 O.2       1 RES1    0.0000
      2 N1         1.5892    0.9844    4.3246 N.pl3     1 RES1    0.0000
      3 C1         1.6529    0.3855    6.6964 C.ar      1 RES1    0.0000
      4 H1         1.9273    1.2478    6.9080 H         1 RES1    0.0000
      5 N2         8.6301   -1.3333   -2.2737 N.pl3     1 RES1    0.0000
      6 C2         1.4882   -0.5556    7.6999 C.ar      1 RES1    0.0000
      7 H2         1.6548   -0.3201    8.5843 H         1 RES1    0.0000
      8 C3         1.0826   -1.8245    7.4034 C.ar      1 RES1    0.0000
      9 H3         0.9687   -2.4523    8.0813 H         1 RES1    0.0000
     10 C4         0.8474   -2.1610    6.1085 C.ar      1 RES1    0.0000
     11 H4         0.5723   -3.0242    5.9007 H         1 RES1    0.0000
     12 C5         1.0109   -1.2401    5.1050 C.ar      1 RES1    0.0000
     13 H5         0.8502   -1.4891    4.2231 H         1 RES1    0.0000
     14 C6         1.4092    0.0413    5.3861 C.ar      1 RES1    0.0000
     15 C7         0.7880    2.1475    4.2648 C.ar      1 RES1    0.0000
     16 C8         1.2156    3.2876    3.6098 C.ar      1 RES1    0.0000
     17 H6         2.0424    3.2896    3.1854 H         1 RES1    0.0000
     18 C9         0.4321    4.4229    3.5769 C.ar      1 RES1    0.0000
     19 H7         0.7252    5.1756    3.1157 H         1 RES1    0.0000
     20 C10       -0.7748    4.4431    4.2218 C.ar      1 RES1    0.0000
     21 H8        -1.2937    5.2160    4.2129 H         1 RES1    0.0000
     22 C11       -1.2184    3.3328    4.8782 C.ar      1 RES1    0.0000
     23 H9        -2.0412    3.3521    5.3102 H         1 RES1    0.0000
     24 C12       -0.4562    2.1783    4.9048 C.ar      1 RES1    0.0000
     25 H10       -0.7697    1.4237    5.3482 H         1 RES1    0.0000
     26 C13        2.6089    0.7142    3.3718 C.ar      1 RES1    0.0000
     27 C14        3.8022    0.1442    3.7875 C.ar      1 RES1    0.0000
     28 H11        3.9342   -0.0327    4.6906 H         1 RES1    0.0000
     29 C15        4.7961   -0.1625    2.8848 C.ar      1 RES1    0.0000
     30 H12        5.5915   -0.5326    3.1917 H         1 RES1    0.0000
     31 C16        4.6333    0.0711    1.5206 C.ar      1 RES1    0.0000
     32 C17        3.4397    0.6508    1.1129 C.ar      1 RES1    0.0000
     33 H13        3.3104    0.8354    0.2103 H         1 RES1    0.0000
     34 C18        2.4389    0.9594    2.0160 C.ar      1 RES1    0.0000
     35 H14        1.6439    1.3352    1.7118 H         1 RES1    0.0000
     36 C19        5.6816   -0.3086    0.5417 C.ar      1 RES1    0.0000
     37 C20        6.4564   -1.4333    0.7249 C.ar      1 RES1    0.0000
     38 H15        6.3101   -1.9668    1.4723 H         1 RES1    0.0000
     39 C21        7.4697   -1.8015   -0.1955 C.ar      1 RES1    0.0000
     40 C22        7.6424   -1.0007   -1.3303 C.ar      1 RES1    0.0000
     41 C23        6.8550    0.1413   -1.5345 C.ar      1 RES1    0.0000
     42 H16        6.9790    0.6691   -2.2896 H         1 RES1    0.0000
     43 C24        5.9077    0.4672   -0.6157 C.ar      1 RES1    0.0000
     44 H17        5.3909    1.2276   -0.7539 H         1 RES1    0.0000
     45 C25        8.3060   -2.9243    0.0025 C.ar      1 RES1    0.0000
     46 H18        8.2052   -3.4664    0.7514 H         1 RES1    0.0000
     47 C26        9.2579   -3.1925   -0.9237 C.ar      1 RES1    0.0000
     48 H19        9.8193   -3.9240   -0.8033 H         1 RES1    0.0000
     49 C27        9.4077   -2.3936   -2.0450 C.ar      1 RES1    0.0000
     50 H20       10.0736   -2.6032   -2.6608 H         1 RES1    0.0000
@<TRIPOS>BOND
     1    1    5 1
     2    2   14 1
     3    3    4 1
     4    5   40 ar
     5    6    3 ar
     6    7    6 1
     7    8    6 ar
     8    9    8 1
     9   10    8 ar
    10   11   10 1
    11   12   10 ar
    12   13   12 1
    13   14    3 ar
    14   15    2 1
    15   16   15 ar
    16   17   16 1
    17   18   16 ar
    18   19   18 1
    19   20   18 ar
    20   21   20 1
    21   22   20 ar
    22   23   22 1
    23   24   15 ar
    24   25   24 1
    25   26    2 1
    26   27   26 ar
    27   28   27 1
    28   29   27 ar
    29   30   29 1
    30   31   29 ar
    31   32   31 ar
    32   33   32 1
    33   34   26 ar
    34   35   34 1
    35   36   31 1
    36   37   36 ar
    37   38   37 1
    38   39   37 ar
    39   40   39 ar
    40   41   40 ar
    41   42   41 1
    42   43   36 ar
    43   44   43 1
    44   45   39 ar
    45   46   45 1
    46   47   45 ar
    47   48   47 1
    48   49    5 ar
    49   50   49 1
    50   12   14 ar
    51   22   24 ar
    52   32   34 ar
    53   41   43 ar
    54   47   49 ar
@<TRIPOS>SUBSTRUCTURE
     1 RES1 1

@<TRIPOS>CRYSIN
  16.7740    9.6130   13.2530  90.0000 107.0500  90.0000  14 1

