# MOL2 file generated by ConQuest
# Please check atom types

@<TRIPOS>MOLECULE
LEHGAH
    83    76     2
SMALL
NO_CHARGES
****
Generated from CSD

@<TRIPOS>ATOM
      1 N1         1.6476    2.6829    2.3236 N.am      1 RES1    0.0000
      2 C1         0.9983    1.6360    1.7216 C.2       1 RES1    0.0000
      3 C2         0.4058    0.7272    2.6744 C.2       1 RES1    0.0000
      4 C3         0.5819    0.9455    4.0630 C.2       1 RES1    0.0000
      5 C4         1.3556    2.0224    4.5748 C.2       1 RES1    0.0000
      6 C5         1.6286    2.2073    6.0327 C.ar      1 RES1    0.0000
      7 C6         2.5120    1.3576    6.6917 C.ar      1 RES1    0.0000
      8 C7         2.8514    1.5458    8.0248 C.ar      1 RES1    0.0000
      9 C8         2.2833    2.6316    8.7018 C.ar      1 RES1    0.0000
     10 C9         1.3577    3.4736    8.0892 C.ar      1 RES1    0.0000
     11 C10        1.0373    3.2519    6.7529 C.ar      1 RES1    0.0000
     12 C11        1.8679    2.8789    3.6434 C.2       1 RES1    0.0000
     13 C12        2.7355    4.0972    3.8207 C.3       1 RES1    0.0000
     14 C13        1.9459    5.2844    4.3598 C.2       1 RES1    0.0000
     15 O1         0.7421    5.3668    4.2467 O.2       1 RES1    0.0000
     16 C14        2.7481    6.2878    5.1322 C.3       1 RES1    0.0000
     17 C15        2.1220    7.6755    5.2290 C.3       1 RES1    0.0000
     18 C16        1.7140    8.3270    3.9657 C.3       1 RES1    0.0000
     19 C17        2.8567    8.5453    3.0514 C.3       1 RES1    0.0000
     20 C18        2.6722    8.0296    1.6462 C.3       1 RES1    0.0000
     21 C19        2.3718    6.5028    1.5133 C.3       1 RES1    0.0000
     22 C20        3.5904    5.6608    1.8511 C.3       1 RES1    0.0000
     23 C21        3.2678    4.2754    2.3688 C.3       1 RES1    0.0000
     24 O2         2.2337    3.6774    1.5311 O.3       1 RES1    0.0000
     25 O3         0.9477    1.5825    0.4887 O.2       1 RES1    0.0000
     26 C22       -0.4259   -0.3809    2.2261 C.2       1 RES1    0.0000
     27 C23       -0.6778   -0.6560    0.7776 C.3       1 RES1    0.0000
     28 O4        -0.9898   -1.1192    3.0683 O.2       1 RES1    0.0000
     29 O5         0.0190    0.1348    4.9487 O.3       1 RES1    0.0000
     30 C24        3.8603    0.6426    8.7076 C.3       1 RES1    0.0000
     31 C25        5.2465    1.2184    8.6250 C.3       1 RES1    0.0000
     32 C26        3.8413   -0.8063    8.1746 C.3       1 RES1    0.0000
     33 O6         2.5721    2.9234   10.0137 O.3       1 RES1    0.0000
     34 C27        0.7242    4.6062    8.8972 Du        2 SUP2    0.0000
     35 C28       -0.1897    4.2030    9.7960 C.3       1 RES1    0.0000
     36 C29        0.3879    5.8713    7.9899 C.3       1 RES1    0.0000
     37 C30        0.7242    4.6062    8.8972 C.3       1 RES1    0.0000
     38 C31       -0.7706    4.9046    8.4088 Du        2 SUP2    0.0000
     39 C32        1.5422    5.6330    9.2555 Du        2 SUP2    0.0000
     40 H1        -0.5271   -0.5012    4.4138 H         1 RES1    0.0000
     41 H2         3.2046    2.2942   10.4490 H         1 RES1    0.0000
     42 H3         2.9136    0.5903    6.1906 H         1 RES1    0.0000
     43 H4         0.3742    3.8489    6.3010 H         1 RES1    0.0000
     44 H5         3.4671    4.0159    4.4971 H         1 RES1    0.0000
     45 H6         2.8715    5.9381    6.0622 H         1 RES1    0.0000
     46 H7         3.6389    6.3803    4.6908 H         1 RES1    0.0000
     47 H8         2.7882    8.2746    5.6749 H         1 RES1    0.0000
     48 H9         1.3071    7.5975    5.8055 H         1 RES1    0.0000
     49 H10        1.2987    9.2112    4.1796 H         1 RES1    0.0000
     50 H11        1.0415    7.7456    3.5063 H         1 RES1    0.0000
     51 H12        3.0254    9.5298    2.9973 H         1 RES1    0.0000
     52 H13        3.6568    8.0920    3.4432 H         1 RES1    0.0000
     53 H14        3.5113    8.2212    1.1372 H         1 RES1    0.0000
     54 H15        1.9101    8.5286    1.2341 H         1 RES1    0.0000
     55 H16        1.6286    6.2633    2.1371 H         1 RES1    0.0000
     56 H17        2.0935    6.3090    0.5720 H         1 RES1    0.0000
     57 H18        4.1196    6.1408    2.5492 H         1 RES1    0.0000
     58 H19        4.1438    5.5639    1.0224 H         1 RES1    0.0000
     59 H20        4.1744    3.8511    2.3510 H         1 RES1    0.0000
     60 H21       -1.2702   -1.4567    0.6891 H         1 RES1    0.0000
     61 H22       -1.1227    0.1359    0.3603 H         1 RES1    0.0000
     62 H23        0.1919   -0.8319    0.3153 H         1 RES1    0.0000
     63 H24        3.5830    0.5980    9.6676 H         1 RES1    0.0000
     64 H25        5.8895    0.6047    9.0821 H         1 RES1    0.0000
     65 H26        5.2633    2.1127    9.0731 H         1 RES1    0.0000
     66 H27        5.5079    1.3208    7.6656 H         1 RES1    0.0000
     67 H28        4.5254   -1.3498    8.6610 H         1 RES1    0.0000
     68 H29        2.9347   -1.2028    8.3187 H         1 RES1    0.0000
     69 H30        4.0521   -0.8041    7.1972 H         1 RES1    0.0000
     70 H31        1.4168    4.9659    9.5235 H         1 RES1    0.0000
     71 H32       -0.5545    4.9982   10.2802 H         1 RES1    0.0000
     72 H33        0.2393    3.5816   10.4513 H         1 RES1    0.0000
     73 H34       -0.9340    3.7297    9.3231 H         1 RES1    0.0000
     74 H35       -0.0232    6.5874    8.5529 H         1 RES1    0.0000
     75 H36        1.2291    6.2166    7.5733 H         1 RES1    0.0000
     76 H37       -0.2530    5.6040    7.2693 H         1 RES1    0.0000
     77 H38        0.5893    4.2799    9.8320 Du        2 SUP2    0.0000
     78 H39       -1.1574    5.6475    8.9538 Du        2 SUP2    0.0000
     79 H40       -1.3282    4.0828    8.5214 Du        2 SUP2    0.0000
     80 H41       -0.7590    5.1697    7.4427 Du        2 SUP2    0.0000
     81 H42        1.0215    6.3090    9.7757 Du        2 SUP2    0.0000
     82 H43        2.2906    5.2822    9.8185 Du        2 SUP2    0.0000
     83 H44        1.9175    6.0629    8.4336 Du        2 SUP2    0.0000
@<TRIPOS>BOND
     1    1    2 1
     2    2    3 1
     3    3    4 2
     4    4    5 1
     5    5    6 1
     6    6    7 ar
     7    7    8 ar
     8    8    9 ar
     9    9   10 ar
    10   10   11 ar
    11   11    6 ar
    12   12    1 1
    13   13   12 1
    14   14   13 1
    15   15   14 2
    16   16   14 1
    17   17   16 1
    18   18   17 1
    19   19   18 1
    20   20   19 1
    21   21   20 1
    22   22   21 1
    23   23   13 1
    24   24    1 1
    25   25    2 2
    26   26    3 1
    27   27   26 1
    28   28   26 2
    29   29    4 1
    30   30    8 1
    31   31   30 1
    32   32   30 1
    33   33    9 1
    34   35   37 1
    35   36   37 1
    36   37   10 1
    37   40   29 1
    38   41   33 1
    39   42    7 1
    40   43   11 1
    41   44   13 1
    42   45   16 1
    43   46   16 1
    44   47   17 1
    45   48   17 1
    46   49   18 1
    47   50   18 1
    48   51   19 1
    49   52   19 1
    50   53   20 1
    51   54   20 1
    52   55   21 1
    53   56   21 1
    54   57   22 1
    55   58   22 1
    56   59   23 1
    57   60   27 1
    58   61   27 1
    59   62   27 1
    60   63   30 1
    61   64   31 1
    62   65   31 1
    63   66   31 1
    64   67   32 1
    65   68   32 1
    66   69   32 1
    67   70   37 1
    68   71   35 1
    69   72   35 1
    70   73   35 1
    71   74   36 1
    72   75   36 1
    73   76   36 1
    74    5   12 2
    75   22   23 1
    76   23   24 1
@<TRIPOS>SUBSTRUCTURE
     1 RES1 1
     2 SUP2 34

@<TRIPOS>CRYSIN
  10.5414   11.1368   22.5195  90.0000  90.0000  90.0000  29 1

