# MOL2 file generated by ConQuest
# Please check atom types

@<TRIPOS>MOLECULE
LEJKOA
    36    40     1
SMALL
NO_CHARGES
****
Generated from CSD

@<TRIPOS>ATOM
      1 O1        -3.2266    0.7207    5.4761 O.2       1 RES1    0.0000
      2 O2        -4.3804    2.3945    4.8304 O.2       1 RES1    0.0000
      3 O3        -2.5088   -0.4766    2.8933 O.2       1 RES1    0.0000
      4 O4        -0.7513    0.3952    3.8741 O.2       1 RES1    0.0000
      5 O5         0.4342    5.2540   -0.7356 O.2       1 RES1    0.0000
      6 O6        -1.6255    5.2773   -1.2587 O.2       1 RES1    0.0000
      7 O7        -0.2804    2.0574   -1.2096 O.2       1 RES1    0.0000
      8 O8         1.1393    2.5573    0.3515 O.2       1 RES1    0.0000
      9 N1        -3.4939    1.6274    4.6915 N.pl3     1 RES1    0.0000
     10 N2        -1.8619    0.4301    3.4001 N.pl3     1 RES1    0.0000
     11 N3        -0.7204    4.8588   -0.6620 N.pl3     1 RES1    0.0000
     12 N4         0.0446    2.6386   -0.1962 N.pl3     1 RES1    0.0000
     13 C1        -2.5882    1.8017    3.4409 C.3       1 RES1    0.0000
     14 C2        -1.7008    3.0106    3.7107 C.3       1 RES1    0.0000
     15 C3        -0.4470    3.1152    2.8034 C.3       1 RES1    0.0000
     16 C4        -0.6722    4.1846    1.7246 C.3       1 RES1    0.0000
     17 C5        -0.9533    3.6848    0.3433 C.3       1 RES1    0.0000
     18 C6        -2.4138    3.2431    0.2534 C.3       1 RES1    0.0000
     19 C7        -2.7231    1.8831    0.8909 C.3       1 RES1    0.0000
     20 C8        -3.4405    2.0691    2.2231 C.3       1 RES1    0.0000
     21 C9        -2.6324    4.1730    3.2775 C.3       1 RES1    0.0000
     22 C10       -1.9842    4.8937    2.0515 C.3       1 RES1    0.0000
     23 C11       -3.0918    4.2776    1.1361 C.3       1 RES1    0.0000
     24 C12       -3.7078    3.6034    2.3294 C.3       1 RES1    0.0000
     25 H1        -1.4688    3.0618    4.6375 H         1 RES1    0.0000
     26 H2         0.3167    3.3384    3.3339 H         1 RES1    0.0000
     27 H3        -0.2897    2.2818    2.3735 H         1 RES1    0.0000
     28 H4         0.0562    4.8274    1.7376 H         1 RES1    0.0000
     29 H5        -2.7397    3.2687   -0.6506 H         1 RES1    0.0000
     30 H6        -3.2599    1.3763    0.3024 H         1 RES1    0.0000
     31 H7        -1.8929    1.4321    1.0347 H         1 RES1    0.0000
     32 H8        -4.2407    1.5553    2.2493 H         1 RES1    0.0000
     33 H9        -2.9516    4.7414    3.9861 H         1 RES1    0.0000
     34 H10       -1.9660    5.8504    2.1063 H         1 RES1    0.0000
     35 H11       -3.6650    4.9030    0.6637 H         1 RES1    0.0000
     36 H12       -4.6130    3.8441    2.5304 H         1 RES1    0.0000
@<TRIPOS>BOND
     1    1    9 2
     2    2    9 2
     3    3   10 2
     4    4   10 2
     5    5   11 2
     6    6   11 2
     7    7   12 2
     8    8   12 2
     9    9   13 1
    10   10   13 1
    11   11   17 1
    12   12   17 1
    13   13   14 1
    14   14   15 1
    15   15   16 1
    16   16   17 1
    17   17   18 1
    18   18   19 1
    19   19   20 1
    20   20   13 1
    21   21   14 1
    22   22   16 1
    23   23   18 1
    24   24   20 1
    25   25   14 1
    26   26   15 1
    27   27   15 1
    28   28   16 1
    29   29   18 1
    30   30   19 1
    31   31   19 1
    32   32   20 1
    33   33   21 1
    34   34   22 1
    35   35   23 1
    36   36   24 1
    37   21   22 1
    38   21   24 1
    39   22   23 1
    40   23   24 1
@<TRIPOS>SUBSTRUCTURE
     1 RES1 1

@<TRIPOS>CRYSIN
   7.0730   11.6240    8.2310  90.0000  96.7900  90.0000   4 1

