# MOL2 file generated by ConQuest
# Please check atom types

@<TRIPOS>MOLECULE
LEKHUE
    17    17     1
SMALL
NO_CHARGES
****
Generated from CSD

@<TRIPOS>ATOM
      1 N1         0.4943    9.0265    4.2538 N.3       1 RES1    0.0000
      2 C1         0.2016    7.8805    3.5772 C.2       1 RES1    0.0000
      3 C2        -0.3638    7.8721    2.1999 C.3       1 RES1    0.0000
      4 N2         0.4928    6.8198    4.2907 N.2       1 RES1    0.0000
      5 C3         1.0026    7.3433    5.4564 C.2       1 RES1    0.0000
      6 N3         1.4560    6.4834    6.4858 N.pl3     1 RES1    0.0000
      7 O1         1.3509    5.2733    6.3286 O.2       1 RES1    0.0000
      8 O2         1.9627    6.9838    7.4911 O.2       1 RES1    0.0000
      9 C4         1.0203    8.7048    5.4660 C.2       1 RES1    0.0000
     10 C5         1.4398    9.7256    6.4617 C.3       1 RES1    0.0000
     11 H1         0.4325    9.8402    3.9764 H         1 RES1    0.0000
     12 H2        -0.8960    7.0963    2.0524 H         1 RES1    0.0000
     13 H3        -0.9501    8.5471    2.0844 H         1 RES1    0.0000
     14 H4         0.3862    7.9794    1.4751 H         1 RES1    0.0000
     15 H5         2.1859    9.5038    7.0550 H         1 RES1    0.0000
     16 H6         1.5216   10.4184    6.0609 H         1 RES1    0.0000
     17 H7         0.8574    9.8191    7.1993 H         1 RES1    0.0000
@<TRIPOS>BOND
     1    1    2 1
     2    2    3 1
     3    3   12 1
     4    4    2 2
     5    5    4 1
     6    6    5 1
     7    7    6 2
     8    8    6 2
     9    9    1 1
    10   10    9 1
    11   11    1 1
    12   13    3 1
    13   14    3 1
    14   15   10 1
    15   16   10 1
    16   17   10 1
    17    5    9 2
@<TRIPOS>SUBSTRUCTURE
     1 RES1 1

@<TRIPOS>CRYSIN
   7.7240   10.5130   16.0340  90.0000  90.0000  90.0000  61 3

