# MOL2 file generated by ConQuest
# Please check atom types

@<TRIPOS>MOLECULE
LEKLOC
    34    35     1
SMALL
NO_CHARGES
****
Generated from CSD

@<TRIPOS>ATOM
      1 O1        -2.5937    6.7830    7.9369 O.2       1 RES1    0.0000
      2 C1        -1.7089    6.6025    7.1388 C.2       1 RES1    0.0000
      3 H1        -1.0521    5.9921    7.3812 H         1 RES1    0.0000
      4 C2        -1.5530    7.2438    5.8273 C.ar      1 RES1    0.0000
      5 C3        -0.5257    6.7545    4.9996 C.ar      1 RES1    0.0000
      6 H2         0.0208    6.0729    5.3152 H         1 RES1    0.0000
      7 C4        -0.3067    7.2485    3.7576 C.ar      1 RES1    0.0000
      8 H3         0.3807    6.9089    3.2315 H         1 RES1    0.0000
      9 C5        -1.1122    8.2531    3.2856 C.ar      1 RES1    0.0000
     10 H4        -0.9816    8.5880    2.4283 H         1 RES1    0.0000
     11 C6        -2.1008    8.7590    4.0703 C.ar      1 RES1    0.0000
     12 H5        -2.6321    9.4430    3.7324 H         1 RES1    0.0000
     13 C7        -2.3495    8.2935    5.3590 C.ar      1 RES1    0.0000
     14 C8        -3.4577    8.9348    6.1674 C.3       1 RES1    0.0000
     15 H6        -3.5873    9.8586    5.8665 H         1 RES1    0.0000
     16 H7        -3.1986    8.9561    7.1129 H         1 RES1    0.0000
     17 C9        -4.7705    8.1629    6.0199 C.3       1 RES1    0.0000
     18 H8        -5.0652    8.2033    5.0863 H         1 RES1    0.0000
     19 H9        -4.6184    7.2224    6.2467 H         1 RES1    0.0000
     20 N1        -5.8418    8.7091    6.8951 N.pl3     1 RES1    0.0000
     21 H10       -5.9740    8.3315    7.6887 H         1 RES1    0.0000
     22 C10       -6.6199    9.7494    6.5453 C.ar      1 RES1    0.0000
     23 C11       -6.4467   10.3693    5.2834 C.ar      1 RES1    0.0000
     24 H11       -5.7896   10.0557    4.7046 H         1 RES1    0.0000
     25 C12       -7.2711   11.4760    4.8862 C.ar      1 RES1    0.0000
     26 H12       -7.1445   11.8797    4.0585 H         1 RES1    0.0000
     27 C13       -8.2429   11.9320    5.7295 C.ar      1 RES1    0.0000
     28 H13       -8.7950   12.6303    5.4575 H         1 RES1    0.0000
     29 C14       -8.4181   11.3810    6.9655 C.ar      1 RES1    0.0000
     30 H14       -9.0617   11.7182    7.5457 H         1 RES1    0.0000
     31 C15       -7.6204   10.3099    7.3434 C.ar      1 RES1    0.0000
     32 N2        -7.9266    9.7541    8.6779 N.pl3     1 RES1    0.0000
     33 O2        -7.2448    8.7780    9.0566 O.2       1 RES1    0.0000
     34 O3        -8.7921   10.2648    9.3441 O.2       1 RES1    0.0000
@<TRIPOS>BOND
     1    1    2 2
     2    2    3 1
     3    4    2 1
     4    5    4 ar
     5    6    5 1
     6    7    5 ar
     7    8    7 1
     8    9    7 ar
     9   10    9 1
    10   11    9 ar
    11   12   11 1
    12   13    4 ar
    13   14   13 1
    14   15   14 1
    15   16   14 1
    16   17   14 1
    17   18   17 1
    18   19   17 1
    19   20   17 1
    20   21   20 1
    21   22   20 1
    22   23   22 ar
    23   24   23 1
    24   25   23 ar
    25   26   25 1
    26   27   25 ar
    27   28   27 1
    28   29   27 ar
    29   30   29 1
    30   31   22 ar
    31   32   31 1
    32   33   32 2
    33   34   32 2
    34   11   13 ar
    35   29   31 ar
@<TRIPOS>SUBSTRUCTURE
     1 RES1 1

@<TRIPOS>CRYSIN
   7.4130   23.7500    7.9330  90.0000 110.9200  90.0000 231 1

