# MOL2 file generated by ConQuest
# Please check atom types

@<TRIPOS>MOLECULE
LEKVEF
    56    60     1
SMALL
NO_CHARGES
****
Generated from CSD

@<TRIPOS>ATOM
      1 O1         7.7834    4.9035   10.3142 O.2       1 RES1    0.0000
      2 O2         8.7510    8.4358    4.8330 O.3       1 RES1    0.0000
      3 O3         6.0152    5.3298    9.0424 O.3       1 RES1    0.0000
      4 O4        11.4799   -0.7897   10.5768 O.2       1 RES1    0.0000
      5 C1         8.6495    4.7878    6.8665 C.ar      1 RES1    0.0000
      6 C2         9.5687    1.9731    9.4326 C.2       1 RES1    0.0000
      7 C3         5.7110    1.7859    9.7844 C.ar      1 RES1    0.0000
      8 C4         8.2502    1.7976   10.1555 C.3       1 RES1    0.0000
      9 H1         8.1929    2.4716   10.8640 H         1 RES1    0.0000
     10 C5         8.5218    3.4826    7.6337 C.3       1 RES1    0.0000
     11 H2         8.4984    2.7596    6.9730 H         1 RES1    0.0000
     12 C6         7.0861    2.0259    9.1645 C.3       1 RES1    0.0000
     13 H3         7.1891    1.3503    8.4631 H         1 RES1    0.0000
     14 N1         5.3511    4.7117    7.9125 N.2       1 RES1    0.0000
     15 C7         7.0812    4.5844    9.3943 C.2       1 RES1    0.0000
     16 C8         7.1799    3.4049    8.4535 C.3       1 RES1    0.0000
     17 C9         8.1728    4.8872    5.5619 C.ar      1 RES1    0.0000
     18 H4         7.8436    4.1216    5.1489 H         1 RES1    0.0000
     19 C10        4.9044    0.7718    9.3081 C.ar      1 RES1    0.0000
     20 H5         5.2126    0.2159    8.6283 H         1 RES1    0.0000
     21 C11        9.4128   -0.0171   11.4888 C.3       1 RES1    0.0000
     22 H6         9.5871    0.5730   12.2380 H         1 RES1    0.0000
     23 H7         9.3057   -0.9170   11.8347 H         1 RES1    0.0000
     24 C12        9.7050    3.2038    8.5684 C.3       1 RES1    0.0000
     25 H8        10.5067    3.1145    8.0298 H         1 RES1    0.0000
     26 H9         9.8262    3.9733    9.1465 H         1 RES1    0.0000
     27 C13        8.6825    7.2144    5.4266 C.ar      1 RES1    0.0000
     28 C14        9.1823    5.9510    7.4182 C.ar      1 RES1    0.0000
     29 H10        9.5287    5.9269    8.2812 H         1 RES1    0.0000
     30 C15        8.1708    6.0714    4.8569 C.ar      1 RES1    0.0000
     31 H11        7.8220    6.0986    3.9952 H         1 RES1    0.0000
     32 C16       10.5839    1.1290    9.5905 C.2       1 RES1    0.0000
     33 H12       11.3412    1.2517    9.0651 H         1 RES1    0.0000
     34 C17        8.1311    0.4146   10.7910 C.3       1 RES1    0.0000
     35 H13        7.4061    0.4232   11.4349 H         1 RES1    0.0000
     36 H14        7.9099   -0.2329   10.1028 H         1 RES1    0.0000
     37 C18        5.9919    3.6635    7.5882 C.2       1 RES1    0.0000
     38 C19       10.5805    0.0179   10.5421 C.2       1 RES1    0.0000
     39 C20        5.2453    2.5578   10.8377 C.ar      1 RES1    0.0000
     40 H15        5.7901    3.2170   11.2015 H         1 RES1    0.0000
     41 C21        9.2075    7.1398    6.7133 C.ar      1 RES1    0.0000
     42 H16        9.5786    7.8977    7.1034 H         1 RES1    0.0000
     43 C22        3.1634    1.3759   10.8449 C.ar      1 RES1    0.0000
     44 H17        2.3039    1.2571   11.1800 H         1 RES1    0.0000
     45 C23        5.5179    2.7961    6.4835 C.3       1 RES1    0.0000
     46 H18        5.1826    1.9731    6.8449 H         1 RES1    0.0000
     47 H19        6.2471    2.6106    5.8874 H         1 RES1    0.0000
     48 H20        4.8170    3.2442    6.0035 H         1 RES1    0.0000
     49 C24        3.6309    0.5762    9.8407 C.ar      1 RES1    0.0000
     50 H21        3.0932   -0.1064    9.5080 H         1 RES1    0.0000
     51 C25        3.9759    2.3559   11.3523 C.ar      1 RES1    0.0000
     52 H22        3.6716    2.8901   12.0501 H         1 RES1    0.0000
     53 C26        8.3050    8.5523    3.4817 C.3       1 RES1    0.0000
     54 H23        8.7860    7.9295    2.9323 H         1 RES1    0.0000
     55 H24        8.4644    9.4452    3.1681 H         1 RES1    0.0000
     56 H25        7.3657    8.3589    3.4374 H         1 RES1    0.0000
@<TRIPOS>BOND
     1    1   15 2
     2    2   27 1
     3    3   14 1
     4    4   38 2
     5    5   10 1
     6    6    8 1
     7    7   12 1
     8    8    9 1
     9   10   11 1
    10   12    8 1
    11   13   12 1
    12   14   37 2
    13   15    3 1
    14   16   10 1
    15   17    5 ar
    16   18   17 1
    17   19    7 ar
    18   20   19 1
    19   21   22 1
    20   23   21 1
    21   24    6 1
    22   25   24 1
    23   26   24 1
    24   27   30 ar
    25   28    5 ar
    26   29   28 1
    27   30   17 ar
    28   31   30 1
    29   32    6 2
    30   33   32 1
    31   34    8 1
    32   35   34 1
    33   36   34 1
    34   37   16 1
    35   38   21 1
    36   39    7 ar
    37   40   39 1
    38   41   27 ar
    39   42   41 1
    40   43   44 1
    41   45   37 1
    42   46   45 1
    43   47   45 1
    44   48   45 1
    45   49   19 ar
    46   50   49 1
    47   51   39 ar
    48   52   51 1
    49   53    2 1
    50   54   53 1
    51   55   53 1
    52   56   53 1
    53   10   24 1
    54   12   16 1
    55   15   16 1
    56   21   34 1
    57   28   41 ar
    58   32   38 1
    59   43   49 ar
    60   43   51 ar
@<TRIPOS>SUBSTRUCTURE
     1 RES1 1

@<TRIPOS>CRYSIN
  11.3294    7.7649   12.0285  90.0000  95.7140  90.0000   4 1

