# MOL2 file generated by ConQuest
# Please check atom types

@<TRIPOS>MOLECULE
LELKAR
    58    61     1
SMALL
NO_CHARGES
****
Generated from CSD

@<TRIPOS>ATOM
      1 O1         5.0939    6.1172   10.5935 O.3       1 RES1    0.0000
      2 N1         2.0967    7.9206    7.5302 N.3       1 RES1    0.0000
      3 O2         3.1457    6.6838   11.5039 O.2       1 RES1    0.0000
      4 O3         5.4330    6.8640    6.8252 O.2       1 RES1    0.0000
      5 O4         0.2347    6.4172    8.8957 O.2       1 RES1    0.0000
      6 O5         1.8777    5.0704    9.5075 O.3       1 RES1    0.0000
      7 O6        -2.1137   11.7033    2.8795 O.2       1 RES1    0.0000
      8 C1         2.8013    9.0589    7.2474 C.2       1 RES1    0.0000
      9 O7        -0.1051   11.3095    2.2639 O.2       1 RES1    0.0000
     10 C2         4.6799    8.2552    8.7242 C.3       1 RES1    0.0000
     11 N2         6.9245    7.7000    8.3441 N.am      1 RES1    0.0000
     12 H1         7.6466    7.3784    8.0050 H         1 RES1    0.0000
     13 C3         3.9673    9.3229    7.9090 C.2       1 RES1    0.0000
     14 C4         7.0645    5.4783   11.7381 C.3       1 RES1    0.0000
     15 H2         7.2140    4.7472   11.1341 H         1 RES1    0.0000
     16 H3         7.4438    5.2683   12.5943 H         1 RES1    0.0000
     17 H4         7.4783    6.2706   11.3900 H         1 RES1    0.0000
     18 C5         5.5983    5.7077   11.8866 C.3       1 RES1    0.0000
     19 H5         5.1587    4.8932   12.1771 H         1 RES1    0.0000
     20 H6         5.4323    6.3990   12.5469 H         1 RES1    0.0000
     21 C6         3.8821    6.6563   10.5735 C.2       1 RES1    0.0000
     22 C7         3.6130    7.3052    9.2592 C.2       1 RES1    0.0000
     23 C8         2.4496    7.1406    8.6116 C.2       1 RES1    0.0000
     24 N3         2.3071    9.8815    6.2951 N.pl3     1 RES1    0.0000
     25 H7         2.8820   10.3136    5.8243 H         1 RES1    0.0000
     26 C9         0.9472   10.1053    5.9906 C.ar      1 RES1    0.0000
     27 C10        0.6290   10.4840    4.7096 C.ar      1 RES1    0.0000
     28 H8         1.2766   10.5159    4.0428 H         1 RES1    0.0000
     29 C11       -0.6783   10.8144    4.4472 C.ar      1 RES1    0.0000
     30 N4        -0.9878   11.3184    3.1047 N.pl3     1 RES1    0.0000
     31 C12        5.6998    7.4902    7.8335 C.2       1 RES1    0.0000
     32 C13        6.8920    8.5015    9.4896 C.ar      1 RES1    0.0000
     33 C14        7.9543    8.9122   10.2638 C.ar      1 RES1    0.0000
     34 H9         8.8312    8.6793   10.0591 H         1 RES1    0.0000
     35 C15        7.6407    9.6955   11.3683 C.ar      1 RES1    0.0000
     36 H10        8.3286   10.0009   11.9147 H         1 RES1    0.0000
     37 C16        6.3501   10.0301   11.6767 C.ar      1 RES1    0.0000
     38 H11        6.1758   10.5497   12.4292 H         1 RES1    0.0000
     39 C17        5.3025    9.6051   10.8819 C.ar      1 RES1    0.0000
     40 H12        4.4239    9.8291   11.0906 H         1 RES1    0.0000
     41 C18        5.5895    8.8414    9.7749 C.ar      1 RES1    0.0000
     42 C19        4.5355   10.5953    7.7977 C.1       1 RES1    0.0000
     43 N5         4.9916   11.6506    7.7145 N.1       1 RES1    0.0000
     44 C20        1.3905    6.1798    9.0186 C.2       1 RES1    0.0000
     45 C21        0.9352    4.1416   10.1269 C.3       1 RES1    0.0000
     46 H13        0.2928    4.6354   10.6605 H         1 RES1    0.0000
     47 H14        0.4508    3.6597    9.4396 H         1 RES1    0.0000
     48 C22        1.6406    3.2187   10.9562 C.3       1 RES1    0.0000
     49 H15        2.2630    2.7208   10.4225 H         1 RES1    0.0000
     50 H16        1.0168    2.6160   11.3670 H         1 RES1    0.0000
     51 H17        2.1169    3.6997   11.6370 H         1 RES1    0.0000
     52 C23       -1.6762   10.7511    5.3751 C.ar      1 RES1    0.0000
     53 H18       -2.5522   10.9721    5.1562 H         1 RES1    0.0000
     54 C24       -1.3392   10.3498    6.6382 C.ar      1 RES1    0.0000
     55 H19       -1.9989   10.2831    7.2896 H         1 RES1    0.0000
     56 C25       -0.0401   10.0440    6.9556 C.ar      1 RES1    0.0000
     57 H20        0.1767    9.7932    7.8246 H         1 RES1    0.0000
     58 H21        1.4152    7.6345    6.9876 H         1 RES1    0.0000
@<TRIPOS>BOND
     1    1   18 1
     2    2    8 1
     3    3   21 2
     4    4   31 2
     5    5   44 2
     6    6   44 1
     7    7   30 2
     8    8   13 2
     9    9   30 2
    10   10   13 1
    11   11   12 1
    12   13   42 1
    13   14   15 1
    14   16   14 1
    15   17   14 1
    16   18   14 1
    17   19   18 1
    18   20   18 1
    19   21    1 1
    20   22   10 1
    21   23    2 1
    22   24    8 1
    23   25   24 1
    24   26   24 1
    25   27   26 ar
    26   28   27 1
    27   29   27 ar
    28   30   29 1
    29   31   10 1
    30   32   11 1
    31   33   32 ar
    32   34   33 1
    33   35   33 ar
    34   36   35 1
    35   37   35 ar
    36   38   37 1
    37   39   37 ar
    38   40   39 1
    39   41   10 1
    40   42   43 3
    41   44   23 1
    42   45    6 1
    43   46   45 1
    44   47   45 1
    45   48   45 1
    46   49   48 1
    47   50   48 1
    48   51   48 1
    49   52   29 ar
    50   53   52 1
    51   54   52 ar
    52   55   54 1
    53   56   26 ar
    54   57   56 1
    55   58    2 1
    56   11   31 1
    57   21   22 1
    58   22   23 2
    59   32   41 ar
    60   39   41 ar
    61   54   56 ar
@<TRIPOS>SUBSTRUCTURE
     1 RES1 1

@<TRIPOS>CRYSIN
   9.3370   10.6120   13.5120  71.6270  81.2300  72.3590   2 1

