# MOL2 file generated by ConQuest
# Please check atom types

@<TRIPOS>MOLECULE
LELLAR
    76    80     1
SMALL
NO_CHARGES
****
Generated from CSD

@<TRIPOS>ATOM
      1 O1         6.7358    2.1697    6.7603 O.2       1 RES1    0.0000
      2 O2         8.0036    1.3528    8.4286 O.3       1 RES1    0.0000
      3 O3        12.3420    7.6846    9.1881 O.2       1 RES1    0.0000
      4 O4        13.3466    5.8869    8.6155 O.2       1 RES1    0.0000
      5 O5        -0.0922    1.9315   12.3248 O.2       1 RES1    0.0000
      6 O6         1.0495    0.2261   11.9541 O.2       1 RES1    0.0000
      7 N1         6.7667    4.0385   11.2046 N.pl3     1 RES1    0.0000
      8 N2         5.3611    4.3523    7.2284 N.pl3     1 RES1    0.0000
      9 H1         5.3855    3.6110    6.7927 H         1 RES1    0.0000
     10 N3        12.3745    6.4813    9.0281 N.pl3     1 RES1    0.0000
     11 N4         0.9288    1.4160   12.0036 N.pl3     1 RES1    0.0000
     12 C1         7.5834    3.4718   10.1361 C.3       1 RES1    0.0000
     13 H2         7.8484    2.5695   10.4130 H         1 RES1    0.0000
     14 C2         6.8358    3.3464    8.8167 C.2       1 RES1    0.0000
     15 C3         5.9358    4.3148    8.4515 C.2       1 RES1    0.0000
     16 C4         5.5278    5.3056    9.4939 C.3       1 RES1    0.0000
     17 H3         4.6441    5.6431    9.2807 H         1 RES1    0.0000
     18 H4         6.1432    6.0550    9.4762 H         1 RES1    0.0000
     19 C5         5.5087    4.7060   10.9060 C.3       1 RES1    0.0000
     20 H5         5.4346    5.4585   11.5301 H         1 RES1    0.0000
     21 C6         8.8673    4.2858    9.9159 C.ar      1 RES1    0.0000
     22 C7         8.9506    5.6328   10.2259 C.ar      1 RES1    0.0000
     23 H6         8.2289    6.0529   10.6352 H         1 RES1    0.0000
     24 C8        10.0963    6.3693    9.9361 C.ar      1 RES1    0.0000
     25 H7        10.1399    7.2790   10.1236 H         1 RES1    0.0000
     26 C9        11.1633    5.7126    9.3637 C.ar      1 RES1    0.0000
     27 C10       11.1434    4.3734    9.1205 C.ar      1 RES1    0.0000
     28 H8        11.8930    3.9440    8.7768 H         1 RES1    0.0000
     29 C11        9.9948    3.6660    9.3927 C.ar      1 RES1    0.0000
     30 H9         9.9732    2.7521    9.2223 H         1 RES1    0.0000
     31 C12        7.1747    2.2629    7.8953 C.2       1 RES1    0.0000
     32 C13        8.5326    0.2398    7.6119 C.3       1 RES1    0.0000
     33 C14        9.4316   -0.4678    8.5863 C.3       1 RES1    0.0000
     34 H10       10.1381    0.1245    8.8580 H         1 RES1    0.0000
     35 H11        9.8101   -1.2448    8.1662 H         1 RES1    0.0000
     36 H12        8.9237   -0.7344    9.3556 H         1 RES1    0.0000
     37 C15        9.3057    0.7728    6.4360 C.3       1 RES1    0.0000
     38 H13        8.7055    1.2147    5.8317 H         1 RES1    0.0000
     39 H14        9.7388    0.0456    5.9828 H         1 RES1    0.0000
     40 H15        9.9664    1.3973    6.7444 H         1 RES1    0.0000
     41 C16        7.4068   -0.6608    7.1494 C.3       1 RES1    0.0000
     42 H16        6.9143   -0.9741    7.9123 H         1 RES1    0.0000
     43 H17        7.7705   -1.4108    6.6746 H         1 RES1    0.0000
     44 H18        6.8201   -0.1691    6.5705 H         1 RES1    0.0000
     45 C17        4.7282    5.4177    6.5557 C.ar      1 RES1    0.0000
     46 C18        3.9426    5.0830    5.4612 C.ar      1 RES1    0.0000
     47 H19        3.8132    4.1888    5.2389 H         1 RES1    0.0000
     48 C19        3.3537    6.0716    4.7032 C.ar      1 RES1    0.0000
     49 H20        2.8201    5.8402    3.9784 H         1 RES1    0.0000
     50 C20        3.5469    7.3952    5.0091 C.ar      1 RES1    0.0000
     51 H21        3.1391    8.0581    4.4988 H         1 RES1    0.0000
     52 C21        4.3442    7.7354    6.0674 C.ar      1 RES1    0.0000
     53 H22        4.4879    8.6327    6.2671 H         1 RES1    0.0000
     54 C22        4.9371    6.7562    6.8425 C.ar      1 RES1    0.0000
     55 H23        5.4779    6.9969    7.5594 H         1 RES1    0.0000
     56 C23        4.2956    3.8128   11.1507 C.ar      1 RES1    0.0000
     57 C24        4.3869    2.4388   11.1512 C.ar      1 RES1    0.0000
     58 H24        5.2032    2.0363   10.9614 H         1 RES1    0.0000
     59 C25        3.2902    1.6448   11.4283 C.ar      1 RES1    0.0000
     60 H25        3.3621    0.7178   11.4286 H         1 RES1    0.0000
     61 C26        2.0933    2.2562   11.7034 C.ar      1 RES1    0.0000
     62 C27        1.9651    3.6182   11.7307 C.ar      1 RES1    0.0000
     63 H26        1.1484    4.0135   11.9338 H         1 RES1    0.0000
     64 C28        3.0686    4.3900   11.4521 C.ar      1 RES1    0.0000
     65 H27        2.9924    5.3164   11.4654 H         1 RES1    0.0000
     66 C29        7.1456    3.8214   12.5209 C.ar      1 RES1    0.0000
     67 C30        6.3283    4.2106   13.5945 C.ar      1 RES1    0.0000
     68 H28        5.5006    4.6006   13.4279 H         1 RES1    0.0000
     69 C31        6.7454    4.0166   14.8955 C.ar      1 RES1    0.0000
     70 H29        6.1914    4.2894   15.5910 H         1 RES1    0.0000
     71 C32        7.9479    3.4367   15.1975 C.ar      1 RES1    0.0000
     72 H30        8.2067    3.3060   16.0810 H         1 RES1    0.0000
     73 C33        8.7615    3.0529   14.1597 C.ar      1 RES1    0.0000
     74 H31        9.5860    2.6639   14.3444 H         1 RES1    0.0000
     75 C34        8.3764    3.2358   12.8442 C.ar      1 RES1    0.0000
     76 H32        8.9456    2.9647   12.1610 H         1 RES1    0.0000
@<TRIPOS>BOND
     1    1   31 2
     2    2   31 1
     3    3   10 2
     4    4   10 2
     5    5   11 2
     6    6   11 2
     7    7   12 1
     8    8    9 1
     9   10   26 1
    10   11   61 1
    11   12   13 1
    12   14   12 1
    13   15    8 1
    14   16   15 1
    15   17   16 1
    16   18   16 1
    17   19    7 1
    18   20   19 1
    19   21   12 1
    20   22   21 ar
    21   23   22 1
    22   24   22 ar
    23   25   24 1
    24   26   24 ar
    25   27   26 ar
    26   28   27 1
    27   29   21 ar
    28   30   29 1
    29   31   14 1
    30   32    2 1
    31   33   32 1
    32   34   33 1
    33   35   33 1
    34   36   33 1
    35   37   32 1
    36   38   37 1
    37   39   37 1
    38   40   37 1
    39   41   32 1
    40   42   41 1
    41   43   41 1
    42   44   41 1
    43   45    8 1
    44   46   45 ar
    45   47   46 1
    46   48   46 ar
    47   49   48 1
    48   50   48 ar
    49   51   50 1
    50   52   50 ar
    51   53   52 1
    52   54   45 ar
    53   55   54 1
    54   56   19 1
    55   57   56 ar
    56   58   57 1
    57   59   57 ar
    58   60   59 1
    59   61   59 ar
    60   62   61 ar
    61   63   62 1
    62   64   56 ar
    63   65   64 1
    64   66    7 1
    65   67   66 ar
    66   68   67 1
    67   69   67 ar
    68   70   69 1
    69   71   69 ar
    70   72   71 1
    71   73   71 ar
    72   74   73 1
    73   75   66 ar
    74   76   75 1
    75   14   15 2
    76   16   19 1
    77   27   29 ar
    78   52   54 ar
    79   62   64 ar
    80   73   75 ar
@<TRIPOS>SUBSTRUCTURE
     1 RES1 1

@<TRIPOS>CRYSIN
  11.5684   10.3734   13.8042  90.0000 113.1340  90.0000   4 1

