# MOL2 file generated by ConQuest
# Please check atom types

@<TRIPOS>MOLECULE
LELZAG
    56    58     1
SMALL
NO_CHARGES
****
Generated from CSD

@<TRIPOS>ATOM
      1 N1        -5.2159   13.5021    2.3023 N.pl3     1 RES1    0.0000
      2 N2        -0.6055    8.1116    2.9663 N.1       1 RES1    0.0000
      3 O1         8.2545    6.0409    2.6307 O.3       1 RES1    0.0000
      4 O2         5.3619    5.7769    1.3901 O.3       1 RES1    0.0000
      5 O3         4.2871    7.6354    3.1723 O.3       1 RES1    0.0000
      6 O4         8.7495    8.7472    3.5485 O.3       1 RES1    0.0000
      7 O5         6.0191    9.2589    4.1107 O.3       1 RES1    0.0000
      8 O6        -6.2664   12.9168    2.3953 O.2       1 RES1    0.0000
      9 O7        -5.1589   14.6912    2.0589 O.2       1 RES1    0.0000
     10 C1         7.2677    5.1209    2.7333 C.3       1 RES1    0.0000
     11 H1         6.6936    5.3698    3.4745 H         1 RES1    0.0000
     12 H2         7.6690    4.2661    2.9520 H         1 RES1    0.0000
     13 C2         6.4680    4.9550    1.5929 C.3       1 RES1    0.0000
     14 H3         7.0463    5.0534    0.8199 H         1 RES1    0.0000
     15 H4         6.1509    4.0384    1.5937 H         1 RES1    0.0000
     16 C3         8.8900    6.3481    3.8459 C.3       1 RES1    0.0000
     17 H5         9.5141    5.6399    4.0757 H         1 RES1    0.0000
     18 H6         8.2303    6.4098    4.5537 H         1 RES1    0.0000
     19 C4         9.6141    7.6292    3.7258 C.3       1 RES1    0.0000
     20 H7        10.1468    7.7682    4.5250 H         1 RES1    0.0000
     21 H8        10.2225    7.5791    2.9711 H         1 RES1    0.0000
     22 C5         4.2544    5.4991    2.2196 C.3       1 RES1    0.0000
     23 H9         4.5600    5.1595    3.0753 H         1 RES1    0.0000
     24 H10        3.6945    4.8218    1.8068 H         1 RES1    0.0000
     25 C6         2.5553    9.3471    3.1301 C.ar      1 RES1    0.0000
     26 H11        1.9208    8.7484    2.8097 H         1 RES1    0.0000
     27 C7        -0.4627    9.2307    2.9600 C.1       1 RES1    0.0000
     28 C8         4.4515   11.1197    4.1067 C.ar      1 RES1    0.0000
     29 H12        5.0827   11.7198    4.4336 H         1 RES1    0.0000
     30 C9        -2.7848   13.4965    2.4915 C.ar      1 RES1    0.0000
     31 H13       -2.7848   14.4230    2.4096 H         1 RES1    0.0000
     32 C10        2.1979   10.6910    3.3552 C.ar      1 RES1    0.0000
     33 C11       -1.5981   12.7897    2.6347 C.ar      1 RES1    0.0000
     34 H14       -0.7926   13.2537    2.6434 H         1 RES1    0.0000
     35 C12        3.1619   11.5461    3.8316 C.ar      1 RES1    0.0000
     36 H15        2.9419   12.4376    3.9739 H         1 RES1    0.0000
     37 C13        8.2760    9.2886    4.7716 C.3       1 RES1    0.0000
     38 H16        8.9743    9.8231    5.1827 H         1 RES1    0.0000
     39 H17        8.0503    8.5689    5.3807 H         1 RES1    0.0000
     40 C14        3.4632    6.7627    2.4224 C.3       1 RES1    0.0000
     41 H18        3.2375    7.1623    1.5675 H         1 RES1    0.0000
     42 H19        2.6420    6.5757    2.9035 H         1 RES1    0.0000
     43 C15        7.0706   10.1395    4.5314 C.3       1 RES1    0.0000
     44 H20        6.8164   10.6026    5.3449 H         1 RES1    0.0000
     45 H21        7.2534   10.7975    3.8435 H         1 RES1    0.0000
     46 C16        0.8697   11.2220    3.1341 C.2       1 RES1    0.0000
     47 H22        0.8397   12.1520    3.1230 H         1 RES1    0.0000
     48 C17        3.8358    8.9160    3.3807 C.ar      1 RES1    0.0000
     49 C18       -3.9873   11.4277    2.5989 C.ar      1 RES1    0.0000
     50 H23       -4.7956   10.9692    2.5822 H         1 RES1    0.0000
     51 C19       -0.3185   10.6493    2.9433 C.2       1 RES1    0.0000
     52 C20        4.7942    9.7965    3.8920 C.ar      1 RES1    0.0000
     53 C21       -2.8034   10.7521    2.7468 C.ar      1 RES1    0.0000
     54 H24       -2.8177    9.8269    2.8383 H         1 RES1    0.0000
     55 C22       -1.5821   11.4172    2.7635 C.ar      1 RES1    0.0000
     56 C23       -3.9573   12.7835    2.4772 C.ar      1 RES1    0.0000
@<TRIPOS>BOND
     1    1    8 2
     2    2   27 3
     3    3   10 1
     4    4   13 1
     5    5   40 1
     6    6   19 1
     7    7   43 1
     8    9    1 2
     9   10   11 1
    10   12   10 1
    11   13   10 1
    12   14   13 1
    13   15   13 1
    14   16    3 1
    15   17   16 1
    16   18   16 1
    17   19   16 1
    18   20   19 1
    19   21   19 1
    20   22    4 1
    21   23   22 1
    22   24   22 1
    23   25   26 1
    24   27   51 1
    25   28   29 1
    26   30   31 1
    27   32   25 ar
    28   33   30 ar
    29   34   33 1
    30   35   28 ar
    31   36   35 1
    32   37    6 1
    33   38   37 1
    34   39   37 1
    35   40   22 1
    36   41   40 1
    37   42   40 1
    38   43   37 1
    39   44   43 1
    40   45   43 1
    41   46   32 1
    42   47   46 1
    43   48    5 1
    44   49   50 1
    45   51   46 2
    46   52    7 1
    47   53   49 ar
    48   54   53 1
    49   55   33 ar
    50   56    1 1
    51   25   48 ar
    52   28   52 ar
    53   30   56 ar
    54   32   35 ar
    55   48   52 ar
    56   49   56 ar
    57   51   55 1
    58   53   55 ar
@<TRIPOS>SUBSTRUCTURE
     1 RES1 1

@<TRIPOS>CRYSIN
  14.2812   19.2950    7.9526  90.0000  90.0000  90.0000  33 1

