# MOL2 file generated by ConQuest
# Please check atom types

@<TRIPOS>MOLECULE
LENDAM
    44    46     1
SMALL
NO_CHARGES
****
Generated from CSD

@<TRIPOS>ATOM
      1 O1         6.2895    1.8928   11.1032 O.2       1 RES1    0.0000
      2 O2         5.0160    0.3295   11.8456 O.2       1 RES1    0.0000
      3 N1         6.9065    3.9587   12.5931 N.pl3     1 RES1    0.0000
      4 H1         7.0697    3.5939   11.8321 H         1 RES1    0.0000
      5 N2         5.6181    1.3851   12.0054 N.pl3     1 RES1    0.0000
      6 O3         3.4751    2.0752   17.4795 O.2       1 RES1    0.0000
      7 N3         7.4001    5.2068   12.8862 N.2       1 RES1    0.0000
      8 N4         3.6742    1.4658   16.4351 N.pl3     1 RES1    0.0000
      9 O4         3.1517    0.3866   16.1731 O.2       1 RES1    0.0000
     10 C1         5.5131    2.0718   13.2769 C.ar      1 RES1    0.0000
     11 C2         8.5117    7.1761   11.9968 C.ar      1 RES1    0.0000
     12 C3         4.5567    2.0710   15.4488 C.ar      1 RES1    0.0000
     13 C4         8.4143    8.0200   13.1700 C.ar      1 RES1    0.0000
     14 C5         4.7123    1.4667   14.2331 C.ar      1 RES1    0.0000
     15 H2         4.2862    0.6606   14.0503 H         1 RES1    0.0000
     16 C6         6.1609    3.3090   13.5178 C.ar      1 RES1    0.0000
     17 C7         9.2423    7.6073   10.8918 C.ar      1 RES1    0.0000
     18 C8         5.2019    3.2687   15.7454 C.ar      1 RES1    0.0000
     19 H3         5.0966    3.6595   16.5836 H         1 RES1    0.0000
     20 C9         7.8970    5.8490   11.9075 C.2       1 RES1    0.0000
     21 H4         7.8681    5.4447   11.0707 H         1 RES1    0.0000
     22 C10        9.1215    9.2597   13.1755 C.ar      1 RES1    0.0000
     23 C11        5.9864    3.8663   14.8086 C.ar      1 RES1    0.0000
     24 H5         6.4192    4.6622   15.0193 H         1 RES1    0.0000
     25 C12        9.3716    6.8012    9.6145 C.3       1 RES1    0.0000
     26 H6        10.1559    7.1122    9.1362 H         1 RES1    0.0000
     27 H7         9.5251    5.8742    9.8525 H         1 RES1    0.0000
     28 C13        7.6605    7.7098   14.3269 C.ar      1 RES1    0.0000
     29 H8         7.1702    6.9198   14.3480 H         1 RES1    0.0000
     30 C14        9.9121    8.8495   10.9416 C.ar      1 RES1    0.0000
     31 H9        10.4002    9.1302   10.2021 H         1 RES1    0.0000
     32 C15        9.0685   10.0876   14.3269 C.ar      1 RES1    0.0000
     33 H10        9.5413   10.8885   14.3307 H         1 RES1    0.0000
     34 C16        9.8618    9.6438   12.0397 C.ar      1 RES1    0.0000
     35 H11       10.3215   10.4515   12.0432 H         1 RES1    0.0000
     36 C17        8.3481    9.7421   15.4208 C.ar      1 RES1    0.0000
     37 H12        8.3294   10.2977   16.1648 H         1 RES1    0.0000
     38 C18        8.2005    6.8592    8.6832 C.2       1 RES1    0.0000
     39 H13        8.2808    6.3776    7.8903 H         1 RES1    0.0000
     40 C19        7.6321    8.5427   15.4166 C.ar      1 RES1    0.0000
     41 H14        7.1305    8.3049   16.1614 H         1 RES1    0.0000
     42 C20        7.0842    7.5031    8.8524 C.2       1 RES1    0.0000
     43 H15        6.9479    8.0015    9.6241 H         1 RES1    0.0000
     44 H16        6.4222    7.4652    8.2018 H         1 RES1    0.0000
@<TRIPOS>BOND
     1    1    5 2
     2    2    5 2
     3    3    4 1
     4    5   10 1
     5    6    8 2
     6    7    3 1
     7    8    9 2
     8   10   14 ar
     9   11   13 ar
    10   12    8 1
    11   13   22 ar
    12   14   12 ar
    13   15   14 1
    14   16    3 1
    15   17   11 ar
    16   18   12 ar
    17   19   18 1
    18   20    7 2
    19   21   20 1
    20   22   32 ar
    21   23   16 ar
    22   24   23 1
    23   25   17 1
    24   26   25 1
    25   27   25 1
    26   28   13 ar
    27   29   28 1
    28   30   17 ar
    29   31   30 1
    30   32   33 1
    31   34   22 ar
    32   35   34 1
    33   36   32 ar
    34   37   36 1
    35   38   25 1
    36   39   38 1
    37   40   28 ar
    38   41   40 1
    39   42   38 2
    40   43   42 1
    41   44   42 1
    42   10   16 ar
    43   11   20 1
    44   18   23 ar
    45   30   34 ar
    46   36   40 ar
@<TRIPOS>SUBSTRUCTURE
     1 RES1 1

@<TRIPOS>CRYSIN
  12.1013    8.4049   34.7680  90.0000  95.5200  90.0000  15 1

