# MOL2 file generated by ConQuest
# Please check atom types

@<TRIPOS>MOLECULE
LENJOE
    27    26     2
SMALL
NO_CHARGES
****
Generated from CSD

@<TRIPOS>ATOM
      1 O1         3.8382    6.3128   -0.2771 O.3       1 RES1    0.0000
      2 H1         4.1016    7.1306   -0.5186 H         1 RES1    0.0000
      3 O2         3.0384    7.5427    1.4393 O.2       1 RES1    0.0000
      4 H2         3.2968    8.2792    0.9547 Du        2 SUP2    0.0000
      5 O3         0.3834    6.4843    4.8587 O.2       1 RES1    0.0000
      6 O4         1.6894    5.9506    6.4845 O.2       1 RES1    0.0000
      7 O5         0.1752    3.5850    6.9749 O.3       1 RES1    0.0000
      8 O6         0.3239    0.9957    6.1026 O.3       1 RES1    0.0000
      9 H3         0.4294    0.2286    5.7729 H         1 RES1    0.0000
     10 N1         1.1081    5.6770    5.4703 N.pl3     1 RES1    0.0000
     11 C1         1.7424    4.1138    3.6111 C.ar      1 RES1    0.0000
     12 C2         1.2156    4.3022    4.9099 C.ar      1 RES1    0.0000
     13 C3         0.7638    3.2808    5.7640 C.ar      1 RES1    0.0000
     14 C4         0.8326    1.9503    5.2550 C.ar      1 RES1    0.0000
     15 C5         1.3783    1.7297    3.9909 C.ar      1 RES1    0.0000
     16 H4         1.4605    0.8548    3.6883 H         1 RES1    0.0000
     17 C6         1.8046    2.7624    3.1667 C.ar      1 RES1    0.0000
     18 H5         2.1329    2.5700    2.3181 H         1 RES1    0.0000
     19 C7         2.1946    5.2367    2.7649 C.2       1 RES1    0.0000
     20 H6         2.0539    6.0867    3.1148 H         1 RES1    0.0000
     21 C8         2.7828    5.1940    1.5571 C.2       1 RES1    0.0000
     22 H7         2.9135    4.3690    1.1470 H         1 RES1    0.0000
     23 C9         3.2291    6.4239    0.8596 C.2       1 RES1    0.0000
     24 C10        0.8594    3.1230    8.1521 C.3       1 RES1    0.0000
     25 H8         1.6887    2.7109    7.8987 H         1 RES1    0.0000
     26 H9         0.3106    2.4831    8.6095 H         1 RES1    0.0000
     27 H10        1.0360    3.8675    8.7332 H         1 RES1    0.0000
@<TRIPOS>BOND
     1    1    2 1
     2    3   23 2
     3    5   10 2
     4    6   10 2
     5    7   13 1
     6    8    9 1
     7   10   12 1
     8   11   12 ar
     9   12   13 ar
    10   13   14 ar
    11   14    8 1
    12   15   14 ar
    13   16   15 1
    14   17   11 ar
    15   18   17 1
    16   19   11 1
    17   20   19 1
    18   21   19 2
    19   22   21 1
    20   23    1 1
    21   24    7 1
    22   25   24 1
    23   26   24 1
    24   27   24 1
    25   15   17 ar
    26   21   23 1
@<TRIPOS>SUBSTRUCTURE
     1 RES1 1
     2 SUP2 4

@<TRIPOS>CRYSIN
   3.8710    8.0490   34.3420  90.0000  90.0300  90.0000  14 1

