# MOL2 file generated by ConQuest
# Please check atom types

@<TRIPOS>MOLECULE
LENMUM
    43    41     2
SMALL
NO_CHARGES
****
Generated from CSD

@<TRIPOS>ATOM
      1 O1        -1.6192    5.4627   -1.0453 O.2       1 RES1    0.0000
      2 O2        -2.6139    5.9974    0.7682 O.2       1 RES1    0.0000
      3 O3         6.9521   -3.8056   -1.0502 O.2       1 RES1    0.0000
      4 O4         6.1050    0.4682    3.4861 O.3       1 RES1    0.0000
      5 O5         9.4446   -0.6801    1.5850 O.2       1 RES1    0.0000
      6 O6         8.6461    0.0419    3.4569 O.2       1 RES1    0.0000
      7 O7         4.8087   -3.9017   -0.8314 O.2       1 RES1    0.0000
      8 O8         0.9178    5.1042   -0.7731 O.3       1 RES1    0.0000
      9 N1        -1.6239    5.9456    0.0632 N.pl3     1 RES1    0.0000
     10 N2         8.5153   -0.5002    2.3824 N.pl3     1 RES1    0.0000
     11 N3         5.9356   -3.4521   -0.5008 N.pl3     1 RES1    0.0000
     12 C1         0.4920    9.1698    3.1846 C.3       1 RES1    0.0000
     13 C2         0.6252    8.0844    2.1976 C.ar      1 RES1    0.0000
     14 C3         1.8099    7.6335    1.7066 C.ar      1 RES1    0.0000
     15 C4         2.0038    6.6713    0.7488 C.ar      1 RES1    0.0000
     16 C5         0.8983    6.0984    0.1556 C.ar      1 RES1    0.0000
     17 C6        -0.3533    6.4951    0.6321 C.ar      1 RES1    0.0000
     18 C7        -0.4667    7.4906    1.5996 C.ar      1 RES1    0.0000
     19 C8         2.2296    4.6077   -1.1426 C.3       1 RES1    0.0000
     20 C9         2.8151    3.8007   -0.0486 C.1       1 RES1    0.0000
     21 C10        3.2490    3.1588    0.8606 C.1       1 RES1    0.0000
     22 C11        3.7910    2.4726    1.9156 C.1       1 RES1    0.0000
     23 C12        4.2746    1.8591    2.8492 C.1       1 RES1    0.0000
     24 C13        4.8738    1.1187    3.9383 C.3       1 RES1    0.0000
     25 C14        6.0261   -0.4903    2.5623 C.ar      1 RES1    0.0000
     26 C15        4.7909   -1.0460    2.1004 C.ar      1 RES1    0.0000
     27 C16        4.7707   -2.0045    1.1377 C.ar      1 RES1    0.0000
     28 C17        5.9654   -2.4628    0.5640 C.ar      1 RES1    0.0000
     29 C18        7.2006   -1.9268    0.9773 C.ar      1 RES1    0.0000
     30 C19        7.2082   -0.9745    1.9594 C.ar      1 RES1    0.0000
     31 H1        -1.1360    9.2400    5.2024 Du        2 SUP2    0.0000
     32 H2         1.5272    9.1168    3.9383 H         1 RES1    0.0000
     33 H3         0.5577    9.2400    3.2576 Du        2 SUP2    0.0000
     34 H4         2.4588    7.8355    1.8962 H         1 RES1    0.0000
     35 H5         2.9844    6.2339    0.4376 H         1 RES1    0.0000
     36 H6        -1.2148    7.7246    1.8476 H         1 RES1    0.0000
     37 H7         2.9669    5.2976   -1.6045 H         1 RES1    0.0000
     38 H8         1.7404    4.0410   -1.6045 H         1 RES1    0.0000
     39 H9         5.1483    1.5277    4.6676 H         1 RES1    0.0000
     40 H10        4.6927    0.8870    3.8410 Du        2 SUP2    0.0000
     41 H11        4.3628   -0.6160    2.5769 H         1 RES1    0.0000
     42 H12        3.8605   -2.3901    0.6807 H         1 RES1    0.0000
     43 H13        8.1795   -2.0205    0.8265 H         1 RES1    0.0000
@<TRIPOS>BOND
     1    1    9 2
     2    2    9 2
     3    3   11 2
     4    4   24 1
     5    5   10 2
     6    6   10 2
     7    7   11 2
     8    8   16 1
     9    9   17 1
    10   10   30 1
    11   11   28 1
    12   12   13 1
    13   13   14 ar
    14   14   15 ar
    15   15   16 ar
    16   16   17 ar
    17   17   18 ar
    18   18   13 ar
    19   19    8 1
    20   20   19 1
    21   21   20 3
    22   22   21 1
    23   23   22 3
    24   24   23 1
    25   25    4 1
    26   26   25 ar
    27   27   26 ar
    28   28   27 ar
    29   29   28 ar
    30   30   25 ar
    31   32   12 1
    32   34   14 1
    33   35   15 1
    34   36   18 1
    35   37   19 1
    36   38   19 1
    37   39   24 1
    38   41   26 1
    39   42   27 1
    40   43   29 1
    41   29   30 ar
@<TRIPOS>SUBSTRUCTURE
     1 RES1 1
     2 SUP2 31

@<TRIPOS>CRYSIN
  14.6010   12.3200    4.8970  90.0000  96.8500  90.0000   4 1

