# MOL2 file generated by ConQuest
# Please check atom types

@<TRIPOS>MOLECULE
LENWUY
    65    70     1
SMALL
NO_CHARGES
****
Generated from CSD

@<TRIPOS>ATOM
      1 C1         7.4281    2.4811    1.2444 C.3       1 RES1    0.0000
      2 H1         6.4663    2.6206    1.3647 H         1 RES1    0.0000
      3 C2         8.0107    1.8904    2.4835 C.2       1 RES1    0.0000
      4 C3         8.3695    2.7210    3.6320 C.ar      1 RES1    0.0000
      5 C4         8.6918    2.1220    4.8585 C.ar      1 RES1    0.0000
      6 H2         8.6430    1.2004    4.9763 H         1 RES1    0.0000
      7 C5         9.0782    2.9431    5.8632 C.ar      1 RES1    0.0000
      8 C6         9.8952    3.8115    7.7422 C.3       1 RES1    0.0000
      9 H3        10.8517    3.7784    7.8971 H         1 RES1    0.0000
     10 H4         9.4503    3.9427    8.5951 H         1 RES1    0.0000
     11 C7         9.1457    4.3077    5.6933 C.ar      1 RES1    0.0000
     12 C8         8.8206    4.9209    4.5264 C.ar      1 RES1    0.0000
     13 H5         8.8623    5.8461    4.4382 H         1 RES1    0.0000
     14 C9         8.4183    4.1033    3.4594 C.ar      1 RES1    0.0000
     15 C10        8.0338    4.7851    2.1519 C.3       1 RES1    0.0000
     16 H6         8.7052    5.4810    1.9900 H         1 RES1    0.0000
     17 C11        8.1021    3.8068    0.9402 C.3       1 RES1    0.0000
     18 H7         9.0471    3.6248    0.7587 H         1 RES1    0.0000
     19 C12        7.6625    1.3209    0.2899 C.3       1 RES1    0.0000
     20 H8         6.9085    1.2087   -0.3103 H         1 RES1    0.0000
     21 H9         8.4645    1.4639   -0.2375 H         1 RES1    0.0000
     22 C13        6.6874    5.4940    2.2603 C.ar      1 RES1    0.0000
     23 C14        5.6048    4.8725    2.8486 C.ar      1 RES1    0.0000
     24 H10        5.7096    4.0336    3.2359 H         1 RES1    0.0000
     25 C15        4.3623    5.4892    2.8648 C.ar      1 RES1    0.0000
     26 C16        4.2096    6.7653    2.3160 C.ar      1 RES1    0.0000
     27 C17        5.3099    7.3974    1.7617 C.ar      1 RES1    0.0000
     28 C18        6.5346    6.7676    1.7326 C.ar      1 RES1    0.0000
     29 H11        7.2664    7.2012    1.3550 H         1 RES1    0.0000
     30 C19        3.3188    3.6201    3.8899 C.3       1 RES1    0.0000
     31 H12        3.6767    3.0388    3.2165 H         1 RES1    0.0000
     32 H13        2.4449    3.3153    4.1449 H         1 RES1    0.0000
     33 H14        3.8961    3.6154    4.6563 H         1 RES1    0.0000
     34 C20        2.5320    7.9751    3.4349 C.3       1 RES1    0.0000
     35 H15        2.5737    7.3477    4.1618 H         1 RES1    0.0000
     36 H16        1.6288    8.2811    3.3280 H         1 RES1    0.0000
     37 H17        3.1030    8.7230    3.6262 H         1 RES1    0.0000
     38 C21        6.0364    9.2689    0.4710 C.3       1 RES1    0.0000
     39 H18        6.8446    9.3646    0.9793 H         1 RES1    0.0000
     40 H19        5.7247   10.1349    0.1988 H         1 RES1    0.0000
     41 H20        6.2087    8.7325   -0.3054 H         1 RES1    0.0000
     42 C22        7.5098    4.4306   -0.2984 C.2       1 RES1    0.0000
     43 C23        7.5231    6.3541   -1.6890 C.3       1 RES1    0.0000
     44 H21        7.7460    7.2875   -1.5464 H         1 RES1    0.0000
     45 H22        6.5604    6.2643   -1.6119 H         1 RES1    0.0000
     46 C24        7.9369    5.9630   -3.0626 C.ar      1 RES1    0.0000
     47 C25        9.2567    5.7350   -3.3833 C.ar      1 RES1    0.0000
     48 H23        9.9068    5.7882   -2.7196 H         1 RES1    0.0000
     49 C26        9.6235    5.4314   -4.6735 C.ar      1 RES1    0.0000
     50 H24       10.5133    5.2470   -4.8720 H         1 RES1    0.0000
     51 C27        8.6821    5.3995   -5.6639 C.ar      1 RES1    0.0000
     52 H25        8.9370    5.2317   -6.5421 H         1 RES1    0.0000
     53 C28        7.3588    5.6145   -5.3612 C.ar      1 RES1    0.0000
     54 H26        6.7123    5.5720   -6.0282 H         1 RES1    0.0000
     55 C29        7.0000    5.8921   -4.0683 C.ar      1 RES1    0.0000
     56 H27        6.1039    6.0351   -3.8661 H         1 RES1    0.0000
     57 N1         8.2087    0.6317    2.4392 N.2       1 RES1    0.0000
     58 O1         9.4565    2.6027    7.1454 O.3       1 RES1    0.0000
     59 O2         9.5817    4.8856    6.8577 O.3       1 RES1    0.0000
     60 O3         7.8108    0.1743    1.1480 O.3       1 RES1    0.0000
     61 O4         3.2274    4.9409    3.3763 O.3       1 RES1    0.0000
     62 O5         2.9636    7.3428    2.2402 O.3       1 RES1    0.0000
     63 O6         5.0533    8.6443    1.2636 O.3       1 RES1    0.0000
     64 O7         6.5631    4.0029   -0.8864 O.2       1 RES1    0.0000
     65 O8         8.1599    5.5480   -0.6462 O.3       1 RES1    0.0000
@<TRIPOS>BOND
     1    1    2 1
     2    3    1 1
     3    4    3 1
     4    5    4 ar
     5    6    5 1
     6    7    5 ar
     7    8    9 1
     8   10    8 1
     9   11    7 ar
    10   12   11 ar
    11   13   12 1
    12   14    4 ar
    13   15   14 1
    14   16   15 1
    15   17    1 1
    16   18   17 1
    17   19    1 1
    18   20   19 1
    19   21   19 1
    20   22   15 1
    21   23   22 ar
    22   24   23 1
    23   25   23 ar
    24   26   25 ar
    25   27   26 ar
    26   28   22 ar
    27   29   28 1
    28   30   31 1
    29   32   30 1
    30   33   30 1
    31   34   35 1
    32   36   34 1
    33   37   34 1
    34   38   39 1
    35   40   38 1
    36   41   38 1
    37   42   17 1
    38   43   44 1
    39   45   43 1
    40   46   43 1
    41   47   46 ar
    42   48   47 1
    43   49   47 ar
    44   50   49 1
    45   51   49 ar
    46   52   51 1
    47   53   51 ar
    48   54   53 1
    49   55   46 ar
    50   56   55 1
    51   57    3 2
    52   58    7 1
    53   59    8 1
    54   60   19 1
    55   61   25 1
    56   62   26 1
    57   63   27 1
    58   64   42 2
    59   65   42 1
    60    8   58 1
    61   11   59 1
    62   12   14 ar
    63   15   17 1
    64   27   28 ar
    65   30   61 1
    66   34   62 1
    67   38   63 1
    68   43   65 1
    69   53   55 ar
    70   57   60 1
@<TRIPOS>SUBSTRUCTURE
     1 RES1 1

@<TRIPOS>CRYSIN
   8.8810   11.8150   24.2390  90.0000  90.0000  90.0000  19 1

