# MOL2 file generated by ConQuest
# Please check atom types

@<TRIPOS>MOLECULE
LEPCIU
    17    17     1
SMALL
NO_CHARGES
****
Generated from CSD

@<TRIPOS>ATOM
      1 O1         2.6021    5.2528   -0.5244 O.2       1 RES1    0.0000
      2 O2         1.3333    6.2771    0.9185 O.2       1 RES1    0.0000
      3 O3         2.2906    5.8577    3.7574 O.2       1 RES1    0.0000
      4 O4         0.6729    7.3838    4.0992 O.3       1 RES1    0.0000
      5 H1         0.3809    6.8262    4.6554 H         1 RES1    0.0000
      6 N1         3.5621    7.5824    1.9608 N.3       1 RES1    0.0000
      7 N2         4.7759    6.5698    0.3911 N.2       1 RES1    0.0000
      8 N3         2.4232    6.0287    0.4031 N.pl3     1 RES1    0.0000
      9 C1         3.5787    6.7135    0.9184 C.2       1 RES1    0.0000
     10 C2         5.5857    7.3938    1.1272 C.2       1 RES1    0.0000
     11 H2         6.5171    7.5171    0.9852 H         1 RES1    0.0000
     12 C3         4.8434    8.0135    2.1009 C.2       1 RES1    0.0000
     13 H3         5.1646    8.6280    2.7501 H         1 RES1    0.0000
     14 C4         2.4444    8.0539    2.7755 C.3       1 RES1    0.0000
     15 H4         1.7552    8.4466    2.1828 H         1 RES1    0.0000
     16 H5         2.7647    8.7683    3.3815 H         1 RES1    0.0000
     17 C5         1.8160    6.9499    3.6002 C.2       1 RES1    0.0000
@<TRIPOS>BOND
     1    1    8 2
     2    2    8 2
     3    3   17 2
     4    4    5 1
     5    6    9 1
     6    7    9 2
     7    8    9 1
     8   10    7 1
     9   11   10 1
    10   12    6 1
    11   13   12 1
    12   14    6 1
    13   15   14 1
    14   16   14 1
    15   17    4 1
    16   10   12 2
    17   14   17 1
@<TRIPOS>SUBSTRUCTURE
     1 RES1 1

@<TRIPOS>CRYSIN
   7.3412    8.2046   11.5678  90.0000 103.7960  90.0000 231 1

