# MOL2 file generated by ConQuest
# Please check atom types

@<TRIPOS>MOLECULE
LEPMUR
    32    33     1
SMALL
NO_CHARGES
****
Generated from CSD

@<TRIPOS>ATOM
      1 O1         2.5073   -0.4685    2.8107 O.2       1 RES1    0.0000
      2 O2         2.6178    4.8017    7.3751 O.2       1 RES1    0.0000
      3 O3         4.6943    1.7945    3.7995 O.2       1 RES1    0.0000
      4 O4         0.4414   -0.8985    3.1784 O.2       1 RES1    0.0000
      5 N1         4.6325    4.1188    8.1741 N.am      1 RES1    0.0000
      6 N2         1.4829   -0.3344    3.4544 N.pl3     1 RES1    0.0000
      7 O5         6.5966    3.0371    8.5371 O.2       1 RES1    0.0000
      8 C1         2.5819    1.4091    4.7849 C.ar      1 RES1    0.0000
      9 C2         2.6804    2.0987    5.9932 C.ar      1 RES1    0.0000
     10 C3         1.5348    0.5048    4.6447 C.ar      1 RES1    0.0000
     11 C4         3.8459    3.0206    6.2616 C.3       1 RES1    0.0000
     12 H1         4.0866    3.4792    5.4066 H         1 RES1    0.0000
     13 C5         1.7280    1.8779    6.9635 C.ar      1 RES1    0.0000
     14 H2         1.7844    2.3561    7.7820 H         1 RES1    0.0000
     15 C6         3.5115    1.6953    3.6615 C.2       1 RES1    0.0000
     16 H3         3.1479    1.8051    2.7911 H         1 RES1    0.0000
     17 C7         0.6987    0.9851    6.7816 C.ar      1 RES1    0.0000
     18 H4         0.0560    0.8570    7.4691 H         1 RES1    0.0000
     19 C8         5.0852    2.3118    6.7883 C.3       1 RES1    0.0000
     20 H5         4.8585    1.4013    7.1048 H         1 RES1    0.0000
     21 H6         5.7743    2.2415    6.0810 H         1 RES1    0.0000
     22 C9         5.5738    3.1563    7.9203 C.2       1 RES1    0.0000
     23 C10        0.5974    0.2758    5.6056 C.ar      1 RES1    0.0000
     24 H7        -0.1027   -0.3515    5.4692 H         1 RES1    0.0000
     25 C11        3.5695    4.0802    7.3085 C.2       1 RES1    0.0000
     26 C12        4.7953    5.1412    9.1900 C.3       1 RES1    0.0000
     27 H8         5.4075    4.8069    9.8931 H         1 RES1    0.0000
     28 H9         3.9189    5.3248    9.6110 H         1 RES1    0.0000
     29 C13        5.3464    6.4169    8.6199 C.3       1 RES1    0.0000
     30 H10        4.7459    6.7479    7.9203 H         1 RES1    0.0000
     31 H11        6.2327    6.2469    8.2370 H         1 RES1    0.0000
     32 H12        5.4213    7.0871    9.3308 H         1 RES1    0.0000
@<TRIPOS>BOND
     1    1    6 2
     2    2   25 2
     3    3   15 2
     4    4    6 2
     5    5   22 1
     6    6   10 1
     7    7   22 2
     8    8    9 ar
     9    9   11 1
    10   10    8 ar
    11   11   12 1
    12   13    9 ar
    13   14   13 1
    14   15    8 1
    15   16   15 1
    16   17   13 ar
    17   18   17 1
    18   19   11 1
    19   20   19 1
    20   21   19 1
    21   22   19 1
    22   23   10 ar
    23   24   23 1
    24   25    5 1
    25   26    5 1
    26   27   26 1
    27   28   26 1
    28   29   26 1
    29   30   29 1
    30   31   29 1
    31   32   29 1
    32   11   25 1
    33   17   23 ar
@<TRIPOS>SUBSTRUCTURE
     1 RES1 1

@<TRIPOS>CRYSIN
   7.7830    8.8640    9.7200  97.1540 101.6040 106.5540   2 1

