# MOL2 file generated by ConQuest
# Please check atom types

@<TRIPOS>MOLECULE
LEQMUQ
    47    50     1
SMALL
NO_CHARGES
****
Generated from CSD

@<TRIPOS>ATOM
      1 O1         9.3103   22.0702    9.2056 O.3       1 RES1    0.0000
      2 O2         3.9038   22.7935    4.4735 O.2       1 RES1    0.0000
      3 O3         6.4617   26.4236    5.9314 O.2       1 RES1    0.0000
      4 O4         7.9562   27.9162    5.7533 O.2       1 RES1    0.0000
      5 N1         7.5966   26.7649    5.6491 N.pl3     1 RES1    0.0000
      6 N2         4.5830   21.7722    6.3873 N.am      1 RES1    0.0000
      7 C1         6.6696   24.1074    4.6080 C.2       1 RES1    0.0000
      8 C2         6.0202   24.6275    3.3976 C.ar      1 RES1    0.0000
      9 C3         6.1039   23.2568    5.4947 C.2       1 RES1    0.0000
     10 C4         7.9023   22.8125    7.3827 C.ar      1 RES1    0.0000
     11 H1         8.5388   23.4193    7.0849 H         1 RES1    0.0000
     12 C5         6.6791   22.6662    6.7110 C.ar      1 RES1    0.0000
     13 C6         4.7442   22.6283    5.3366 C.2       1 RES1    0.0000
     14 C7         6.6084   24.4677    2.1451 C.ar      1 RES1    0.0000
     15 H2         7.4304   24.0370    2.0867 H         1 RES1    0.0000
     16 C8         8.5478   25.7599    5.2294 C.ar      1 RES1    0.0000
     17 C9         5.7401   21.7587    7.2134 C.ar      1 RES1    0.0000
     18 C10        8.1093   24.5083    4.7809 C.ar      1 RES1    0.0000
     19 C11        4.8221   25.3075    3.4486 C.ar      1 RES1    0.0000
     20 H3         4.4097   25.4429    4.2710 H         1 RES1    0.0000
     21 C12        9.1011   23.5927    4.4151 C.ar      1 RES1    0.0000
     22 H4         8.8528   22.7583    4.0929 H         1 RES1    0.0000
     23 C13        8.1364   22.0296    8.4984 C.ar      1 RES1    0.0000
     24 C14        5.9721   20.9893    8.3300 C.ar      1 RES1    0.0000
     25 H5         5.3316   20.3961    8.6484 H         1 RES1    0.0000
     26 C15        7.1951   21.1302    8.9617 C.ar      1 RES1    0.0000
     27 H6         7.3860   20.6128    9.7103 H         1 RES1    0.0000
     28 C16        9.8746   26.0795    5.3100 C.ar      1 RES1    0.0000
     29 H7        10.1384   26.9248    5.5915 H         1 RES1    0.0000
     30 C17        6.0126   24.9282    0.9865 C.ar      1 RES1    0.0000
     31 H8         6.4146   24.7928    0.1589 H         1 RES1    0.0000
     32 C18        4.7988   25.5946    1.0870 C.ar      1 RES1    0.0000
     33 H9         4.3770   25.9143    0.3214 H         1 RES1    0.0000
     34 C19        4.2255   25.7870    2.3099 C.ar      1 RES1    0.0000
     35 H10        3.4197   26.2448    2.3734 H         1 RES1    0.0000
     36 C20       10.2709   23.0346    8.8361 C.3       1 RES1    0.0000
     37 H11        9.8678   23.9069    8.8443 H         1 RES1    0.0000
     38 H12       10.5966   22.8423    7.9538 H         1 RES1    0.0000
     39 H13       11.0009   23.0157    9.4583 H         1 RES1    0.0000
     40 C21       10.4433   23.9042    4.5245 C.ar      1 RES1    0.0000
     41 H14       11.0900   23.2757    4.2939 H         1 RES1    0.0000
     42 C22        3.3912   20.9758    6.6275 C.3       1 RES1    0.0000
     43 H15        3.6305   20.0493    6.6785 H         1 RES1    0.0000
     44 H16        2.7688   21.1085    5.9085 H         1 RES1    0.0000
     45 H17        2.9864   21.2494    7.4543 H         1 RES1    0.0000
     46 C23       10.8140   25.1395    4.9723 C.ar      1 RES1    0.0000
     47 H18       11.7171   25.3454    5.0498 H         1 RES1    0.0000
@<TRIPOS>BOND
     1    1   23 1
     2    2   13 2
     3    3    5 2
     4    4    5 2
     5    5   16 1
     6    6   13 1
     7    7    8 1
     8    8   14 ar
     9    9    7 2
    10   10   11 1
    11   12    9 1
    12   13    9 1
    13   14   15 1
    14   16   18 ar
    15   17    6 1
    16   18    7 1
    17   19    8 ar
    18   20   19 1
    19   21   18 ar
    20   22   21 1
    21   23   10 ar
    22   24   17 ar
    23   25   24 1
    24   26   23 ar
    25   27   26 1
    26   28   16 ar
    27   29   28 1
    28   30   14 ar
    29   31   30 1
    30   32   30 ar
    31   33   32 1
    32   34   19 ar
    33   35   34 1
    34   36    1 1
    35   37   36 1
    36   38   36 1
    37   39   36 1
    38   40   21 ar
    39   41   40 1
    40   42    6 1
    41   43   42 1
    42   44   42 1
    43   45   42 1
    44   46   28 ar
    45   47   46 1
    46   10   12 ar
    47   12   17 ar
    48   24   26 ar
    49   32   34 ar
    50   40   46 ar
@<TRIPOS>SUBSTRUCTURE
     1 RES1 1

@<TRIPOS>CRYSIN
   9.7120   27.0900    7.5980  90.0000 103.4600  90.0000  14 1

