# MOL2 file generated by ConQuest
# Please check atom types

@<TRIPOS>MOLECULE
LEQPIJ
    46    49     1
SMALL
NO_CHARGES
****
Generated from CSD

@<TRIPOS>ATOM
      1 C1         1.1247   13.9285    4.3793 C.3       1 RES1    0.0000
      2 H1         0.2491   14.1447    3.9952 H         1 RES1    0.0000
      3 C2         1.0929   13.9891    5.9644 C.3       1 RES1    0.0000
      4 H2         0.2053   14.2337    6.3020 H         1 RES1    0.0000
      5 C3         3.4814   14.1145    3.9485 C.3       1 RES1    0.0000
      6 H3         4.0576   14.2908    3.1756 H         1 RES1    0.0000
      7 C4         3.3923   14.2055    6.4153 C.3       1 RES1    0.0000
      8 H4         3.9192   14.4419    7.2075 H         1 RES1    0.0000
      9 C5         3.0774   12.6002    4.0182 C.3       1 RES1    0.0000
     10 H5         3.4466   12.1135    3.2517 H         1 RES1    0.0000
     11 C6         3.0210   12.6806    6.4346 C.3       1 RES1    0.0000
     12 H6         3.3734   12.2629    7.2483 H         1 RES1    0.0000
     13 C7         3.6166   10.5612    5.3162 C.3       1 RES1    0.0000
     14 H7         3.2047   10.2031    4.5149 H         1 RES1    0.0000
     15 H8         3.1047   10.2501    6.0794 H         1 RES1    0.0000
     16 C8         5.0587   10.0334    5.4239 C.3       1 RES1    0.0000
     17 N1         2.1836   14.7497    3.7900 N.3       1 RES1    0.0000
     18 N2         2.1241   14.9339    6.4059 N.3       1 RES1    0.0000
     19 N3         4.1166   14.5604    5.1945 N.3       1 RES1    0.0000
     20 N4         1.5778   12.6072    3.9599 N.3       1 RES1    0.0000
     21 N5         1.5305   12.6916    6.4763 N.3       1 RES1    0.0000
     22 N6         3.5705   12.0281    5.2694 N.3       1 RES1    0.0000
     23 N7         2.0654   16.1330    3.7427 N.pl3     1 RES1    0.0000
     24 N8         1.8270   15.6885    7.5999 N.pl3     1 RES1    0.0000
     25 N9         1.0087   12.0878    2.7747 N.pl3     1 RES1    0.0000
     26 N10        0.9027   12.1524    7.6042 N.pl3     1 RES1    0.0000
     27 N11        5.5068   14.3955    5.2627 N.pl3     1 RES1    0.0000
     28 N12        5.1337    8.5672    5.0585 N.pl3     1 RES1    0.0000
     29 N13        6.0274   10.7806    4.5078 N.pl3     1 RES1    0.0000
     30 N14        5.6645   10.1367    6.8439 N.pl3     1 RES1    0.0000
     31 O1         0.9591   16.5867    4.0485 O.2       1 RES1    0.0000
     32 O2         3.0403   16.7598    3.3664 O.2       1 RES1    0.0000
     33 O3         0.6615   15.8862    7.8354 O.2       1 RES1    0.0000
     34 O4         2.7879   16.1140    8.2099 O.2       1 RES1    0.0000
     35 O5        -0.0834   12.5434    2.4407 O.2       1 RES1    0.0000
     36 O6         1.6085   11.1796    2.2315 O.2       1 RES1    0.0000
     37 O7        -0.1675   12.6376    7.9351 O.2       1 RES1    0.0000
     38 O8         1.4508   11.1924    8.1231 O.2       1 RES1    0.0000
     39 O9         6.0866   14.1444    4.2238 O.2       1 RES1    0.0000
     40 O10        6.0299   14.5463    6.3483 O.2       1 RES1    0.0000
     41 O11        4.2713    7.8645    5.5822 O.2       1 RES1    0.0000
     42 O12        5.9971    8.2439    4.2529 O.2       1 RES1    0.0000
     43 O13        5.5890   10.9505    3.3618 O.2       1 RES1    0.0000
     44 O14        7.0947   11.1318    4.9965 O.2       1 RES1    0.0000
     45 O15        5.4121   11.1402    7.4448 O.2       1 RES1    0.0000
     46 O16        6.3464    9.1894    7.2089 O.2       1 RES1    0.0000
@<TRIPOS>BOND
     1    1    2 1
     2    3    1 1
     3    4    3 1
     4    5    6 1
     5    7    8 1
     6    9    5 1
     7   10    9 1
     8   11    7 1
     9   12   11 1
    10   13   14 1
    11   15   13 1
    12   16   13 1
    13   17    1 1
    14   18    3 1
    15   19    5 1
    16   20    1 1
    17   21    3 1
    18   22    9 1
    19   23   17 1
    20   24   18 1
    21   25   20 1
    22   26   21 1
    23   27   19 1
    24   28   16 1
    25   29   16 1
    26   30   16 1
    27   31   23 2
    28   32   23 2
    29   33   24 2
    30   34   24 2
    31   35   25 2
    32   36   25 2
    33   37   26 2
    34   38   26 2
    35   39   27 2
    36   40   27 2
    37   41   28 2
    38   42   28 2
    39   43   29 2
    40   44   29 2
    41   45   30 2
    42   46   30 2
    43    5   17 1
    44    7   18 1
    45    7   19 1
    46    9   20 1
    47   11   21 1
    48   11   22 1
    49   13   22 1
@<TRIPOS>SUBSTRUCTURE
     1 RES1 1

@<TRIPOS>CRYSIN
   8.2000   16.7870   14.0900  90.0000  91.8600  90.0000 231 1

