# MOL2 file generated by ConQuest
# Please check atom types

@<TRIPOS>MOLECULE
LEQTAC
    29    30     1
SMALL
NO_CHARGES
****
Generated from CSD

@<TRIPOS>ATOM
      1 O1         6.4776   10.3814    9.0658 O.3       1 RES1    0.0000
      2 O2         4.5154    4.6027    7.3966 O.2       1 RES1    0.0000
      3 O3         3.2368    2.3350    2.9957 O.3       1 RES1    0.0000
      4 O4         2.6028   -0.1520    3.2308 O.2       1 RES1    0.0000
      5 O5         2.2276   -0.3672    1.1025 O.2       1 RES1    0.0000
      6 N1         4.4776    5.5725    5.3603 N.am      1 RES1    0.0000
      7 N2         4.0540    4.4379    4.7082 N.2       1 RES1    0.0000
      8 N3         2.5553    0.2848    2.0896 N.pl3     1 RES1    0.0000
      9 C1         5.1980    6.8803    7.2525 C.ar      1 RES1    0.0000
     10 C2         5.5840    7.9777    6.4750 C.ar      1 RES1    0.0000
     11 C3         6.0163    9.1458    7.0650 C.ar      1 RES1    0.0000
     12 C4         6.0678    9.2485    8.4425 C.ar      1 RES1    0.0000
     13 C5         5.6970    8.1704    9.2322 C.ar      1 RES1    0.0000
     14 C6         5.2696    6.9944    8.6400 C.ar      1 RES1    0.0000
     15 C7         4.7053    5.5867    6.6901 C.2       1 RES1    0.0000
     16 C8         3.9127    4.6298    3.4515 C.2       1 RES1    0.0000
     17 C9         3.5058    3.5905    2.5365 C.2       1 RES1    0.0000
     18 C10        3.3397    3.6567    1.1845 C.2       1 RES1    0.0000
     19 C11        2.9356    2.3731    0.7553 C.2       1 RES1    0.0000
     20 C12        2.9016    1.6390    1.8899 C.2       1 RES1    0.0000
     21 H1         4.5956    6.2553    4.8623 H         1 RES1    0.0000
     22 H2         6.8246   11.0318    8.3727 H         1 RES1    0.0000
     23 H3         5.4563    7.8817    5.4945 H         1 RES1    0.0000
     24 H4         6.2815    9.8830    6.5282 H         1 RES1    0.0000
     25 H5         5.7441    8.2524   10.1395 H         1 RES1    0.0000
     26 H6         4.9887    6.2053    9.2001 H         1 RES1    0.0000
     27 H7         4.1364    5.4761    2.9946 H         1 RES1    0.0000
     28 H8         3.4052    4.5068    0.5679 H         1 RES1    0.0000
     29 H9         2.7564    2.1454   -0.1919 H         1 RES1    0.0000
@<TRIPOS>BOND
     1    1   12 1
     2    2   15 2
     3    3   17 1
     4    4    8 2
     5    5    8 2
     6    6    7 1
     7    7   16 2
     8    8   20 1
     9    9   10 ar
    10   10   11 ar
    11   11   12 ar
    12   12   13 ar
    13   13   14 ar
    14   14    9 ar
    15   15    6 1
    16   16   17 1
    17   17   18 2
    18   18   19 1
    19   19   20 2
    20   20    3 1
    21   21    6 1
    22   22    1 1
    23   23   10 1
    24   24   11 1
    25   25   13 1
    26   26   14 1
    27   27   16 1
    28   28   18 1
    29   29   19 1
    30    9   15 1
@<TRIPOS>SUBSTRUCTURE
     1 RES1 1

@<TRIPOS>CRYSIN
   6.8790    8.1640   11.4100  78.8700  78.9100  69.6800   2 1

