# MOL2 file generated by ConQuest
# Please check atom types

@<TRIPOS>MOLECULE
LERFEU
    45    50     1
SMALL
NO_CHARGES
****
Generated from CSD

@<TRIPOS>ATOM
      1 O1         0.0608    4.6721    3.8777 O.3       1 RES1    0.0000
      2 O2         1.5747    7.5738    1.0023 O.3       1 RES1    0.0000
      3 O3         3.6492    7.6010    2.7375 O.3       1 RES1    0.0000
      4 O4         1.2981    2.6741   -2.8795 O.3       1 RES1    0.0000
      5 O5         5.4720    4.4897    7.7773 O.3       1 RES1    0.0000
      6 N1         0.7614    4.7675    2.6387 N.2       1 RES1    0.0000
      7 O6         6.0945    6.6984    7.4179 O.3       1 RES1    0.0000
      8 O7        -0.1479    4.4814   -2.7052 O.3       1 RES1    0.0000
      9 C1         4.4333    7.1523    5.6757 C.ar      1 RES1    0.0000
     10 C2         0.8020    4.5254   -1.6923 C.ar      1 RES1    0.0000
     11 C3         1.3523    5.8986    2.5376 C.2       1 RES1    0.0000
     12 C4        -0.0197    3.1595   -3.2557 C.3       1 RES1    0.0000
     13 C5         3.3552    6.6083    4.9364 C.ar      1 RES1    0.0000
     14 C6         1.6588    3.4635   -1.7954 C.ar      1 RES1    0.0000
     15 C7         2.8949    4.2654    0.0230 C.ar      1 RES1    0.0000
     16 C8         2.1382    6.2959    1.3170 C.3       1 RES1    0.0000
     17 C9         3.6492    4.5086    6.1337 C.ar      1 RES1    0.0000
     18 C10        4.6497    5.0820    6.8213 C.ar      1 RES1    0.0000
     19 C11        2.0214    5.3409    0.1552 C.ar      1 RES1    0.0000
     20 C12        1.0071    8.1524    2.2276 C.3       1 RES1    0.0000
     21 C13        0.9385    5.4919   -0.7210 C.ar      1 RES1    0.0000
     22 C14        2.7351    3.3000   -0.9731 C.ar      1 RES1    0.0000
     23 C15        5.0385    6.3777    6.5999 C.ar      1 RES1    0.0000
     24 C16        2.7488    7.4826    3.8611 C.3       1 RES1    0.0000
     25 C17        6.2579    5.5737    8.2881 C.3       1 RES1    0.0000
     26 C18        1.3398    7.1523    3.3512 C.3       1 RES1    0.0000
     27 C19        3.6015    6.5056    1.8104 C.3       1 RES1    0.0000
     28 C20        2.9760    5.2990    5.2025 C.ar      1 RES1    0.0000
     29 H1         3.6074    4.2036    0.6827 H         1 RES1    0.0000
     30 H2         0.3757    6.2896   -0.6465 H         1 RES1    0.0000
     31 H3         0.6499    7.1387    4.0652 H         1 RES1    0.0000
     32 H4         2.7071    8.5015    4.2307 H         1 RES1    0.0000
     33 H5         3.9890    5.7340    2.2472 H         1 RES1    0.0000
     34 H6         4.7702    8.1765    5.5004 H         1 RES1    0.0000
     35 H7         4.2156    6.7823    1.0421 H         1 RES1    0.0000
     36 H8         5.8554    5.7760    9.2837 H         1 RES1    0.0000
     37 H9         3.2735    3.5956    6.2503 H         1 RES1    0.0000
     38 H10       -0.7513    2.5892   -2.8601 H         1 RES1    0.0000
     39 H11        1.4609    9.1199    2.3713 H         1 RES1    0.0000
     40 H12        0.0179    8.1136    2.0998 H         1 RES1    0.0000
     41 H13        7.2924    5.3252    8.2777 H         1 RES1    0.0000
     42 H14        0.0417    3.2077   -4.2927 H         1 RES1    0.0000
     43 H15        2.2360    4.9898    4.8203 H         1 RES1    0.0000
     44 H16        3.3331    2.6312   -1.1275 H         1 RES1    0.0000
     45 H17       -0.4055    3.7318    3.7497 H         1 RES1    0.0000
@<TRIPOS>BOND
     1    1    6 1
     2    2   16 1
     3    3   24 1
     4    4   12 1
     5    5   18 1
     6    6   11 2
     7    7   23 1
     8    8   10 1
     9    9   13 ar
    10   10   14 ar
    11   11   16 1
    12   12    8 1
    13   13   24 1
    14   14    4 1
    15   15   19 ar
    16   16   19 1
    17   17   18 ar
    18   18   23 ar
    19   19   21 ar
    20   20    2 1
    21   21   10 ar
    22   22   14 ar
    23   23    9 ar
    24   24   26 1
    25   25    5 1
    26   26   11 1
    27   27    3 1
    28   28   13 ar
    29   29   15 1
    30   30   21 1
    31   31   26 1
    32   32   24 1
    33   33   27 1
    34   34    9 1
    35   35   27 1
    36   36   25 1
    37   37   17 1
    38   38   12 1
    39   39   20 1
    40   40   20 1
    41   41   25 1
    42   42   12 1
    43   43   28 1
    44   44   22 1
    45   45    1 1
    46    7   25 1
    47   15   22 ar
    48   16   27 1
    49   17   28 ar
    50   20   26 1
@<TRIPOS>SUBSTRUCTURE
     1 RES1 1

@<TRIPOS>CRYSIN
   5.9627   10.4827   25.8598  90.0000  90.0000  90.0000  19 1

