# MOL2 file generated by ConQuest
# Please check atom types

@<TRIPOS>MOLECULE
LERZIT
    29    30     1
SMALL
NO_CHARGES
****
Generated from CSD

@<TRIPOS>ATOM
      1 O1         2.2800    1.5375    1.6159 O.3       1 RES1    0.0000
      2 C1         4.5682    1.2259    0.9966 C.ar      1 RES1    0.0000
      3 C2         3.1163    2.5633   -0.4204 C.2       1 RES1    0.0000
      4 C3         5.8014    0.6545    1.2992 C.ar      1 RES1    0.0000
      5 H1         6.5360    0.7909    0.7455 H         1 RES1    0.0000
      6 C4         4.3259    2.0495   -0.1567 C.2       1 RES1    0.0000
      7 H2         5.0298    2.2321   -0.7367 H         1 RES1    0.0000
      8 C5         3.5020    0.9929    1.8598 C.ar      1 RES1    0.0000
      9 O2         4.0283    3.6768   -2.2570 O.3       1 RES1    0.0000
     10 H3         3.8670    4.1669   -2.8943 H         1 RES1    0.0000
     11 O3         2.6295    4.9381   -3.9159 O.2       1 RES1    0.0000
     12 C6         1.6945    3.8103   -2.0943 C.2       1 RES1    0.0000
     13 H4         0.9196    3.6046   -1.6233 H         1 RES1    0.0000
     14 C7         5.9067   -0.1120    2.4272 C.ar      1 RES1    0.0000
     15 C8         3.6270    0.2071    2.9936 C.ar      1 RES1    0.0000
     16 H5         2.8966    0.0620    3.5502 H         1 RES1    0.0000
     17 O4         0.8831    2.7249    0.4355 O.2       1 RES1    0.0000
     18 C9         2.8996    3.3874   -1.6262 C.2       1 RES1    0.0000
     19 N1         7.2075   -0.7154    2.7503 N.pl3     1 RES1    0.0000
     20 C10        4.8446   -0.3531    3.2826 C.ar      1 RES1    0.0000
     21 H6         4.9550   -0.8843    4.0378 H         1 RES1    0.0000
     22 C11        2.0037    2.3226    0.5090 C.2       1 RES1    0.0000
     23 O5         7.4029   -1.0667    3.8908 O.2       1 RES1    0.0000
     24 O6         8.0159   -0.8580    1.8559 O.2       1 RES1    0.0000
     25 C12        0.2507    4.9417   -3.8334 C.3       1 RES1    0.0000
     26 H7         0.3358    5.2687   -4.7327 H         1 RES1    0.0000
     27 H8        -0.1302    5.6272   -3.2787 H         1 RES1    0.0000
     28 H9        -0.3200    4.1699   -3.8266 H         1 RES1    0.0000
     29 C13        1.6069    4.5673   -3.3060 C.2       1 RES1    0.0000
@<TRIPOS>BOND
     1    1    8 1
     2    2    4 ar
     3    3    6 2
     4    4    5 1
     5    6    2 1
     6    7    6 1
     7    8    2 ar
     8    9   10 1
     9   11   29 2
    10   12   13 1
    11   14    4 ar
    12   15    8 ar
    13   16   15 1
    14   17   22 2
    15   18    3 1
    16   19   14 1
    17   20   14 ar
    18   21   20 1
    19   22    1 1
    20   23   19 2
    21   24   19 2
    22   25   26 1
    23   27   25 1
    24   28   25 1
    25   29   12 1
    26    3   22 1
    27    9   18 1
    28   12   18 2
    29   15   20 ar
    30   25   29 1
@<TRIPOS>SUBSTRUCTURE
     1 RES1 1

@<TRIPOS>CRYSIN
   7.4591    8.2178   10.0087  85.2020  77.3460  89.2780   2 1

