# MOL2 file generated by ConQuest
# Please check atom types

@<TRIPOS>MOLECULE
LESGIB
    45    48     1
SMALL
NO_CHARGES
****
Generated from CSD

@<TRIPOS>ATOM
      1 C1         0.2334    5.5673   15.2968 C.ar      1 RES1    0.0000
      2 H1         0.2721    5.4441   14.3748 H         1 RES1    0.0000
      3 C2         1.3582    5.4040   16.0636 C.ar      1 RES1    0.0000
      4 H2         2.1594    5.1614   15.6573 H         1 RES1    0.0000
      5 C3         1.3165    5.5975   17.4386 C.ar      1 RES1    0.0000
      6 H3         2.0931    5.4955   17.9392 H         1 RES1    0.0000
      7 C4         0.1347    5.9393   18.0723 C.ar      1 RES1    0.0000
      8 C5        -1.0315    6.0783   17.2970 C.ar      1 RES1    0.0000
      9 C6        -3.4218    6.1826   17.2678 C.3       1 RES1    0.0000
     10 H4        -4.1562    6.5636   17.7733 H         1 RES1    0.0000
     11 H5        -3.5834    5.2317   17.1654 H         1 RES1    0.0000
     12 C7        -3.3361    6.8493   15.8891 C.3       1 RES1    0.0000
     13 C8        -4.4873    6.6155   14.8788 C.3       1 RES1    0.0000
     14 H6        -4.8224    7.4896   14.5895 H         1 RES1    0.0000
     15 C9        -2.2069    6.1575   15.1842 C.2       1 RES1    0.0000
     16 C10       -0.9713    5.9192   15.9126 C.ar      1 RES1    0.0000
     17 C11        1.1298    6.0337   20.2398 C.3       1 RES1    0.0000
     18 H7         1.8038    6.6815   19.9793 H         1 RES1    0.0000
     19 H8         1.5103    5.1447   20.1615 H         1 RES1    0.0000
     20 C12        0.6802    6.2869   21.6479 C.3       1 RES1    0.0000
     21 H9         0.2503    7.1441   21.6984 H         1 RES1    0.0000
     22 H10        1.4410    6.2756   22.2342 H         1 RES1    0.0000
     23 H11        0.0612    5.6036   21.9149 H         1 RES1    0.0000
     24 C13       -3.1500    8.3490   16.1108 C.2       1 RES1    0.0000
     25 C14       -1.7319   10.1972   15.8725 C.3       1 RES1    0.0000
     26 H12       -2.4924   10.6682   15.5239 H         1 RES1    0.0000
     27 H13       -0.9486   10.4429   15.3759 H         1 RES1    0.0000
     28 H14       -1.6102   10.4255   16.7974 H         1 RES1    0.0000
     29 C15       -5.6576    5.7957   15.3511 C.ar      1 RES1    0.0000
     30 C16       -6.7665    6.4509   15.8559 C.ar      1 RES1    0.0000
     31 H15       -6.7833    7.3807   15.8774 H         1 RES1    0.0000
     32 C17       -7.8499    5.7358   16.3289 C.ar      1 RES1    0.0000
     33 H16       -8.5879    6.1833   16.6747 H         1 RES1    0.0000
     34 C18       -7.8369    4.3654   16.2881 C.ar      1 RES1    0.0000
     35 H17       -8.5696    3.8846   16.5989 H         1 RES1    0.0000
     36 C19       -6.7419    3.7017   15.7885 C.ar      1 RES1    0.0000
     37 H18       -6.7343    2.7719   15.7656 H         1 RES1    0.0000
     38 C20       -5.6506    4.4115   15.3200 C.ar      1 RES1    0.0000
     39 H19       -4.9121    3.9579   14.9845 H         1 RES1    0.0000
     40 N1        -2.4945    5.6718   14.0389 N.2       1 RES1    0.0000
     41 O1        -2.1804    6.3976   17.9684 O.3       1 RES1    0.0000
     42 O2        -3.8341    5.9749   13.7372 O.3       1 RES1    0.0000
     43 O3        -0.0232    6.1545   19.4059 O.3       1 RES1    0.0000
     44 O4        -4.0198    9.0402   16.5506 O.2       1 RES1    0.0000
     45 O5        -1.9510    8.7737   15.7529 O.3       1 RES1    0.0000
@<TRIPOS>BOND
     1    1    2 1
     2    3    1 ar
     3    4    3 1
     4    5    3 ar
     5    6    5 1
     6    7    5 ar
     7    8    7 ar
     8    9   10 1
     9   11    9 1
    10   12    9 1
    11   13   12 1
    12   14   13 1
    13   15   12 1
    14   16    1 ar
    15   17   18 1
    16   19   17 1
    17   20   17 1
    18   21   20 1
    19   22   20 1
    20   23   20 1
    21   24   12 1
    22   25   26 1
    23   27   25 1
    24   28   25 1
    25   29   13 1
    26   30   29 ar
    27   31   30 1
    28   32   30 ar
    29   33   32 1
    30   34   32 ar
    31   35   34 1
    32   36   34 ar
    33   37   36 1
    34   38   29 ar
    35   39   38 1
    36   40   15 2
    37   41    8 1
    38   42   13 1
    39   43    7 1
    40   44   24 2
    41   45   24 1
    42    8   16 ar
    43    9   41 1
    44   15   16 1
    45   17   43 1
    46   25   45 1
    47   36   38 ar
    48   40   42 1
@<TRIPOS>SUBSTRUCTURE
     1 RES1 1

@<TRIPOS>CRYSIN
  12.9342    7.5591   18.7138  90.0000 105.4400  90.0000  14 1

