# MOL2 file generated by ConQuest
# Please check atom types

@<TRIPOS>MOLECULE
LESGOH
    36    39     1
SMALL
NO_CHARGES
****
Generated from CSD

@<TRIPOS>ATOM
      1 C1        16.5411   -3.1723    4.7052 C.ar      1 RES1    0.0000
      2 C2        16.4831   -4.5498    4.7204 C.ar      1 RES1    0.0000
      3 H1        16.6957   -5.0341    3.9558 H         1 RES1    0.0000
      4 C3        16.1102   -5.2035    5.8649 C.ar      1 RES1    0.0000
      5 H2        16.0618   -6.1322    5.8725 H         1 RES1    0.0000
      6 C4        15.8029   -4.4818    7.0232 C.ar      1 RES1    0.0000
      7 H3        15.5632   -4.9316    7.8010 H         1 RES1    0.0000
      8 C5        15.8551   -3.1357    7.0143 C.ar      1 RES1    0.0000
      9 H4        15.6405   -2.6643    7.7872 H         1 RES1    0.0000
     10 C6        16.2280   -2.4313    5.8559 C.ar      1 RES1    0.0000
     11 C7        16.3488   -1.0042    5.7958 C.2       1 RES1    0.0000
     12 C8        16.4696    1.0398    4.7031 C.3       1 RES1    0.0000
     13 H5        15.6405    1.0927    4.1844 H         1 RES1    0.0000
     14 C9        17.0305   -0.3862    4.5822 C.3       1 RES1    0.0000
     15 C10       16.6242   -1.1908    3.3680 C.3       1 RES1    0.0000
     16 H6        15.6715   -1.0862    3.2181 H         1 RES1    0.0000
     17 H7        17.0880   -0.8511    2.5874 H         1 RES1    0.0000
     18 C11       17.3567    2.1757    4.2963 C.ar      1 RES1    0.0000
     19 C12       18.4041    2.5553    5.1479 C.ar      1 RES1    0.0000
     20 H8        18.4988    2.1444    5.9768 H         1 RES1    0.0000
     21 C13       19.2951    3.5315    4.7660 C.ar      1 RES1    0.0000
     22 H9        19.9773    3.7969    5.3413 H         1 RES1    0.0000
     23 C14       19.1695    4.1172    3.5192 C.ar      1 RES1    0.0000
     24 H10       19.7879    4.7526    3.2367 H         1 RES1    0.0000
     25 C15       18.1336    3.7570    2.7056 C.ar      1 RES1    0.0000
     26 H11       18.0524    4.1690    1.8760 H         1 RES1    0.0000
     27 C16       17.2021    2.8045    3.0682 C.ar      1 RES1    0.0000
     28 C17       16.0850    2.4626    2.1357 C.3       1 RES1    0.0000
     29 H12       15.2443    2.6158    2.5736 H         1 RES1    0.0000
     30 H13       16.1507    1.5382    1.8829 H         1 RES1    0.0000
     31 H14       16.1430    3.0127    1.3517 H         1 RES1    0.0000
     32 C18       18.5046   -0.4638    4.7653 C.1       1 RES1    0.0000
     33 N1        15.8595   -0.1521    6.6012 N.2       1 RES1    0.0000
     34 N2        19.6283   -0.5221    4.8806 N.1       1 RES1    0.0000
     35 O1        16.9224   -2.5532    3.5310 O.3       1 RES1    0.0000
     36 O2        16.1361    1.1455    6.1219 O.3       1 RES1    0.0000
@<TRIPOS>BOND
     1    1    2 ar
     2    2    3 1
     3    4    2 ar
     4    5    4 1
     5    6    4 ar
     6    7    6 1
     7    8    6 ar
     8    9    8 1
     9   10    1 ar
    10   11   10 1
    11   12   13 1
    12   14   11 1
    13   15   14 1
    14   16   15 1
    15   17   15 1
    16   18   12 1
    17   19   18 ar
    18   20   19 1
    19   21   19 ar
    20   22   21 1
    21   23   21 ar
    22   24   23 1
    23   25   23 ar
    24   26   25 1
    25   27   18 ar
    26   28   27 1
    27   29   28 1
    28   30   28 1
    29   31   28 1
    30   32   14 1
    31   33   11 2
    32   34   32 3
    33   35    1 1
    34   36   12 1
    35    8   10 ar
    36   12   14 1
    37   15   35 1
    38   25   27 ar
    39   33   36 1
@<TRIPOS>SUBSTRUCTURE
     1 RES1 1

@<TRIPOS>CRYSIN
  19.3260   10.7866    6.9072  90.0000  90.0000  90.0000  29 1

