# MOL2 file generated by ConQuest
# Please check atom types

@<TRIPOS>MOLECULE
LESTUA
    38    40     1
SMALL
NO_CHARGES
****
Generated from CSD

@<TRIPOS>ATOM
      1 C1         2.0690    2.8606    0.6350 C.2       1 RES1    0.0000
      2 C2         1.9352    4.2027    1.1905 C.2       1 RES1    0.0000
      3 C3         1.6786    5.2750    0.2262 C.ar      1 RES1    0.0000
      4 C4         1.6408    6.6162    0.6189 C.ar      1 RES1    0.0000
      5 H1         1.7489    6.8375    1.5148 H         1 RES1    0.0000
      6 C5         1.4469    7.6031   -0.3069 C.ar      1 RES1    0.0000
      7 H2         1.4505    8.4954   -0.0435 H         1 RES1    0.0000
      8 C6         1.2455    7.2726   -1.6416 C.ar      1 RES1    0.0000
      9 H3         1.1031    7.9474   -2.2654 H         1 RES1    0.0000
     10 C7         1.2542    5.9562   -2.0517 C.ar      1 RES1    0.0000
     11 H4         1.1105    5.7377   -2.9439 H         1 RES1    0.0000
     12 C8         1.4787    4.9620   -1.1097 C.ar      1 RES1    0.0000
     13 C9         1.8118    2.5916   -0.7903 C.2       1 RES1    0.0000
     14 C10        3.2466    0.8409    3.2769 C.2       1 RES1    0.0000
     15 C11        3.7474   -0.3681    2.7699 C.2       1 RES1    0.0000
     16 H5         3.7604   -0.6601    1.8876 H         1 RES1    0.0000
     17 C12        4.2082   -1.0108    3.8722 C.2       1 RES1    0.0000
     18 C13        4.8926   -2.3272    4.1220 C.3       1 RES1    0.0000
     19 C14        6.1750   -2.0821    4.9210 C.3       1 RES1    0.0000
     20 H6         6.7512   -1.4936    4.4277 H         1 RES1    0.0000
     21 H7         6.6229   -2.9175    5.0701 H         1 RES1    0.0000
     22 H8         5.9557   -1.6809    5.7648 H         1 RES1    0.0000
     23 C15        3.9439   -3.2250    4.9222 C.3       1 RES1    0.0000
     24 H9         3.7047   -2.7871    5.7424 H         1 RES1    0.0000
     25 H10        4.3803   -4.0568    5.1186 H         1 RES1    0.0000
     26 H11        3.1516   -3.3930    4.4065 H         1 RES1    0.0000
     27 C16        5.2181   -2.9799    2.7774 C.3       1 RES1    0.0000
     28 H12        4.4108   -3.0873    2.2704 H         1 RES1    0.0000
     29 H13        5.6174   -3.8401    2.9277 H         1 RES1    0.0000
     30 H14        5.8305   -2.4236    2.2915 H         1 RES1    0.0000
     31 N1         2.4769    1.7993    1.3022 N.2       1 RES1    0.0000
     32 N2         2.6807    1.9205    2.5830 N.pl3     1 RES1    0.0000
     33 N3         3.3668    0.9621    4.5644 N.2       1 RES1    0.0000
     34 O1         1.4663    3.6629   -1.5767 O.3       1 RES1    0.0000
     35 O2         2.0821    4.4249    2.3930 O.2       1 RES1    0.0000
     36 O3         3.9915   -0.2369    4.9570 O.3       1 RES1    0.0000
     37 O4         1.8490    1.5248   -1.3249 O.2       1 RES1    0.0000
     38 H15        2.5549    2.7174    2.9576 H         1 RES1    0.0000
@<TRIPOS>BOND
     1    1    2 1
     2    2    3 1
     3    3    4 ar
     4    4    5 1
     5    6    4 ar
     6    7    6 1
     7    8    6 ar
     8    9    8 1
     9   10    8 ar
    10   11   10 1
    11   12    3 ar
    12   13    1 1
    13   14   15 1
    14   15   16 1
    15   17   15 2
    16   18   17 1
    17   19   18 1
    18   20   19 1
    19   21   19 1
    20   22   19 1
    21   23   18 1
    22   24   23 1
    23   25   23 1
    24   26   23 1
    25   27   18 1
    26   28   27 1
    27   29   27 1
    28   30   27 1
    29   31    1 2
    30   32   14 1
    31   33   14 2
    32   34   12 1
    33   35    2 2
    34   36   17 1
    35   37   13 2
    36   38   32 1
    37   10   12 ar
    38   13   34 1
    39   31   32 1
    40   33   36 1
@<TRIPOS>SUBSTRUCTURE
     1 RES1 1

@<TRIPOS>CRYSIN
  13.4310    9.1803   12.6380  90.0000 100.4900  90.0000  14 1

