# MOL2 file generated by ConQuest
# Please check atom types

@<TRIPOS>MOLECULE
LESVIQ
    47    50     1
SMALL
NO_CHARGES
****
Generated from CSD

@<TRIPOS>ATOM
      1 C1         8.2370    1.6877   13.4548 C.3       1 RES1    0.0000
      2 H1         8.9349    2.3361   13.5767 H         1 RES1    0.0000
      3 H2         8.6081    0.8038   13.5108 H         1 RES1    0.0000
      4 H3         7.5727    1.8007   14.1379 H         1 RES1    0.0000
      5 C2         8.3438    2.7123   11.2100 C.3       1 RES1    0.0000
      6 H4         9.1482    3.0400   11.6194 H         1 RES1    0.0000
      7 H5         7.7894    3.4545   10.9562 H         1 RES1    0.0000
      8 H6         8.5686    2.2000   10.4299 H         1 RES1    0.0000
      9 C3         6.4794    1.2357   11.7930 C.ar      1 RES1    0.0000
     10 C4         5.8071    0.3703   12.6796 C.ar      1 RES1    0.0000
     11 H7         6.1538    0.2246   13.5307 H         1 RES1    0.0000
     12 C5         5.9085    1.4145   10.5132 C.ar      1 RES1    0.0000
     13 H8         6.3257    1.9796    9.9023 H         1 RES1    0.0000
     14 C6         4.6477   -0.2602   12.3026 C.ar      1 RES1    0.0000
     15 H9         4.2214   -0.8231   12.9073 H         1 RES1    0.0000
     16 C7         4.7566    0.7759   10.1549 C.ar      1 RES1    0.0000
     17 H10        4.4041    0.9112    9.3050 H         1 RES1    0.0000
     18 C8         4.0957   -0.0782   11.0421 C.ar      1 RES1    0.0000
     19 C9         1.2523   -1.2915    9.3149 C.ar      1 RES1    0.0000
     20 C10        0.4855   -1.9532   10.2681 C.ar      1 RES1    0.0000
     21 H11        0.7438   -1.9453   11.1615 H         1 RES1    0.0000
     22 C11        0.8320   -1.2683    7.9910 C.ar      1 RES1    0.0000
     23 H12        1.3208   -0.7943    7.3564 H         1 RES1    0.0000
     24 C12       -0.6562   -2.6206    9.8873 C.ar      1 RES1    0.0000
     25 H13       -1.1652   -3.0634   10.5257 H         1 RES1    0.0000
     26 C13       -0.3027   -1.9411    7.6152 C.ar      1 RES1    0.0000
     27 H14       -0.5710   -1.9325    6.7243 H         1 RES1    0.0000
     28 C14       -1.0560   -2.6378    8.5547 C.ar      1 RES1    0.0000
     29 C15       -2.1909   -3.4163    8.0619 C.2       1 RES1    0.0000
     30 C16       -4.7231   -6.8498    8.0360 C.ar      1 RES1    0.0000
     31 C17       -3.4316   -6.3670    8.1926 C.ar      1 RES1    0.0000
     32 C18       -4.9231   -8.1365    7.5244 C.ar      1 RES1    0.0000
     33 H15       -5.7788   -8.4829    7.4111 H         1 RES1    0.0000
     34 C19       -2.2965   -7.0878    7.8603 C.ar      1 RES1    0.0000
     35 H16       -1.4391   -6.7442    7.9698 H         1 RES1    0.0000
     36 C20       -3.8182   -8.8616    7.1971 C.ar      1 RES1    0.0000
     37 H17       -3.9225   -9.7211    6.8587 H         1 RES1    0.0000
     38 C21       -2.5231   -8.3412    7.3589 C.ar      1 RES1    0.0000
     39 H18       -1.7949   -8.8673    7.1175 H         1 RES1    0.0000
     40 N1         7.6283    1.8737   12.1527 N.pl3     1 RES1    0.0000
     41 N2         2.9088   -0.7716   10.7576 N.2       1 RES1    0.0000
     42 N3         2.4639   -0.5926    9.5851 N.2       1 RES1    0.0000
     43 N4        -3.6649   -5.1174    8.6607 N.3       1 RES1    0.0000
     44 N5        -4.9637   -4.8306    8.8114 N.2       1 RES1    0.0000
     45 N6        -5.6299   -5.8868    8.4295 N.2       1 RES1    0.0000
     46 O1        -2.6520   -3.4601    6.9643 O.2       1 RES1    0.0000
     47 O2        -2.7139   -4.2220    9.1030 O.3       1 RES1    0.0000
@<TRIPOS>BOND
     1    1    2 1
     2    3    1 1
     3    4    1 1
     4    5    6 1
     5    7    5 1
     6    8    5 1
     7    9   10 ar
     8   10   11 1
     9   12    9 ar
    10   13   12 1
    11   14   10 ar
    12   15   14 1
    13   16   12 ar
    14   17   16 1
    15   18   14 ar
    16   19   20 ar
    17   20   21 1
    18   22   19 ar
    19   23   22 1
    20   24   20 ar
    21   25   24 1
    22   26   22 ar
    23   27   26 1
    24   28   24 ar
    25   29   28 1
    26   30   31 ar
    27   31   34 ar
    28   32   30 ar
    29   33   32 1
    30   34   35 1
    31   36   32 ar
    32   37   36 1
    33   38   34 ar
    34   39   38 1
    35   40    1 1
    36   41   18 1
    37   42   19 1
    38   43   31 1
    39   44   43 1
    40   45   30 1
    41   46   29 2
    42   47   29 1
    43    5   40 1
    44    9   40 1
    45   16   18 ar
    46   26   28 ar
    47   36   38 ar
    48   41   42 2
    49   43   47 1
    50   44   45 2
@<TRIPOS>SUBSTRUCTURE
     1 RES1 1

@<TRIPOS>CRYSIN
   6.6362   11.3840   13.0220  99.6400 103.6100  92.4400   2 1

