# MOL2 file generated by ConQuest
# Please check atom types

@<TRIPOS>MOLECULE
LETNAZ01
    17    16     2
SMALL
NO_CHARGES
****
Generated from CSD

@<TRIPOS>ATOM
      1 N1         2.7156    4.7035    0.0000 N.pl3     1 RES1    0.0000
      2 C1         2.0081    3.4782    0.0000 C.2       1 RES1    0.0000
      3 O1         3.8556    4.7192    0.4466 O.2       1 RES1    0.0000
      4 N2         1.4969    1.3857    0.3217 N.2       1 RES1    0.0000
      5 C2         2.4635    2.2675    0.5333 C.2       1 RES1    0.0000
      6 C3         3.7395    1.8878    1.1962 C.3       1 RES1    0.0000
      7 H1         3.6561    1.0021    1.6299 H         1 RES1    0.0000
      8 H2         3.9651    2.5351    1.8944 H         1 RES1    0.0000
      9 H3         4.5110    1.8667    0.5757 H         1 RES1    0.0000
     10 H4         1.4710    0.5011    0.3812 Du        2 SUP2    0.0000
     11 O1C        2.1592    5.6986   -0.4466 O.2       1 RES1    0.0000
     12 N2C        0.4516    1.9892   -0.3217 N.pl3     1 RES1    0.0000
     13 C2C        0.7320    3.2672   -0.5333 C.2       1 RES1    0.0000
     14 C3C       -0.2349    4.1824   -1.1962 C.3       1 RES1    0.0000
     15 H1C       -0.9602    3.6673   -1.6299 H         1 RES1    0.0000
     16 H2C        0.2130    4.7014   -1.8944 H         1 RES1    0.0000
     17 H3C       -0.6389    4.8400   -0.5757 H         1 RES1    0.0000
@<TRIPOS>BOND
     1    1    2 1
     2    2    5 1
     3    3    1 2
     4    4    5 2
     5    5    6 1
     6    6    7 1
     7    8    6 1
     8    9    6 1
     9   11    1 2
    10   12    4 1
    11   13    2 2
    12   14   13 1
    13   15   14 1
    14   16   14 1
    15   17   14 1
    16   12   13 1
@<TRIPOS>SUBSTRUCTURE
     1 RES1 1
     2 SUP2 10

@<TRIPOS>CRYSIN
  12.3100   12.3100    3.8900  90.0000  90.0000 120.0000 154 1

