# MOL2 file generated by ConQuest
# Please check atom types

@<TRIPOS>MOLECULE
LETNAZ02
    17    16     2
SMALL
NO_CHARGES
****
Generated from CSD

@<TRIPOS>ATOM
      1 C1        -2.0107    3.4826    0.6818 C.2       1 RES1    0.0000
      2 N1        -2.7187    4.7089    0.6818 N.pl3     1 RES1    0.0000
      3 O1        -2.2094    5.6840    0.1828 O.2       1 RES1    0.0000
      4 N2        -0.4663    1.9916    0.3407 N.pl3     1 RES1    0.0000
      5 C2        -0.7507    3.2641    0.1170 C.2       1 RES1    0.0000
      6 C3         0.1989    4.1563   -0.5935 C.3       1 RES1    0.0000
      7 H1        -0.3366    4.6535   -1.3129 H         1 RES1    0.0000
      8 H2         0.8996    3.5935   -0.9203 H         1 RES1    0.0000
      9 H3         0.5263    4.8549   -0.1023 H         1 RES1    0.0000
     10 H4         0.1652    1.5582    0.2372 Du        2 SUP2    0.0000
     11 O1E       -3.8178    4.7554    1.1805 O.2       1 RES1    0.0000
     12 N2E       -1.4916    1.3996    1.0226 N.2       1 RES1    0.0000
     13 C2E       -2.4514    2.2822    1.2464 C.2       1 RES1    0.0000
     14 C3E       -3.6989    1.9059    1.9568 C.3       1 RES1    0.0000
     15 H1E       -3.8617    2.6182    2.6762 H         1 RES1    0.0000
     16 H2E       -3.5618    1.0176    2.2836 H         1 RES1    0.0000
     17 H3E       -4.4676    1.9716    1.4656 H         1 RES1    0.0000
@<TRIPOS>BOND
     1    1    2 1
     2    2    3 2
     3    4    5 1
     4    5    1 2
     5    6    5 1
     6    7    6 1
     7    8    6 1
     8    9    6 1
     9   11    2 2
    10   12    4 1
    11   13    1 1
    12   14   13 1
    13   15   14 1
    14   16   14 1
    15   17   14 1
    16   12   13 2
@<TRIPOS>SUBSTRUCTURE
     1 RES1 1
     2 SUP2 10

@<TRIPOS>CRYSIN
  12.2400   12.2400    4.0900  90.0000  90.0000 120.0000 152 1

