# MOL2 file generated by ConQuest
# Please check atom types

@<TRIPOS>MOLECULE
LETPEF
    50    52     1
SMALL
NO_CHARGES
****
Generated from CSD

@<TRIPOS>ATOM
      1 C1         2.9704    7.7246    2.0469 C.3       1 RES1    0.0000
      2 C2         4.0574    6.7689    2.5048 C.3       1 RES1    0.0000
      3 N1         5.2611    7.3512    3.0998 N.3       1 RES1    0.0000
      4 C3         5.9225    8.3113    2.2206 C.3       1 RES1    0.0000
      5 O1         4.8360    8.1422    4.2488 O.3       1 RES1    0.0000
      6 C4         5.0060    7.4077    5.4539 C.3       1 RES1    0.0000
      7 C5         3.7208    7.6183    6.2906 C.3       1 RES1    0.0000
      8 C6         2.5630    7.0998    5.5050 C.2       1 RES1    0.0000
      9 C7         1.8654    7.8335    4.6913 C.2       1 RES1    0.0000
     10 C8         0.9992    7.3135    3.5832 C.ar      1 RES1    0.0000
     11 C9        -0.3309    6.9832    3.7900 C.ar      1 RES1    0.0000
     12 C10       -1.1283    6.5745    2.7499 C.ar      1 RES1    0.0000
     13 O2        -2.4649    6.3000    2.8410 O.3       1 RES1    0.0000
     14 C11       -3.1024    6.5588    4.1015 C.3       1 RES1    0.0000
     15 C12       -0.5739    6.4557    1.4809 C.ar      1 RES1    0.0000
     16 O3        -1.4322    5.9898    0.5098 O.3       1 RES1    0.0000
     17 C13       -0.9006    5.8539   -0.8077 C.3       1 RES1    0.0000
     18 C14        0.7400    6.7832    1.2733 C.ar      1 RES1    0.0000
     19 C15        1.5450    7.2551    2.3057 C.ar      1 RES1    0.0000
     20 C16        6.2546    7.8788    6.1910 C.ar      1 RES1    0.0000
     21 C17        6.7022    9.1506    6.1076 C.ar      1 RES1    0.0000
     22 C18        7.8677    9.5555    6.7783 C.ar      1 RES1    0.0000
     23 C19        8.5498    8.6334    7.5375 C.ar      1 RES1    0.0000
     24 C20        8.0978    7.3651    7.6336 C.ar      1 RES1    0.0000
     25 C21        6.9398    6.9748    6.9630 C.ar      1 RES1    0.0000
     26 H1         3.1087    7.8945    1.1745 H         1 RES1    0.0000
     27 H2         3.1800    8.6414    2.5108 H         1 RES1    0.0000
     28 H3         4.3554    6.1400    1.7959 H         1 RES1    0.0000
     29 H4         3.6829    6.0447    3.1406 H         1 RES1    0.0000
     30 H5         5.3018    9.1995    2.0682 H         1 RES1    0.0000
     31 H6         6.1523    7.6476    1.5405 H         1 RES1    0.0000
     32 H7         6.6201    8.8178    2.6725 H         1 RES1    0.0000
     33 H8         5.0706    6.3263    5.2173 H         1 RES1    0.0000
     34 H9         3.6892    8.6364    6.5195 H         1 RES1    0.0000
     35 H10        3.8288    7.1239    7.0983 H         1 RES1    0.0000
     36 H11        2.3959    6.0831    5.3961 H         1 RES1    0.0000
     37 H12        2.0490    8.7564    4.6471 H         1 RES1    0.0000
     38 H13       -0.6994    7.1728    4.6641 H         1 RES1    0.0000
     39 H14       -2.8539    7.5270    4.3492 H         1 RES1    0.0000
     40 H15       -4.0814    6.3397    3.9492 H         1 RES1    0.0000
     41 H16       -2.8787    5.8022    4.6981 H         1 RES1    0.0000
     42 H17       -0.6280    6.8920   -1.1660 H         1 RES1    0.0000
     43 H18       -1.6805    5.4577   -1.3448 H         1 RES1    0.0000
     44 H19       -0.1544    5.3073   -0.8681 H         1 RES1    0.0000
     45 H20        1.1324    6.6888    0.4851 H         1 RES1    0.0000
     46 H21        6.2509    9.8360    5.6429 H         1 RES1    0.0000
     47 H22        8.1045   10.5769    6.7153 H         1 RES1    0.0000
     48 H23        9.3792    9.0134    7.9749 H         1 RES1    0.0000
     49 H24        8.5492    6.7196    8.1026 H         1 RES1    0.0000
     50 H25        6.6368    5.9916    6.9876 H         1 RES1    0.0000
@<TRIPOS>BOND
     1    1    2 1
     2    2    3 1
     3    3    4 1
     4    4   30 1
     5    5    3 1
     6    6    5 1
     7    7    6 1
     8    8    7 1
     9    9    8 2
    10   10    9 1
    11   11   10 ar
    12   12   11 ar
    13   13   12 1
    14   14   13 1
    15   15   12 ar
    16   16   15 1
    17   17   16 1
    18   18   15 ar
    19   19    1 1
    20   20    6 1
    21   21   20 ar
    22   22   21 ar
    23   23   22 ar
    24   24   23 ar
    25   25   20 ar
    26   26    1 1
    27   27    1 1
    28   28    2 1
    29   29    2 1
    30   31    4 1
    31   32    4 1
    32   33    6 1
    33   34    7 1
    34   35    7 1
    35   36    8 1
    36   37    9 1
    37   38   11 1
    38   39   14 1
    39   40   14 1
    40   41   14 1
    41   42   17 1
    42   43   17 1
    43   44   17 1
    44   45   18 1
    45   46   21 1
    46   47   22 1
    47   48   23 1
    48   49   24 1
    49   50   25 1
    50   10   19 ar
    51   18   19 ar
    52   24   25 ar
@<TRIPOS>SUBSTRUCTURE
     1 RES1 1

@<TRIPOS>CRYSIN
  11.9170    9.4740    8.6150  81.7100  84.7800  75.3600   2 1

