# MOL2 file generated by ConQuest
# Please check atom types

@<TRIPOS>MOLECULE
LEVSEK
    39    42     1
SMALL
NO_CHARGES
****
Generated from CSD

@<TRIPOS>ATOM
      1 O1        12.6994    1.4979    5.2064 O.2       1 RES1    0.0000
      2 N1        15.0039   -1.8621    6.0369 N.2       1 RES1    0.0000
      3 N2        13.3089   -0.4493    6.9411 N.3       1 RES1    0.0000
      4 N3        13.5278    0.9310    4.3888 N.pl3     1 RES1    0.0000
      5 C1        14.1712   -0.8548    5.9843 C.2       1 RES1    0.0000
      6 C2        14.2297   -0.1419    4.6894 C.2       1 RES1    0.0000
      7 C3        15.2370   -0.8524    3.9115 C.ar      1 RES1    0.0000
      8 C4        15.8093   -0.7121    2.6541 C.ar      1 RES1    0.0000
      9 C5        16.8275   -1.5839    2.2926 C.ar      1 RES1    0.0000
     10 C6        17.2587   -2.5676    3.1629 C.ar      1 RES1    0.0000
     11 C7        16.6826   -2.7314    4.4122 C.ar      1 RES1    0.0000
     12 C8        15.6722   -1.8702    4.7888 C.ar      1 RES1    0.0000
     13 C9        13.6529    1.5887    3.0974 C.ar      1 RES1    0.0000
     14 C10       14.3819    2.7477    3.0436 C.ar      1 RES1    0.0000
     15 C11       14.4968    3.4005    1.8329 C.ar      1 RES1    0.0000
     16 C12       13.8799    2.8904    0.7182 C.ar      1 RES1    0.0000
     17 C13       13.1260    1.7461    0.8036 C.ar      1 RES1    0.0000
     18 C14       13.0058    1.0738    2.0049 C.ar      1 RES1    0.0000
     19 C15       13.0764   -0.9854    8.2196 C.ar      1 RES1    0.0000
     20 C16       13.9221   -1.8945    8.8325 C.ar      1 RES1    0.0000
     21 C17       13.6677   -2.2968   10.1344 C.ar      1 RES1    0.0000
     22 C18       12.5610   -1.8410   10.8105 C.ar      1 RES1    0.0000
     23 C19       11.6858   -0.9813   10.1812 C.ar      1 RES1    0.0000
     24 C20       11.9461   -0.5377    8.8969 C.ar      1 RES1    0.0000
     25 H1        15.5175   -0.0162    2.0236 H         1 RES1    0.0000
     26 H2        17.2545   -1.4760    1.4154 H         1 RES1    0.0000
     27 H3        17.9781   -3.2035    2.8892 H         1 RES1    0.0000
     28 H4        16.9729   -3.3981    5.0298 H         1 RES1    0.0000
     29 H5        12.8502    0.2920    6.6557 H         1 RES1    0.0000
     30 H6        14.7908    3.0737    3.8718 H         1 RES1    0.0000
     31 H7        15.0008    4.2902    1.7663 H         1 RES1    0.0000
     32 H8        13.9765    3.3494   -0.1755 H         1 RES1    0.0000
     33 H9        12.6814    1.3868    0.0585 H         1 RES1    0.0000
     34 H10       12.4985    0.2514    2.0938 H         1 RES1    0.0000
     35 H11       14.7024   -2.2059    8.3401 H         1 RES1    0.0000
     36 H12       14.3087   -3.0007   10.5508 H         1 RES1    0.0000
     37 H13       12.3358   -2.1005   11.7322 H         1 RES1    0.0000
     38 H14       10.8644   -0.6407   10.6561 H         1 RES1    0.0000
     39 H15       11.3421    0.1379    8.4453 H         1 RES1    0.0000
@<TRIPOS>BOND
     1    1    4 1
     2    2    5 2
     3    3    5 1
     4    4    6 2
     5    5    6 1
     6    6    7 1
     7    7    8 ar
     8    8    9 ar
     9    9   10 ar
    10   10   11 ar
    11   11   12 ar
    12   12    2 1
    13   13    4 1
    14   14   13 ar
    15   15   14 ar
    16   16   15 ar
    17   17   16 ar
    18   18   13 ar
    19   19    3 1
    20   20   19 ar
    21   21   20 ar
    22   22   21 ar
    23   23   22 ar
    24   24   19 ar
    25   25    8 1
    26   26    9 1
    27   27   10 1
    28   28   11 1
    29   29    3 1
    30   30   14 1
    31   31   15 1
    32   32   16 1
    33   33   17 1
    34   34   18 1
    35   35   20 1
    36   36   21 1
    37   37   22 1
    38   38   23 1
    39   39   24 1
    40    7   12 ar
    41   17   18 ar
    42   23   24 ar
@<TRIPOS>SUBSTRUCTURE
     1 RES1 1

@<TRIPOS>CRYSIN
  16.8080    8.1100   11.8240  90.0000  98.4000  90.0000 231 1

