# MOL2 file generated by ConQuest
# Please check atom types

@<TRIPOS>MOLECULE
LEWCUO
    24    26     1
SMALL
USER_CHARGES
****
Generated from CSD

@<TRIPOS>ATOM
      1 N1         9.6998    6.3153    8.6955 N.3       1 RES1    0.0000
      2 C1         8.7556    7.2606    8.9147 C.2       1 RES1    0.0000
      3 N2         9.0316    8.4407    9.4272 N.2       1 RES1    0.0000
      4 O1         7.8349    9.1824    9.3972 O.3       1 RES1    0.0000
      5 N3         6.8366    8.3449    8.8771 N.pl3     1 RES1    1.0000
      6 O2         5.6827    8.7878    8.8030 O.2       1 RES1   -1.0000
      7 C2         7.3774    7.1772    8.5639 C.2       1 RES1    0.0000
      8 C3         6.5401    6.1248    8.0357 C.2       1 RES1    0.0000
      9 N4         6.6719    4.8737    8.4648 N.pl3     1 RES1    1.0000
     10 O3         7.4687    4.3012    9.1683 O.2       1 RES1   -1.0000
     11 O4         5.5985    4.1055    7.9042 O.3       1 RES1    0.0000
     12 N5         4.8310    4.9314    7.1390 N.2       1 RES1    0.0000
     13 C4         5.3906    6.1269    7.2038 C.2       1 RES1    0.0000
     14 C5         4.7943    7.1710    6.4052 C.2       1 RES1    0.0000
     15 N6         5.4853    8.1853    5.9198 N.pl3     1 RES1    1.0000
     16 O5         6.6694    8.5386    6.0079 O.2       1 RES1   -1.0000
     17 O6         4.6308    8.9656    5.1175 O.3       1 RES1    0.0000
     18 N7         3.3610    8.3583    5.1265 N.2       1 RES1    0.0000
     19 C6         3.4695    7.2967    5.8968 C.2       1 RES1    0.0000
     20 N8         2.4316    6.4966    6.1943 N.3       1 RES1    0.0000
     21 H1         2.5737    5.7253    6.5242 H         1 RES1    0.0000
     22 H2         1.6866    6.6418    5.7726 H         1 RES1    0.0000
     23 H3        10.4307    6.5079    9.0504 H         1 RES1    0.0000
     24 H4         9.4141    5.4473    8.7685 H         1 RES1    0.0000
@<TRIPOS>BOND
     1    1    2 1
     2    2    3 2
     3    3    4 1
     4    4    5 1
     5    5    6 1
     6    7    2 1
     7    8    7 1
     8    9    8 2
     9   10    9 1
    10   11    9 1
    11   12   11 1
    12   13    8 1
    13   14   13 1
    14   15   14 2
    15   16   15 1
    16   17   15 1
    17   18   17 1
    18   19   14 1
    19   20   19 1
    20   21   20 1
    21   22   20 1
    22   23    1 1
    23   24    1 1
    24    5    7 2
    25   12   13 2
    26   18   19 2
@<TRIPOS>SUBSTRUCTURE
     1 RES1 1

@<TRIPOS>CRYSIN
   9.5817   10.2973   10.5303  90.0000  97.5620  90.0000  14 1

