# MOL2 file generated by ConQuest
# Please check atom types

@<TRIPOS>MOLECULE
LEWGEA
    24    25     1
SMALL
NO_CHARGES
****
Generated from CSD

@<TRIPOS>ATOM
      1 O1         0.8049   10.4682    3.6070 O.2       1 RES1    0.0000
      2 O2        -0.8375    9.3784    2.7080 O.2       1 RES1    0.0000
      3 O3         3.4112    3.9499    5.3221 O.2       1 RES1    0.0000
      4 O4        -0.0677    3.9273    2.3345 O.2       1 RES1    0.0000
      5 N1         0.2299    9.4251    3.3152 N.pl3     1 RES1    0.0000
      6 N2         1.7259    3.5995    3.7657 N.am      1 RES1    0.0000
      7 C1         2.5248    4.3768    4.6086 C.2       1 RES1    0.0000
      8 C2         2.0561    5.7968    4.4391 C.ar      1 RES1    0.0000
      9 C3         2.4956    6.9686    5.0296 C.ar      1 RES1    0.0000
     10 H1         3.1828    6.9649    5.6555 H         1 RES1    0.0000
     11 C4         1.8693    8.1591    4.6500 C.ar      1 RES1    0.0000
     12 H2         2.1382    8.9684    5.0227 H         1 RES1    0.0000
     13 C5         0.8444    8.1308    3.7145 C.ar      1 RES1    0.0000
     14 C6         0.3747    6.9611    3.1171 C.ar      1 RES1    0.0000
     15 H3        -0.3194    6.9649    2.4980 H         1 RES1    0.0000
     16 C7         1.0095    5.7910    3.5055 C.ar      1 RES1    0.0000
     17 C8         0.7722    4.3718    3.0915 C.2       1 RES1    0.0000
     18 C9         1.8317    2.1380    3.6534 C.3       1 RES1    0.0000
     19 H4         2.7646    1.8899    3.5587 H         1 RES1    0.0000
     20 H5         1.3620    1.8424    2.8578 H         1 RES1    0.0000
     21 C10        1.2468    1.4419    4.8699 C.3       1 RES1    0.0000
     22 H6         1.7892    1.6317    5.6388 H         1 RES1    0.0000
     23 H7         1.2280    0.4937    4.7180 H         1 RES1    0.0000
     24 H8         0.3535    1.7598    5.0217 H         1 RES1    0.0000
@<TRIPOS>BOND
     1    1    5 2
     2    2    5 2
     3    3    7 2
     4    4   17 2
     5    5   13 1
     6    6    7 1
     7    7    8 1
     8    8    9 ar
     9    9   10 1
    10   11    9 ar
    11   12   11 1
    12   13   11 ar
    13   14   13 ar
    14   15   14 1
    15   16    8 ar
    16   17    6 1
    17   18    6 1
    18   19   18 1
    19   20   18 1
    20   21   18 1
    21   22   21 1
    22   23   21 1
    23   24   21 1
    24   14   16 ar
    25   16   17 1
@<TRIPOS>SUBSTRUCTURE
     1 RES1 1

@<TRIPOS>CRYSIN
   4.9438   20.6550    9.8580  90.0000  90.0000  90.0000  14 1

