# MOL2 file generated by ConQuest
# Please check atom types

@<TRIPOS>MOLECULE
LEWVER
    61    65     1
SMALL
NO_CHARGES
****
Generated from CSD

@<TRIPOS>ATOM
      1 O1         9.0319    2.7590    9.0374 O.3       1 RES1    0.0000
      2 H1         3.8087    3.2391   10.2420 H         1 RES1    0.0000
      3 O2         4.2109    2.0451    8.8247 O.3       1 RES1    0.0000
      4 O3         8.7521    2.4590    6.8324 O.2       1 RES1    0.0000
      5 C1         5.8827    6.3213    9.8054 C.ar      1 RES1    0.0000
      6 N1         5.0217    4.3979    7.5707 N.3       1 RES1    0.0000
      7 C2         6.9306    5.4185    9.6456 C.ar      1 RES1    0.0000
      8 N2         3.8579    3.3474    9.3361 N.3       1 RES1    0.0000
      9 C3         6.6522    1.7838   10.6986 C.ar      1 RES1    0.0000
     10 H2         6.7158    1.3287    9.8893 H         1 RES1    0.0000
     11 C4         6.4304    3.9940    9.4168 C.3       1 RES1    0.0000
     12 C5         8.2491    5.8532    9.7103 C.ar      1 RES1    0.0000
     13 H3         8.9510    5.2573    9.5813 H         1 RES1    0.0000
     14 C6         4.9123    4.2965    9.0267 C.3       1 RES1    0.0000
     15 C7         6.5191    3.1714   10.7006 C.ar      1 RES1    0.0000
     16 C8         6.9900    3.4183    8.1201 C.2       1 RES1    0.0000
     17 C9         4.5507    5.6356    9.6851 C.3       1 RES1    0.0000
     18 H4         3.9420    6.1461    9.1283 H         1 RES1    0.0000
     19 H5         4.1463    5.4997   10.5567 H         1 RES1    0.0000
     20 C10        6.4127    3.8153   11.9346 C.ar      1 RES1    0.0000
     21 H6         6.3382    4.7420   11.9605 H         1 RES1    0.0000
     22 C11        6.1249    3.7552    7.1067 C.2       1 RES1    0.0000
     23 C12        6.6913    1.0714   11.8920 C.ar      1 RES1    0.0000
     24 H7         6.8057    0.1490   11.8757 H         1 RES1    0.0000
     25 C13        8.5001    7.1984    9.9706 C.ar      1 RES1    0.0000
     26 H8         9.3774    7.4999   10.0299 H         1 RES1    0.0000
     27 C14        6.1356    7.6633   10.0433 C.ar      1 RES1    0.0000
     28 H9         5.4343    8.2666   10.1371 H         1 RES1    0.0000
     29 C15        6.4157    3.1005   13.1239 C.ar      1 RES1    0.0000
     30 H10        6.3205    3.5462   13.9334 H         1 RES1    0.0000
     31 C16        3.9301    4.8876    6.7478 C.3       1 RES1    0.0000
     32 H11        3.1302    4.9395    7.2937 H         1 RES1    0.0000
     33 H12        3.7610    4.2428    6.0416 H         1 RES1    0.0000
     34 C17        8.2888    2.8445    7.8934 C.2       1 RES1    0.0000
     35 C18       10.3502    2.2232    8.8495 C.3       1 RES1    0.0000
     36 H13       10.2935    1.3933    8.3717 H         1 RES1    0.0000
     37 H14       10.7599    2.0720    9.7041 H         1 RES1    0.0000
     38 H15       10.8798    2.8459    8.3471 H         1 RES1    0.0000
     39 C19        4.1738    6.2466    6.1150 C.ar      1 RES1    0.0000
     40 C20        6.2483    3.5332    5.6414 C.3       1 RES1    0.0000
     41 H16        5.5287    2.9734    5.3408 H         1 RES1    0.0000
     42 H17        7.0866    3.1062    5.4524 H         1 RES1    0.0000
     43 H18        6.2083    4.3775    5.1846 H         1 RES1    0.0000
     44 C21        7.4514    8.0931   10.1411 C.ar      1 RES1    0.0000
     45 H19        7.6330    8.9866   10.3223 H         1 RES1    0.0000
     46 C22        6.5609    1.7262   13.1050 C.ar      1 RES1    0.0000
     47 H20        6.5714    1.2443   13.9000 H         1 RES1    0.0000
     48 C23        5.2160    7.0810    6.4786 C.ar      1 RES1    0.0000
     49 H21        5.8208    6.8032    7.1285 H         1 RES1    0.0000
     50 C24        4.4753    8.7580    4.9257 C.ar      1 RES1    0.0000
     51 H22        4.5693    9.5971    4.5374 H         1 RES1    0.0000
     52 C25        3.2949    6.6786    5.1281 C.ar      1 RES1    0.0000
     53 H23        2.6028    6.1227    4.8543 H         1 RES1    0.0000
     54 C26        5.3699    8.3316    5.8827 C.ar      1 RES1    0.0000
     55 H24        6.0784    8.8788    6.1309 H         1 RES1    0.0000
     56 C27        3.4396    7.9305    4.5490 C.ar      1 RES1    0.0000
     57 H25        2.8338    8.2127    3.9013 H         1 RES1    0.0000
     58 C28        3.1246    1.5637    8.0501 C.3       1 RES1    0.0000
     59 H26        2.9404    2.1816    7.3383 H         1 RES1    0.0000
     60 H27        2.3485    1.4759    8.6082 H         1 RES1    0.0000
     61 H28        3.3501    0.7074    7.6798 H         1 RES1    0.0000
@<TRIPOS>BOND
     1    1   34 1
     2    2    8 1
     3    3    8 1
     4    4   34 2
     5    5    7 ar
     6    6   14 1
     7    7   11 1
     8    8   14 1
     9    9   10 1
    10   11   14 1
    11   12    7 ar
    12   13   12 1
    13   14   17 1
    14   15    9 ar
    15   16   11 1
    16   17    5 1
    17   18   17 1
    18   19   17 1
    19   20   15 ar
    20   21   20 1
    21   22    6 1
    22   23    9 ar
    23   24   23 1
    24   25   12 ar
    25   26   25 1
    26   27    5 ar
    27   28   27 1
    28   29   20 ar
    29   30   29 1
    30   31    6 1
    31   32   31 1
    32   33   31 1
    33   34   16 1
    34   35    1 1
    35   36   35 1
    36   37   35 1
    37   38   35 1
    38   39   31 1
    39   40   22 1
    40   41   40 1
    41   42   40 1
    42   43   40 1
    43   44   25 ar
    44   45   44 1
    45   46   23 ar
    46   47   46 1
    47   48   39 ar
    48   49   48 1
    49   50   51 1
    50   52   39 ar
    51   53   52 1
    52   54   48 ar
    53   55   54 1
    54   56   50 ar
    55   57   56 1
    56   58    3 1
    57   59   58 1
    58   60   58 1
    59   61   58 1
    60   11   15 1
    61   16   22 2
    62   27   44 ar
    63   29   46 ar
    64   50   54 ar
    65   52   56 ar
@<TRIPOS>SUBSTRUCTURE
     1 RES1 1

@<TRIPOS>CRYSIN
  11.1041   17.9552   22.3185  90.0000  90.0000  90.0000  61 1

