# MOL2 file generated by ConQuest
# Please check atom types

@<TRIPOS>MOLECULE
LEZGII
    63    65     2
SMALL
NO_CHARGES
****
Generated from CSD

@<TRIPOS>ATOM
      1 C1         1.2105   13.4366    4.5541 C.1       1 RES1    0.0000
      2 H1         1.0410   14.1115    5.1688 H         1 RES1    0.0000
      3 C2         1.4198   12.5950    3.7902 C.1       1 RES1    0.0000
      4 C3         1.7540   11.5685    2.8732 C.ar      1 RES1    0.0000
      5 C4         0.8383   11.1076    1.9073 C.ar      1 RES1    0.0000
      6 H2        -0.0095   11.4880    1.8790 H         1 RES1    0.0000
      7 C5         1.1437   10.1212    1.0058 C.ar      1 RES1    0.0000
      8 H3         0.5163    9.8247    0.3863 H         1 RES1    0.0000
      9 C6         2.4199    9.5796    1.0498 C.ar      1 RES1    0.0000
     10 C7         3.3501   10.0023    2.0195 C.ar      1 RES1    0.0000
     11 C8         3.0099   10.9927    2.9171 C.ar      1 RES1    0.0000
     12 H4         3.6268   11.2734    3.5532 H         1 RES1    0.0000
     13 C9         4.5433    9.2322    1.8127 C.ar      1 RES1    0.0000
     14 C10        5.7791    9.1836    2.4254 C.ar      1 RES1    0.0000
     15 H5         5.9852    9.7541    3.1317 H         1 RES1    0.0000
     16 C11        6.6889    8.2800    1.9668 C.ar      1 RES1    0.0000
     17 H6         7.5234    8.2320    2.3736 H         1 RES1    0.0000
     18 C12        6.4089    7.4243    0.9132 C.ar      1 RES1    0.0000
     19 H7         7.0500    6.8087    0.6400 H         1 RES1    0.0000
     20 C13        5.1980    7.4723    0.2634 C.ar      1 RES1    0.0000
     21 H8         5.0154    6.9216   -0.4615 H         1 RES1    0.0000
     22 C14        4.2663    8.3734    0.7307 C.ar      1 RES1    0.0000
     23 C15        2.3411    7.8620   -0.7980 C.3       1 RES1    0.0000
     24 H9         2.9374    7.8084   -1.5610 H         1 RES1    0.0000
     25 H10        1.5388    8.3280   -1.0780 H         1 RES1    0.0000
     26 C16        1.9607    6.4161   -0.3405 C.3       1 RES1    0.0000
     27 H11        2.6845    5.8598   -0.6702 H         1 RES1    0.0000
     28 H12        2.0627    6.4302    0.6234 H         1 RES1    0.0000
     29 N1         2.9840    8.6095    0.2585 N.3       1 RES1    0.0000
     30 C17        0.5775    4.7528    0.5083 C.3       1 RES1    0.0000
     31 H13        1.4329    4.6116    0.9424 H         1 RES1    0.0000
     32 H14        0.3202    3.9028    0.1171 H         1 RES1    0.0000
     33 C18       -0.8752    4.0363    2.3034 C.ar      1 RES1    0.0000
     34 C19       -1.8853    4.3467    3.2527 C.ar      1 RES1    0.0000
     35 H15       -2.2147    5.2103    3.3590 H         1 RES1    0.0000
     36 C20       -2.3609    3.2521    4.0322 C.ar      1 RES1    0.0000
     37 H16       -3.0189    3.4142    4.6693 H         1 RES1    0.0000
     38 C21       -1.8982    1.9875    3.8849 C.ar      1 RES1    0.0000
     39 C22       -0.9281    1.8441    2.9268 C.ar      1 RES1    0.0000
     40 H17       -0.5871    0.9856    2.8146 H         1 RES1    0.0000
     41 C23       -0.4369    2.7418    2.1737 C.ar      1 RES1    0.0000
     42 H18        0.2114    2.5247    1.5424 H         1 RES1    0.0000
     43 C24       -3.7202   -0.0748    6.1005 C.ar      1 RES1    0.0000
     44 C25       -4.6622    0.1017    7.1278 C.ar      1 RES1    0.0000
     45 H19       -4.9073    0.9743    7.3307 H         1 RES1    0.0000
     46 C26       -5.1992   -0.8048    7.7902 C.ar      1 RES1    0.0000
     47 H20       -5.8326   -0.6156    8.4439 H         1 RES1    0.0000
     48 C27       -4.8305   -2.0530    7.5278 C.ar      1 RES1    0.0000
     49 C28       -3.9673   -2.3976    6.5785 C.ar      1 RES1    0.0000
     50 H21       -3.7519   -3.2871    6.4146 H         1 RES1    0.0000
     51 C29       -3.3887   -1.3408    5.8283 C.ar      1 RES1    0.0000
     52 H22       -2.7811   -1.5278    5.1492 H         1 RES1    0.0000
     53 N2        -2.4467    0.7856    4.6771 N.2       1 RES1    0.0000
     54 N3        -3.1573    1.1567    5.3629 N.2       1 RES1    0.0000
     55 N4        -5.4412   -3.1149    8.3600 N.pl3     1 RES1    0.0000
     56 O1        -0.3722    5.0417    1.5385 O.3       1 RES1    0.0000
     57 O2        -6.3023   -2.7534    9.1444 O.2       1 RES1    0.0000
     58 O3        -5.0572   -4.2219    8.2409 O.2       1 RES1    0.0000
     59 C30        0.7999    5.6424   -0.5571 C.3       1 RES1    0.0000
     60 H23        0.0345    6.2326   -0.6507 H         1 RES1    0.0000
     61 H24        0.8945    5.1425   -1.3824 H         1 RES1    0.0000
     62 C31        1.4257    6.5121   -1.0341 Du        2 SUP2    0.0000
     63 C32        1.0543    6.5319    0.3200 Du        2 SUP2    0.0000
@<TRIPOS>BOND
     1    1    2 1
     2    3    1 3
     3    4    3 1
     4    5    4 ar
     5    6    5 1
     6    7    5 ar
     7    8    7 1
     8    9    7 ar
     9   10    9 ar
    10   11    4 ar
    11   12   11 1
    12   13   10 1
    13   14   13 ar
    14   15   14 1
    15   16   14 ar
    16   17   16 1
    17   18   16 ar
    18   19   18 1
    19   20   18 ar
    20   21   20 1
    21   22   13 ar
    22   23   24 1
    23   25   23 1
    24   26   23 1
    25   27   26 1
    26   28   26 1
    27   29    9 1
    28   30   31 1
    29   32   30 1
    30   33   34 ar
    31   34   35 1
    32   36   34 ar
    33   37   36 1
    34   38   36 ar
    35   39   38 ar
    36   40   39 1
    37   41   33 ar
    38   42   41 1
    39   43   44 ar
    40   44   45 1
    41   46   44 ar
    42   47   46 1
    43   48   46 ar
    44   49   48 ar
    45   50   49 1
    46   51   43 ar
    47   52   51 1
    48   53   38 1
    49   54   43 1
    50   55   48 1
    51   56   30 1
    52   57   55 2
    53   58   55 2
    54   59   26 1
    55   60   59 1
    56   61   59 1
    57   10   11 ar
    58   20   22 ar
    59   22   29 1
    60   23   29 1
    61   30   59 1
    62   33   56 1
    63   39   41 ar
    64   49   51 ar
    65   53   54 2
@<TRIPOS>SUBSTRUCTURE
     1 RES1 1
     2 SUP2 62

@<TRIPOS>CRYSIN
   9.2380   28.2400    9.7830  90.0000  94.2530  90.0000  14 1

