# MOL2 file generated by ConQuest
# Please check atom types

@<TRIPOS>MOLECULE
LEZLOS
    52    53     1
SMALL
NO_CHARGES
****
Generated from CSD

@<TRIPOS>ATOM
      1 O1         6.6353    4.7237    0.1194 O.3       1 RES1    0.0000
      2 O2         4.7410    3.9283   -0.7590 O.2       1 RES1    0.0000
      3 O3         4.5996    7.0592   -1.6947 O.2       1 RES1    0.0000
      4 O4         6.1712   12.6149    0.6813 O.2       1 RES1    0.0000
      5 O5         6.6973   13.3190    2.6560 O.2       1 RES1    0.0000
      6 O6         4.8408    8.8408    6.3911 O.2       1 RES1    0.0000
      7 O7         6.1140   10.5696    6.4436 O.2       1 RES1    0.0000
      8 N1         3.4427    6.3409    0.1009 N.am      1 RES1    0.0000
      9 N2         3.6314    9.7803   -0.2717 N.2       1 RES1    0.0000
     10 N3         4.3462   10.7360    0.4180 N.pl3     1 RES1    0.0000
     11 N4         6.1461   12.5297    1.9246 N.pl3     1 RES1    0.0000
     12 N5         5.3600    9.7985    5.8650 N.pl3     1 RES1    0.0000
     13 C1         7.3893    3.6625   -0.4914 C.3       1 RES1    0.0000
     14 C2         5.2983    4.7359   -0.0776 C.2       1 RES1    0.0000
     15 C3         4.6708    5.8479    0.7136 C.3       1 RES1    0.0000
     16 C4         4.1698    5.3122    2.0864 C.3       1 RES1    0.0000
     17 C5         2.7081    4.9287    1.8039 C.3       1 RES1    0.0000
     18 C6         2.2514    6.0447    0.8867 C.3       1 RES1    0.0000
     19 C7         3.5253    7.0166   -1.0754 C.2       1 RES1    0.0000
     20 C8         2.2683    7.7146   -1.5734 C.3       1 RES1    0.0000
     21 C9         1.5066    6.7752   -2.5074 C.3       1 RES1    0.0000
     22 C10        2.6562    9.0072   -2.3133 C.3       1 RES1    0.0000
     23 C11        3.3639   10.0420   -1.5233 C.2       1 RES1    0.0000
     24 C12        3.7055   11.3264   -2.1986 C.3       1 RES1    0.0000
     25 C13        4.6189   10.5128    1.7293 C.ar      1 RES1    0.0000
     26 C14        4.0851    9.3846    2.3969 C.ar      1 RES1    0.0000
     27 C15        4.3265    9.1533    3.7315 C.ar      1 RES1    0.0000
     28 C16        5.1060   10.0725    4.4683 C.ar      1 RES1    0.0000
     29 C17        5.6417   11.1702    3.8479 C.ar      1 RES1    0.0000
     30 C18        5.4284   11.3812    2.4936 C.ar      1 RES1    0.0000
     31 H1         3.5555    8.7860    1.9204 H         1 RES1    0.0000
     32 H2         3.9801    8.3984    4.1435 H         1 RES1    0.0000
     33 H3         6.1506   11.7749    4.3382 H         1 RES1    0.0000
     34 H4         4.6866    4.5411    2.3670 H         1 RES1    0.0000
     35 H5         4.2238    6.0000    2.7725 H         1 RES1    0.0000
     36 H6         2.6498    4.0643    1.3644 H         1 RES1    0.0000
     37 H7         2.1851    4.9125    2.6208 H         1 RES1    0.0000
     38 H8         1.5223    5.7505    0.3171 H         1 RES1    0.0000
     39 H9         1.9643    6.8218    1.3967 H         1 RES1    0.0000
     40 H10        3.2175    8.7617   -3.0675 H         1 RES1    0.0000
     41 H11        1.8462    9.4028   -2.6710 H         1 RES1    0.0000
     42 H12        5.3078    6.5783    0.8443 H         1 RES1    0.0000
     43 H13        1.6988    7.9419   -0.8073 H         1 RES1    0.0000
     44 H14        7.4341    2.9158    0.1075 H         1 RES1    0.0000
     45 H15        8.2774    3.9689   -0.6825 H         1 RES1    0.0000
     46 H16        6.9613    3.3906   -1.3077 H         1 RES1    0.0000
     47 H17        1.8082    6.9030   -3.4090 H         1 RES1    0.0000
     48 H18        0.5665    6.9659   -2.4530 H         1 RES1    0.0000
     49 H19        1.6660    5.8661   -2.2470 H         1 RES1    0.0000
     50 H20        2.9765   11.9453   -2.0983 H         1 RES1    0.0000
     51 H21        3.8632   11.1621   -3.1320 H         1 RES1    0.0000
     52 H22        4.4952   11.6978   -1.7992 H         1 RES1    0.0000
@<TRIPOS>BOND
     1    1   13 1
     2    2   14 2
     3    3   19 2
     4    4   11 2
     5    5   11 2
     6    6   12 2
     7    7   12 2
     8    8   15 1
     9    9   10 1
    10   10   25 1
    11   11   30 1
    12   12   28 1
    13   13   44 1
    14   14    1 1
    15   15   14 1
    16   16   15 1
    17   17   16 1
    18   18    8 1
    19   19    8 1
    20   20   19 1
    21   21   20 1
    22   22   20 1
    23   23    9 2
    24   24   23 1
    25   25   26 ar
    26   26   27 ar
    27   27   28 ar
    28   28   29 ar
    29   29   30 ar
    30   30   25 ar
    31   31   26 1
    32   32   27 1
    33   33   29 1
    34   34   16 1
    35   35   16 1
    36   36   17 1
    37   37   17 1
    38   38   18 1
    39   39   18 1
    40   40   22 1
    41   41   22 1
    42   42   15 1
    43   43   20 1
    44   45   13 1
    45   46   13 1
    46   47   21 1
    47   48   21 1
    48   49   21 1
    49   50   24 1
    50   51   24 1
    51   52   24 1
    52   17   18 1
    53   22   23 1
@<TRIPOS>SUBSTRUCTURE
     1 RES1 1

@<TRIPOS>CRYSIN
   8.3840   20.2910    6.4430  90.0000 112.0600  90.0000   4 1

