# MOL2 file generated by ConQuest
# Please check atom types

@<TRIPOS>MOLECULE
LEZNOT
    24    25     1
SMALL
NO_CHARGES
****
Generated from CSD

@<TRIPOS>ATOM
      1 O1         2.1894   -1.6262   12.1481 O.2       1 RES1    0.0000
      2 O2         1.8625   -1.2855   14.3536 O.3       1 RES1    0.0000
      3 N1         0.6428    0.4386   10.7688 N.3       1 RES1    0.0000
      4 N2         0.3676    0.8533   11.9772 N.2       1 RES1    0.0000
      5 N3         1.1317   -0.3176   15.1748 N.2       1 RES1    0.0000
      6 C1         0.8292    0.1831   13.0027 C.2       1 RES1    0.0000
      7 C2         1.6793   -0.9854   13.0360 C.2       1 RES1    0.0000
      8 C3         0.5553    0.5063   14.3718 C.2       1 RES1    0.0000
      9 C4        -0.2714    1.6207   14.8704 C.3       1 RES1    0.0000
     10 C5         0.1561    1.1701    9.6634 C.ar      1 RES1    0.0000
     11 C6         0.5419    0.7721    8.3938 C.ar      1 RES1    0.0000
     12 C7         0.0789    1.4742    7.2951 C.ar      1 RES1    0.0000
     13 C8        -0.7518    2.5544    7.4522 C.ar      1 RES1    0.0000
     14 C9        -1.1284    2.9404    8.7185 C.ar      1 RES1    0.0000
     15 C10       -0.6842    2.2559    9.8380 C.ar      1 RES1    0.0000
     16 H1         1.1474   -0.3980   10.6321 H         1 RES1    0.0000
     17 H2        -1.1246    1.6079   14.4090 H         1 RES1    0.0000
     18 H3         0.1546    2.4994   14.7097 H         1 RES1    0.0000
     19 H4        -0.4432    1.5204   15.7826 H         1 RES1    0.0000
     20 H5         1.0993    0.0239    8.2720 H         1 RES1    0.0000
     21 H6         0.3448    1.2020    6.4182 H         1 RES1    0.0000
     22 H7        -1.0696    3.0407    6.6821 H         1 RES1    0.0000
     23 H8        -1.6433    3.6536    8.8258 H         1 RES1    0.0000
     24 H9        -0.9696    2.5154   10.7100 H         1 RES1    0.0000
@<TRIPOS>BOND
     1    1    7 2
     2    2    5 1
     3    3    4 1
     4    4    6 2
     5    5    8 2
     6    6    7 1
     7    7    2 1
     8    8    6 1
     9    9    8 1
    10   10    3 1
    11   11   10 ar
    12   12   11 ar
    13   13   12 ar
    14   14   13 ar
    15   15   10 ar
    16   16    3 1
    17   17    9 1
    18   18    9 1
    19   19    9 1
    20   20   11 1
    21   21   12 1
    22   22   13 1
    23   23   14 1
    24   24   15 1
    25   14   15 ar
@<TRIPOS>SUBSTRUCTURE
     1 RES1 1

@<TRIPOS>CRYSIN
  11.1000    7.9600   21.7440  90.0000  95.8200  90.0000  15 1

