# MOL2 file generated by ConQuest
# Please check atom types

@<TRIPOS>MOLECULE
LEZXUK
    41    41     2
SMALL
NO_CHARGES
****
Generated from CSD

@<TRIPOS>ATOM
      1 O1         2.3928    6.8195    3.9454 O.2       1 RES1    0.0000
      2 O2        -0.7762    5.1593   -5.3654 O.2       1 RES1    0.0000
      3 O3         0.2107    3.2655   -5.7264 O.2       1 RES1    0.0000
      4 N1         2.2839    4.2916    0.1127 N.2       1 RES1    0.0000
      5 H1         2.4858    3.4682    0.5059 Du        2 SUP2    0.0000
      6 N2         2.2030    5.4047    0.7732 N.2       1 RES1    0.0000
      7 N3         3.4128    3.2081    2.1580 N.3       1 RES1    0.0000
      8 H2         3.0448    3.1624    1.3396 H         1 RES1    0.0000
      9 N4        -0.0553    4.2305   -5.0092 N.pl3     1 RES1    0.0000
     10 C1         2.7049    5.4688    2.0343 C.2       1 RES1    0.0000
     11 C2         3.3536    4.3846    2.7349 C.2       1 RES1    0.0000
     12 C3         2.4051    6.7355    2.7185 C.2       1 RES1    0.0000
     13 C4         3.9941    4.5387    4.0798 C.3       1 RES1    0.0000
     14 C5         2.0351    7.9648    1.9313 C.ar      1 RES1    0.0000
     15 C6         2.5616    8.2842    0.6775 C.ar      1 RES1    0.0000
     16 C7         2.1984    9.4680    0.0453 C.ar      1 RES1    0.0000
     17 C8         1.2950   10.3319    0.6449 C.ar      1 RES1    0.0000
     18 C9         0.7729   10.0289    1.8987 C.ar      1 RES1    0.0000
     19 C10        1.1548    8.8624    2.5388 C.ar      1 RES1    0.0000
     20 C11        1.6804    4.3592   -1.1636 C.ar      1 RES1    0.0000
     21 C12        1.8701    3.2481   -1.9884 C.ar      1 RES1    0.0000
     22 C13        1.2975    3.1980   -3.2531 C.ar      1 RES1    0.0000
     23 C14        0.5323    4.2735   -3.6670 C.ar      1 RES1    0.0000
     24 C15        0.3224    5.3872   -2.8725 C.ar      1 RES1    0.0000
     25 C16        0.9009    5.4349   -1.6154 C.ar      1 RES1    0.0000
     26 C17        4.0282    2.0122    2.7306 C.3       1 RES1    0.0000
     27 H3         4.2334    5.4765    4.2475 H         1 RES1    0.0000
     28 H4         3.3593    4.2430    4.8000 H         1 RES1    0.0000
     29 H5         4.8004    3.9745    4.1362 H         1 RES1    0.0000
     30 H6         3.1790    7.6787    0.2509 H         1 RES1    0.0000
     31 H7         2.5752    9.6765   -0.8317 H         1 RES1    0.0000
     32 H8         1.0180   11.1421    0.1841 H         1 RES1    0.0000
     33 H9         0.1467   10.6338    2.3312 H         1 RES1    0.0000
     34 H10        0.7994    8.6370    3.4118 H         1 RES1    0.0000
     35 H11        1.4398    2.4124   -3.8266 H         1 RES1    0.0000
     36 H12        2.4175    2.5156   -1.6958 H         1 RES1    0.0000
     37 H13       -0.2327    6.1080   -3.1872 H         1 RES1    0.0000
     38 H14        0.7823    6.2026   -1.0341 H         1 RES1    0.0000
     39 H15        3.7249    1.2277    2.2320 H         1 RES1    0.0000
     40 H16        3.7603    1.8822    3.6587 H         1 RES1    0.0000
     41 H17        4.9974    2.0637    2.6711 H         1 RES1    0.0000
@<TRIPOS>BOND
     1    1   12 2
     2    2    9 2
     3    3    9 2
     4    4    6 2
     5    6   10 1
     6    7    8 1
     7    9   23 1
     8   10   11 2
     9   11    7 1
    10   12   10 1
    11   13   11 1
    12   14   12 1
    13   15   14 ar
    14   16   15 ar
    15   17   16 ar
    16   18   17 ar
    17   19   14 ar
    18   20    4 1
    19   21   20 ar
    20   22   21 ar
    21   23   22 ar
    22   24   23 ar
    23   25   20 ar
    24   26    7 1
    25   27   13 1
    26   28   13 1
    27   29   13 1
    28   30   15 1
    29   31   16 1
    30   32   17 1
    31   33   18 1
    32   34   19 1
    33   35   22 1
    34   36   21 1
    35   37   24 1
    36   38   25 1
    37   39   26 1
    38   40   26 1
    39   41   26 1
    40   18   19 ar
    41   24   25 ar
@<TRIPOS>SUBSTRUCTURE
     1 RES1 1
     2 SUP2 5

@<TRIPOS>CRYSIN
   8.0995    9.5542   20.4491  90.0000  98.2804  90.0000  14 1

