# MOL2 file generated by ConQuest
# Please check atom types

@<TRIPOS>MOLECULE
LEZXAQ
    34    33     2
SMALL
NO_CHARGES
****
Generated from CSD

@<TRIPOS>ATOM
      1 O1         3.5724    2.9194    3.5987 O.2       1 RES1    0.0000
      2 O2        -2.8843   -3.7753    7.3309 O.2       1 RES1    0.0000
      3 O3        -2.4560   -3.5430    9.4359 O.2       1 RES1    0.0000
      4 N1         1.6909    0.5830    7.1202 N.2       1 RES1    0.0000
      5 H1         2.0256    0.7496    7.7338 Du        2 SUP2    0.0000
      6 N2         1.8947    0.8522    5.8713 N.2       1 RES1    0.0000
      7 N3         3.7303    2.0472    7.7354 N.3       1 RES1    0.0000
      8 H2         3.0445    1.5603    7.9994 H         1 RES1    0.0000
      9 N4        -2.2713   -3.2497    8.2573 N.pl3     1 RES1    0.0000
     10 C1         2.8874    1.7206    5.5349 C.2       1 RES1    0.0000
     11 C2         3.8374    2.2974    6.4456 C.2       1 RES1    0.0000
     12 C3         2.9094    2.0087    4.0919 C.2       1 RES1    0.0000
     13 C4         4.9792    3.1489    5.9849 C.3       1 RES1    0.0000
     14 C5         2.0595    1.1518    3.1808 C.3       1 RES1    0.0000
     15 C6         0.6547   -0.3549    7.3274 C.ar      1 RES1    0.0000
     16 C7         0.3323   -0.6221    8.6640 C.ar      1 RES1    0.0000
     17 C8        -0.6336   -1.5612    8.9786 C.ar      1 RES1    0.0000
     18 C9        -1.2704   -2.2308    7.9428 C.ar      1 RES1    0.0000
     19 C10       -0.9916   -1.9613    6.6069 C.ar      1 RES1    0.0000
     20 C11       -0.0337   -1.0177    6.2993 C.ar      1 RES1    0.0000
     21 C12        4.6498    2.5050    8.7703 C.3       1 RES1    0.0000
     22 H3         5.3362    2.8068    5.1384 H         1 RES1    0.0000
     23 H4         4.6856    4.0271    5.7893 H         1 RES1    0.0000
     24 H5         5.7679    3.0421    6.5792 H         1 RES1    0.0000
     25 H6         2.2072    1.4121    2.2596 H         1 RES1    0.0000
     26 H7         1.1061    1.2814    3.3839 H         1 RES1    0.0000
     27 H8         2.2537    0.2266    3.3027 H         1 RES1    0.0000
     28 H9         0.7875   -0.1308    9.3438 H         1 RES1    0.0000
     29 H10       -0.8821   -1.7346    9.8736 H         1 RES1    0.0000
     30 H11       -1.4538   -2.4311    5.9077 H         1 RES1    0.0000
     31 H12        0.1537   -0.8220    5.3737 H         1 RES1    0.0000
     32 H13        5.5104    2.1443    8.6585 H         1 RES1    0.0000
     33 H14        4.3573    2.1792    9.6204 H         1 RES1    0.0000
     34 H15        4.6594    3.4344    8.8553 H         1 RES1    0.0000
@<TRIPOS>BOND
     1    1   12 2
     2    2    9 2
     3    3    9 2
     4    4    6 2
     5    6   10 1
     6    7    8 1
     7    9   18 1
     8   10   11 2
     9   11    7 1
    10   12   10 1
    11   13   11 1
    12   14   12 1
    13   15    4 1
    14   16   15 ar
    15   17   16 ar
    16   18   17 ar
    17   19   18 ar
    18   20   15 ar
    19   21    7 1
    20   22   13 1
    21   23   13 1
    22   24   13 1
    23   25   14 1
    24   26   14 1
    25   27   14 1
    26   28   16 1
    27   29   17 1
    28   30   19 1
    29   31   20 1
    30   32   21 1
    31   33   21 1
    32   34   21 1
    33   19   20 ar
@<TRIPOS>SUBSTRUCTURE
     1 RES1 1
     2 SUP2 5

@<TRIPOS>CRYSIN
  10.2904    8.7167   14.0155  90.0000 100.9315  90.0000  14 1

