# MOL2 file generated by ConQuest
# Please check atom types

@<TRIPOS>MOLECULE
LIDCAC
    55    58     1
SMALL
NO_CHARGES
****
Generated from CSD

@<TRIPOS>ATOM
      1 N1         4.9732    0.3146    6.9630 N.2       1 RES1    0.0000
      2 N2         5.8031    1.1569    6.2386 N.3       1 RES1    0.0000
      3 C1         1.5374   -1.4619    6.3040 C.2       1 RES1    0.0000
      4 C2         2.5092   -2.3317    6.1612 C.2       1 RES1    0.0000
      5 C3         3.6685   -2.4375    7.0608 C.3       1 RES1    0.0000
      6 C4         3.5637   -1.5526    8.2793 C.3       1 RES1    0.0000
      7 C5         2.8811   -0.2198    7.9579 C.3       1 RES1    0.0000
      8 C6         3.7538    0.6650    7.0889 C.2       1 RES1    0.0000
      9 C7         3.1083    1.8989    6.5498 C.3       1 RES1    0.0000
     10 C8         1.7562    1.6392    5.9282 C.3       1 RES1    0.0000
     11 C9         0.8328    0.8849    6.8712 C.3       1 RES1    0.0000
     12 C10        1.4533   -0.4383    7.3882 C.3       1 RES1    0.0000
     13 C11       -0.5383    0.7255    6.2224 C.3       1 RES1    0.0000
     14 C12       -1.1481    2.0308    5.7888 C.3       1 RES1    0.0000
     15 C13       -0.2377    2.7659    4.8517 C.3       1 RES1    0.0000
     16 C14        1.1352    2.9486    5.4716 C.3       1 RES1    0.0000
     17 C15        0.5650   -0.9577    8.5258 C.3       1 RES1    0.0000
     18 C16        7.0813    0.8065    6.0507 C.ar      1 RES1    0.0000
     19 C17        7.9861    1.5664    5.2599 C.ar      1 RES1    0.0000
     20 C18        9.2843    1.1514    5.0456 C.ar      1 RES1    0.0000
     21 C19        9.7188   -0.0137    5.6111 C.ar      1 RES1    0.0000
     22 C20        8.8814   -0.7777    6.3967 C.ar      1 RES1    0.0000
     23 C21        7.5951   -0.3985    6.6306 C.ar      1 RES1    0.0000
     24 N3         7.5823    2.7824    4.5984 N.pl3     1 RES1    0.0000
     25 O1         6.4263    3.1973    4.7514 O.2       1 RES1    0.0000
     26 O2         8.3906    3.3663    3.8807 O.2       1 RES1    0.0000
     27 N4        11.0903   -0.4342    5.3781 N.pl3     1 RES1    0.0000
     28 O3        11.4334   -1.5471    5.7488 O.2       1 RES1    0.0000
     29 O4        11.8571    0.3421    4.8356 O.2       1 RES1    0.0000
     30 H1         5.4618    2.1256    5.8866 H         1 RES1    0.0000
     31 H2         0.8325   -1.4853    5.6680 H         1 RES1    0.0000
     32 H3         2.4612   -2.9321    5.4265 H         1 RES1    0.0000
     33 H4         4.4487   -2.1943    6.5770 H         1 RES1    0.0000
     34 H5         3.7415   -3.3388    7.3490 H         1 RES1    0.0000
     35 H6         4.4378   -1.3767    8.6075 H         1 RES1    0.0000
     36 H7         3.0580   -2.0033    8.9450 H         1 RES1    0.0000
     37 H8         2.7667    0.2542    8.7716 H         1 RES1    0.0000
     38 H9         3.6780    2.2726    5.8883 H         1 RES1    0.0000
     39 H10        2.9984    2.5185    7.2615 H         1 RES1    0.0000
     40 H11        1.8831    1.0813    5.1689 H         1 RES1    0.0000
     41 H12        0.7107    1.3974    7.6611 H         1 RES1    0.0000
     42 H13       -1.1223    0.3133    6.8491 H         1 RES1    0.0000
     43 H14       -0.4484    0.1663    5.4597 H         1 RES1    0.0000
     44 H15       -1.3052    2.5694    6.5549 H         1 RES1    0.0000
     45 H16       -1.9698    1.8576    5.3483 H         1 RES1    0.0000
     46 H17       -0.6095    3.6191    4.6613 H         1 RES1    0.0000
     47 H18       -0.1536    2.2698    4.0457 H         1 RES1    0.0000
     48 H19        1.7070    3.3471    4.8271 H         1 RES1    0.0000
     49 H20        1.0540    3.5229    6.2233 H         1 RES1    0.0000
     50 H21        0.5125   -0.3037    9.2120 H         1 RES1    0.0000
     51 H22       -0.3079   -1.1349    8.1908 H         1 RES1    0.0000
     52 H23        0.9354   -1.7573    8.8770 H         1 RES1    0.0000
     53 H24        9.8712    1.6708    4.5082 H         1 RES1    0.0000
     54 H25        9.2084   -1.5815    6.7811 H         1 RES1    0.0000
     55 H26        7.0352   -0.9357    7.1790 H         1 RES1    0.0000
@<TRIPOS>BOND
     1    1    2 1
     2    2   18 1
     3    3    4 2
     4    4    5 1
     5    5    6 1
     6    6    7 1
     7    7    8 1
     8    8    1 2
     9    9    8 1
    10   10    9 1
    11   11   10 1
    12   12    3 1
    13   13   11 1
    14   14   13 1
    15   15   14 1
    16   16   10 1
    17   17   12 1
    18   18   19 ar
    19   19   20 ar
    20   20   21 ar
    21   21   22 ar
    22   22   23 ar
    23   23   18 ar
    24   24   19 1
    25   25   24 2
    26   26   24 2
    27   27   21 1
    28   28   27 2
    29   29   27 2
    30   30    2 1
    31   31    3 1
    32   32    4 1
    33   33    5 1
    34   34    5 1
    35   35    6 1
    36   36    6 1
    37   37    7 1
    38   38    9 1
    39   39    9 1
    40   40   10 1
    41   41   11 1
    42   42   13 1
    43   43   13 1
    44   44   14 1
    45   45   14 1
    46   46   15 1
    47   47   15 1
    48   48   16 1
    49   49   16 1
    50   50   17 1
    51   51   17 1
    52   52   17 1
    53   53   20 1
    54   54   22 1
    55   55   23 1
    56    7   12 1
    57   11   12 1
    58   15   16 1
@<TRIPOS>SUBSTRUCTURE
     1 RES1 1

@<TRIPOS>CRYSIN
  17.0500   13.7400    8.6370  90.0000 100.1100  90.0000  14 1

