# MOL2 file generated by ConQuest
# Please check atom types

@<TRIPOS>MOLECULE
LIFJOB
    41    44     1
SMALL
NO_CHARGES
****
Generated from CSD

@<TRIPOS>ATOM
      1 O1         7.2596   -2.8728   10.3499 O.2       1 RES1    0.0000
      2 O2         5.4393   -2.7404    9.2630 O.2       1 RES1    0.0000
      3 N1        10.2275    0.8539    5.4977 N.3       1 RES1    0.0000
      4 H1        10.0286    0.0731    5.0428 H         1 RES1    0.0000
      5 N2         9.4581    2.6364    6.8341 N.3       1 RES1    0.0000
      6 N3         6.5843   -2.4219    9.4581 N.pl3     1 RES1    0.0000
      7 C1        11.1352    1.6493    4.8096 C.ar      1 RES1    0.0000
      8 C2        11.9682    1.1529    3.8386 C.ar      1 RES1    0.0000
      9 H2        11.9002    0.2624    3.5770 H         1 RES1    0.0000
     10 C3        12.9155    1.9864    3.2439 C.ar      1 RES1    0.0000
     11 H3        13.4818    1.6387    2.5927 H         1 RES1    0.0000
     12 C4        13.0321    3.2969    3.5930 C.ar      1 RES1    0.0000
     13 H4        13.6629    3.8348    3.1708 H         1 RES1    0.0000
     14 C5        12.1902    3.8453    4.6016 C.ar      1 RES1    0.0000
     15 C6        12.2753    5.2021    5.0211 C.ar      1 RES1    0.0000
     16 H5        12.8846    5.7765    4.6187 H         1 RES1    0.0000
     17 C7        11.4657    5.6555    6.0092 C.ar      1 RES1    0.0000
     18 H6        11.5431    6.5394    6.2860 H         1 RES1    0.0000
     19 C8        10.5156    4.8325    6.6240 C.ar      1 RES1    0.0000
     20 H7         9.9726    5.1786    7.2948 H         1 RES1    0.0000
     21 C9        10.3744    3.5098    6.2429 C.ar      1 RES1    0.0000
     22 C10       11.2275    3.0134    5.2117 C.ar      1 RES1    0.0000
     23 C11        9.0061    1.4949    5.9939 C.3       1 RES1    0.0000
     24 C12        8.3254    0.4607    6.8875 C.ar      1 RES1    0.0000
     25 C13        7.0744   -0.0780    6.6158 C.ar      1 RES1    0.0000
     26 H8         6.6075    0.2023    5.8618 H         1 RES1    0.0000
     27 C14        6.5150   -1.0253    7.4509 C.ar      1 RES1    0.0000
     28 H9         5.6774   -1.3828    7.2605 H         1 RES1    0.0000
     29 C15        7.2010   -1.4315    8.5535 C.ar      1 RES1    0.0000
     30 C16        8.4569   -0.9473    8.8523 C.ar      1 RES1    0.0000
     31 H10        8.9183   -1.2479    9.6009 H         1 RES1    0.0000
     32 C17        9.0109   -0.0073    8.0117 C.ar      1 RES1    0.0000
     33 H11        9.8595    0.3242    8.1973 H         1 RES1    0.0000
     34 C18        8.4200    3.2449    7.6671 C.3       1 RES1    0.0000
     35 H12        8.7980    3.9696    8.1711 H         1 RES1    0.0000
     36 H13        8.0675    2.5860    8.2694 H         1 RES1    0.0000
     37 H14        7.7150    3.5764    7.1081 H         1 RES1    0.0000
     38 C19        8.1147    1.9848    4.8494 C.3       1 RES1    0.0000
     39 H15        8.5956    2.6291    4.3238 H         1 RES1    0.0000
     40 H16        7.3246    2.3927    5.2115 H         1 RES1    0.0000
     41 H17        7.8668    1.2414    4.2960 H         1 RES1    0.0000
@<TRIPOS>BOND
     1    1    6 2
     2    2    6 2
     3    3    4 1
     4    5   21 1
     5    6   29 1
     6    7    3 1
     7    8    7 ar
     8    9    8 1
     9   10    8 ar
    10   11   10 1
    11   12   10 ar
    12   13   12 1
    13   14   12 ar
    14   15   14 ar
    15   16   15 1
    16   17   15 ar
    17   18   17 1
    18   19   17 ar
    19   20   19 1
    20   21   19 ar
    21   22    7 ar
    22   23    3 1
    23   24   23 1
    24   25   24 ar
    25   26   25 1
    26   27   25 ar
    27   28   27 1
    28   29   27 ar
    29   30   29 ar
    30   31   30 1
    31   32   24 ar
    32   33   32 1
    33   34    5 1
    34   35   34 1
    35   36   34 1
    36   37   34 1
    37   38   23 1
    38   39   38 1
    39   40   38 1
    40   41   38 1
    41    5   23 1
    42   14   22 ar
    43   21   22 ar
    44   30   32 ar
@<TRIPOS>SUBSTRUCTURE
     1 RES1 1

@<TRIPOS>CRYSIN
  11.7911    8.1245   16.4283  90.0000  94.4760  90.0000 231 1

