# MOL2 file generated by ConQuest
# Please check atom types

@<TRIPOS>MOLECULE
LIFKAO
    44    47     1
SMALL
NO_CHARGES
****
Generated from CSD

@<TRIPOS>ATOM
      1 N1         4.7504    1.8526    5.5551 N.3       1 RES1    0.0000
      2 N2         5.8059    3.0490    8.0876 N.pl3     1 RES1    0.0000
      3 O1         6.3569    1.9953    8.0932 O.2       1 RES1    0.0000
      4 C1         5.9095    3.0490    3.8049 C.ar      1 RES1    0.0000
      5 C2         6.7383    3.0490    2.6403 C.ar      1 RES1    0.0000
      6 C3         7.1557    1.7940    2.1147 C.ar      1 RES1    0.0000
      7 H1         7.7007    1.7709    1.3614 H         1 RES1    0.0000
      8 C4         6.7803    0.6598    2.6852 C.ar      1 RES1    0.0000
      9 H2         7.0686   -0.1464    2.3217 H         1 RES1    0.0000
     10 C5         5.9515    0.6403    3.8320 C.ar      1 RES1    0.0000
     11 H3         5.7008   -0.1720    4.2106 H         1 RES1    0.0000
     12 C6         5.5176    1.8172    4.3876 C.ar      1 RES1    0.0000
     13 C7         3.9096    3.0490    5.7574 C.3       1 RES1    0.0000
     14 C8         3.4562    3.0490    7.2190 C.ar      1 RES1    0.0000
     15 C9         2.1200    3.0490    7.5610 C.ar      1 RES1    0.0000
     16 H4         1.4804    3.0490    6.8855 H         1 RES1    0.0000
     17 C10        1.7056    3.0490    8.8765 C.ar      1 RES1    0.0000
     18 H5         0.7972    3.0490    9.0704 H         1 RES1    0.0000
     19 C11        2.6154    3.0490    9.9024 C.ar      1 RES1    0.0000
     20 H6         2.3317    3.0490   10.7869 H         1 RES1    0.0000
     21 C12        3.9367    3.0490    9.6035 C.ar      1 RES1    0.0000
     22 H7         4.5658    3.0490   10.2875 H         1 RES1    0.0000
     23 C13        4.3481    3.0490    8.2937 C.ar      1 RES1    0.0000
     24 C14        4.1949    0.5769    6.0198 C.3       1 RES1    0.0000
     25 H8         4.8210   -0.1293    5.8408 H         1 RES1    0.0000
     26 H9         3.3721    0.4000    5.5579 H         1 RES1    0.0000
     27 H10        4.0283    0.6257    6.9642 H         1 RES1    0.0000
     28 C15        2.7250    3.0490    4.7886 C.3       1 RES1    0.0000
     29 H11        3.0478    3.0490    3.8854 H         1 RES1    0.0000
     30 H12        2.1905    2.2648    4.9376 H         1 RES1    0.0000
     31 N1F        4.7504    4.2454    5.5551 N.3       1 RES1    0.0000
     32 O1F        6.3569    4.1027    8.0932 O.2       1 RES1    0.0000
     33 C3F        7.1557    4.3040    2.1147 C.ar      1 RES1    0.0000
     34 H1F        7.7007    4.3271    1.3614 H         1 RES1    0.0000
     35 C4F        6.7803    5.4382    2.6852 C.ar      1 RES1    0.0000
     36 H2F        7.0686    6.2444    2.3217 H         1 RES1    0.0000
     37 C5F        5.9515    5.4577    3.8320 C.ar      1 RES1    0.0000
     38 H3F        5.7008    6.2700    4.2106 H         1 RES1    0.0000
     39 C6F        5.5176    4.2808    4.3876 C.ar      1 RES1    0.0000
     40 C14F       4.1949    5.5211    6.0198 C.3       1 RES1    0.0000
     41 H8F        4.8210    6.2273    5.8408 H         1 RES1    0.0000
     42 H9F        3.3721    5.6980    5.5579 H         1 RES1    0.0000
     43 H10F       4.0283    5.4723    6.9642 H         1 RES1    0.0000
     44 H12F       2.1905    3.8332    4.9376 H         1 RES1    0.0000
@<TRIPOS>BOND
     1    1   12 1
     2    2    3 2
     3    4    5 ar
     4    5    6 ar
     5    6    7 1
     6    8    6 ar
     7    9    8 1
     8   10    8 ar
     9   11   10 1
    10   12    4 ar
    11   13    1 1
    12   14   13 1
    13   15   14 ar
    14   16   15 1
    15   17   15 ar
    16   18   17 1
    17   19   17 ar
    18   20   19 1
    19   21   19 ar
    20   22   21 1
    21   23    2 1
    22   24    1 1
    23   25   24 1
    24   26   24 1
    25   27   24 1
    26   28   13 1
    27   29   28 1
    28   30   28 1
    29   31   13 1
    30   32    2 2
    31   33    5 ar
    32   34   33 1
    33   35   33 ar
    34   36   35 1
    35   37   35 ar
    36   38   37 1
    37   39    4 ar
    38   40   31 1
    39   41   40 1
    40   42   40 1
    41   43   40 1
    42   44   28 1
    43   10   12 ar
    44   14   23 ar
    45   21   23 ar
    46   31   39 1
    47   37   39 ar
@<TRIPOS>SUBSTRUCTURE
     1 RES1 1

@<TRIPOS>CRYSIN
  15.0140   12.1960    9.3693  90.0000  90.0000  90.0000  62 1

