# MOL2 file generated by ConQuest
# Please check atom types

@<TRIPOS>MOLECULE
LIFVOO
    63    67     1
SMALL
USER_CHARGES
****
Generated from CSD

@<TRIPOS>ATOM
      1 O1         2.0862    6.8279    3.3169 O.3       1 RES1    0.0000
      2 O2         1.7493    7.6129    6.4582 O.3       1 RES1    0.0000
      3 O3        -0.7488    9.3922    6.9214 O.2       1 RES1    0.0000
      4 N1         0.6416    7.9452    5.6955 N.am      1 RES1    0.0000
      5 N2        -1.9151   10.1948    4.1673 N.1       1 RES1    1.0000
      6 N3        -1.4255    9.1606    3.7335 N.2       1 RES1    0.0000
      7 C1        -0.4605    8.6473    6.0285 C.2       1 RES1    0.0000
      8 C2         2.2411    5.8874    1.0610 C.ar      1 RES1    0.0000
      9 C3         2.6715    5.9110   -0.2655 C.ar      1 RES1    0.0000
     10 H1         3.3531    6.5174   -0.5310 H         1 RES1    0.0000
     11 C4         1.2858    4.9449    1.4329 C.ar      1 RES1    0.0000
     12 H2         1.0049    4.8942    2.3394 H         1 RES1    0.0000
     13 C5         3.1690    8.2269    1.6762 C.ar      1 RES1    0.0000
     14 C6         2.5113    8.8338    0.6124 C.ar      1 RES1    0.0000
     15 H3         1.9118    8.3224    0.0823 H         1 RES1    0.0000
     16 C7         2.9052    6.7834    2.1195 C.3       1 RES1    0.0000
     17 C8         2.1085    5.0559   -1.1961 C.ar      1 RES1    0.0000
     18 H4         2.3921    5.0973   -2.1026 H         1 RES1    0.0000
     19 C9         0.8866    7.5850    3.2155 C.3       1 RES1    0.0000
     20 H5         0.3665    7.3084    2.4190 H         1 RES1    0.0000
     21 H6         1.0892    8.5514    3.1433 H         1 RES1    0.0000
     22 C10        1.1409    4.1419   -0.8270 C.ar      1 RES1    0.0000
     23 H7         0.7567    3.5626   -1.4745 H         1 RES1    0.0000
     24 C11        4.0020    9.0178    2.4643 C.ar      1 RES1    0.0000
     25 H8         4.4517    8.6293    3.2053 H         1 RES1    0.0000
     26 N4        -2.3783   11.1961    4.4282 N.2       1 RES1   -1.0000
     27 C12        4.1573    5.1402    3.5975 C.ar      1 RES1    0.0000
     28 H9         3.3499    4.9919    4.0758 H         1 RES1    0.0000
     29 C13        3.5560   10.9417    1.0980 C.ar      1 RES1    0.0000
     30 H10        3.7003   11.8575    0.8927 H         1 RES1    0.0000
     31 C14        4.1831    6.0501    2.5522 C.ar      1 RES1    0.0000
     32 C15        5.3687    6.2227    1.8436 C.ar      1 RES1    0.0000
     33 H11        5.3972    6.8320    1.1156 H         1 RES1    0.0000
     34 C16        0.1148    7.2977    4.4772 C.3       1 RES1    0.0000
     35 H12       -0.0422    6.3189    4.6077 H         1 RES1    0.0000
     36 C17        2.7125   10.1725    0.3117 C.ar      1 RES1    0.0000
     37 H13        2.2728   10.5625   -0.4348 H         1 RES1    0.0000
     38 C18        3.9881    8.1067    7.0646 C.ar      1 RES1    0.0000
     39 C19       -1.1634    8.1373    4.7501 C.3       1 RES1    0.0000
     40 H14       -1.9637    7.5726    4.9471 H         1 RES1    0.0000
     41 C20        0.7382    4.0773    0.4921 C.ar      1 RES1    0.0000
     42 H15        0.0863    3.4389    0.7576 H         1 RES1    0.0000
     43 C21        5.3030    4.4451    3.9481 C.ar      1 RES1    0.0000
     44 H16        5.2795    3.8329    4.6733 H         1 RES1    0.0000
     45 C22        4.4918    8.7928    8.1497 C.ar      1 RES1    0.0000
     46 H17        4.0749    9.5959    8.4392 H         1 RES1    0.0000
     47 C23        6.5053    5.5141    2.1896 C.ar      1 RES1    0.0000
     48 H18        7.3059    5.6348    1.6938 H         1 RES1    0.0000
     49 C24        6.2164    7.1435    8.4142 C.ar      1 RES1    0.0000
     50 H19        6.9825    6.8182    8.8721 H         1 RES1    0.0000
     51 C25        2.7921    8.6143    6.3051 C.3       1 RES1    0.0000
     52 H20        2.4934    9.4844    6.6714 H         1 RES1    0.0000
     53 H21        3.0169    8.7347    5.3486 H         1 RES1    0.0000
     54 C26        4.6050    6.9370    6.6668 C.ar      1 RES1    0.0000
     55 H22        4.2668    6.4594    5.9184 H         1 RES1    0.0000
     56 C27        4.1851   10.3605    2.1831 C.ar      1 RES1    0.0000
     57 H23        4.7474   10.8863    2.7400 H         1 RES1    0.0000
     58 C28        5.7078    6.4531    7.3421 C.ar      1 RES1    0.0000
     59 H24        6.1161    5.6409    7.0646 H         1 RES1    0.0000
     60 C29        5.6106    8.3069    8.8212 C.ar      1 RES1    0.0000
     61 H25        5.9584    8.7835    9.5659 H         1 RES1    0.0000
     62 C30        6.4814    4.6353    3.2497 C.ar      1 RES1    0.0000
     63 H26        7.2668    4.1642    3.4985 H         1 RES1    0.0000
@<TRIPOS>BOND
     1    1   16 1
     2    2    4 1
     3    3    7 2
     4    4    7 1
     5    5    6 2
     6    6   39 1
     7    7   39 1
     8    8    9 ar
     9    9   10 1
    10   11    8 ar
    11   12   11 1
    12   13   14 ar
    13   14   15 1
    14   16    8 1
    15   17    9 ar
    16   18   17 1
    17   19    1 1
    18   20   19 1
    19   21   19 1
    20   22   17 ar
    21   23   22 1
    22   24   13 ar
    23   25   24 1
    24   26    5 2
    25   27   28 1
    26   29   30 1
    27   31   16 1
    28   32   31 ar
    29   33   32 1
    30   34    4 1
    31   35   34 1
    32   36   14 ar
    33   37   36 1
    34   38   45 ar
    35   39   34 1
    36   40   39 1
    37   41   11 ar
    38   42   41 1
    39   43   27 ar
    40   44   43 1
    41   45   46 1
    42   47   32 ar
    43   48   47 1
    44   49   50 1
    45   51    2 1
    46   52   51 1
    47   53   51 1
    48   54   38 ar
    49   55   54 1
    50   56   24 ar
    51   57   56 1
    52   58   49 ar
    53   59   58 1
    54   60   45 ar
    55   61   60 1
    56   62   43 ar
    57   63   62 1
    58   13   16 1
    59   19   34 1
    60   22   41 ar
    61   27   31 ar
    62   29   36 ar
    63   29   56 ar
    64   38   51 1
    65   47   62 ar
    66   49   60 ar
    67   54   58 ar
@<TRIPOS>SUBSTRUCTURE
     1 RES1 1

@<TRIPOS>CRYSIN
   9.0322   15.2704    9.3980  90.0000 100.1660  90.0000   4 1

