# MOL2 file generated by ConQuest
# Please check atom types

@<TRIPOS>MOLECULE
LIGHER
    54    57     1
SMALL
NO_CHARGES
****
Generated from CSD

@<TRIPOS>ATOM
      1 O1         5.6219    1.5901    0.9086 O.3       1 RES1    0.0000
      2 O2         4.2286    8.7892   -7.7377 O.3       1 RES1    0.0000
      3 N1         5.5649   -2.1766    4.9655 N.pl3     1 RES1    0.0000
      4 O3         5.4037   -3.3422    4.6305 O.2       1 RES1    0.0000
      5 O4         5.6911   -1.8493    6.1309 O.2       1 RES1    0.0000
      6 N2         4.0452   12.1304  -12.1588 N.pl3     1 RES1    0.0000
      7 O5         3.9223   13.3288  -11.9411 O.2       1 RES1    0.0000
      8 O6         4.1229   11.6662  -13.2796 O.2       1 RES1    0.0000
      9 C1         5.5983   -1.1546    3.9334 C.ar      1 RES1    0.0000
     10 C2         5.5832    0.1685    4.2848 C.ar      1 RES1    0.0000
     11 H1         5.5679    0.4152    5.1817 H         1 RES1    0.0000
     12 C3         5.5904    1.1329    3.2969 C.ar      1 RES1    0.0000
     13 H2         5.5758    2.0354    3.5213 H         1 RES1    0.0000
     14 C4         5.6186    0.7429    1.9705 C.ar      1 RES1    0.0000
     15 C5         5.6550   -0.6041    1.6328 C.ar      1 RES1    0.0000
     16 H3         5.6898   -0.8590    0.7388 H         1 RES1    0.0000
     17 C6         5.6402   -1.5546    2.6130 C.ar      1 RES1    0.0000
     18 H4         5.6583   -2.4584    2.3947 H         1 RES1    0.0000
     19 C7         5.5108    2.9966    1.1518 C.3       1 RES1    0.0000
     20 H5         6.3088    3.3265    1.5925 H         1 RES1    0.0000
     21 H6         4.7450    3.1818    1.7179 H         1 RES1    0.0000
     22 C8         5.3425    3.6574   -0.1837 C.ar      1 RES1    0.0000
     23 C9         6.3232    4.4577   -0.7131 C.ar      1 RES1    0.0000
     24 H7         7.1165    4.5784   -0.2433 H         1 RES1    0.0000
     25 C10        6.1545    5.0917   -1.9394 C.ar      1 RES1    0.0000
     26 H8         6.8338    5.6306   -2.2767 H         1 RES1    0.0000
     27 C11        4.9835    4.9287   -2.6649 C.ar      1 RES1    0.0000
     28 C12        4.0016    4.1091   -2.1255 C.ar      1 RES1    0.0000
     29 H9         3.2080    3.9791   -2.5923 H         1 RES1    0.0000
     30 C13        4.1813    3.4828   -0.9066 C.ar      1 RES1    0.0000
     31 H10        3.5087    2.9363   -0.5692 H         1 RES1    0.0000
     32 C14        4.7792    5.6032   -3.9796 C.ar      1 RES1    0.0000
     33 C15        5.8398    5.8266   -4.8399 C.ar      1 RES1    0.0000
     34 H11        6.6994    5.5838   -4.5815 H         1 RES1    0.0000
     35 C16        5.6392    6.4080   -6.0829 C.ar      1 RES1    0.0000
     36 H12        6.3669    6.5501   -6.6444 H         1 RES1    0.0000
     37 C17        4.3798    6.7784   -6.4995 C.ar      1 RES1    0.0000
     38 C18        3.3265    6.5775   -5.6416 C.ar      1 RES1    0.0000
     39 H13        2.4701    6.8324   -5.8998 H         1 RES1    0.0000
     40 C19        3.5203    5.9999   -4.3938 C.ar      1 RES1    0.0000
     41 H14        2.7921    5.8775   -3.8280 H         1 RES1    0.0000
     42 C20        4.1752    7.3662   -7.8642 C.3       1 RES1    0.0000
     43 H15        4.8686    7.0579   -8.4685 H         1 RES1    0.0000
     44 H16        3.3143    7.0944   -8.2193 H         1 RES1    0.0000
     45 C21        4.1661    9.5293   -8.8731 C.ar      1 RES1    0.0000
     46 C22        4.2027   10.8978   -8.6839 C.ar      1 RES1    0.0000
     47 H17        4.2569   11.2438   -7.8226 H         1 RES1    0.0000
     48 C23        4.1592   11.7456   -9.7557 C.ar      1 RES1    0.0000
     49 H18        4.1769   12.6665   -9.6290 H         1 RES1    0.0000
     50 C24        4.0887   11.2191  -11.0198 C.ar      1 RES1    0.0000
     51 C25        4.0657    9.8739  -11.2322 C.ar      1 RES1    0.0000
     52 H19        4.0334    9.5380  -12.0989 H         1 RES1    0.0000
     53 C26        4.0916    9.0112  -10.1529 C.ar      1 RES1    0.0000
     54 H20        4.0596    8.0914  -10.2867 H         1 RES1    0.0000
@<TRIPOS>BOND
     1    1   14 1
     2    2   42 1
     3    3    4 2
     4    5    3 2
     5    6    7 2
     6    8    6 2
     7    9    3 1
     8   10    9 ar
     9   11   10 1
    10   12   10 ar
    11   13   12 1
    12   14   12 ar
    13   15   14 ar
    14   16   15 1
    15   17    9 ar
    16   18   17 1
    17   19    1 1
    18   20   19 1
    19   21   19 1
    20   22   19 1
    21   23   22 ar
    22   24   23 1
    23   25   23 ar
    24   26   25 1
    25   27   25 ar
    26   28   27 ar
    27   29   28 1
    28   30   22 ar
    29   31   30 1
    30   32   27 1
    31   33   32 ar
    32   34   33 1
    33   35   33 ar
    34   36   35 1
    35   37   35 ar
    36   38   37 ar
    37   39   38 1
    38   40   32 ar
    39   41   40 1
    40   42   37 1
    41   43   42 1
    42   44   42 1
    43   45    2 1
    44   46   45 ar
    45   47   46 1
    46   48   46 ar
    47   49   48 1
    48   50    6 1
    49   51   50 ar
    50   52   51 1
    51   53   45 ar
    52   54   53 1
    53   15   17 ar
    54   28   30 ar
    55   38   40 ar
    56   48   50 ar
    57   51   53 ar
@<TRIPOS>SUBSTRUCTURE
     1 RES1 1

@<TRIPOS>CRYSIN
   6.7200   11.4046   14.7983  86.6718  85.7600  74.9499   2 1

