# MOL2 file generated by ConQuest
# Please check atom types

@<TRIPOS>MOLECULE
LIGTOL
    50    53     1
SMALL
NO_CHARGES
****
Generated from CSD

@<TRIPOS>ATOM
      1 C1         1.4551    4.6089    1.0249 C.3       1 RES1    0.0000
      2 H1         0.5344    4.3100    1.2329 H         1 RES1    0.0000
      3 H2         1.3836    5.3299    0.3509 H         1 RES1    0.0000
      4 C2         2.1970    3.4390    0.3858 C.3       1 RES1    0.0000
      5 H3         1.9897    3.4050   -0.5923 H         1 RES1    0.0000
      6 C3         3.7159    3.4945    0.5873 C.3       1 RES1    0.0000
      7 H4         4.1655    2.6913    0.1957 H         1 RES1    0.0000
      8 C4         3.9856    3.6078    2.0986 C.3       1 RES1    0.0000
      9 H5         3.4139    2.9920    2.6223 H         1 RES1    0.0000
     10 H6         4.9366    3.4452    2.3170 H         1 RES1    0.0000
     11 C5         3.5949    5.0644    2.3123 C.3       1 RES1    0.0000
     12 C6         4.2172    5.6674    3.5755 C.3       1 RES1    0.0000
     13 H7         4.1251    5.0195    4.3183 H         1 RES1    0.0000
     14 H8         5.1848    5.8094    3.4194 H         1 RES1    0.0000
     15 C7         3.5948    6.9705    3.9864 C.2       1 RES1    0.0000
     16 H9         4.0328    7.4891    4.6510 H         1 RES1    0.0000
     17 C8         2.4704    7.4316    3.4728 C.2       1 RES1    0.0000
     18 H10        2.1322    8.2596    3.7939 H         1 RES1    0.0000
     19 C9         1.6962    6.7098    2.4018 C.3       1 RES1    0.0000
     20 H11        1.8746    7.1412    1.5290 H         1 RES1    0.0000
     21 H12        0.7281    6.7962    2.5897 H         1 RES1    0.0000
     22 C10        2.0582    5.2146    2.3066 C.3       1 RES1    0.0000
     23 O1         1.7121    2.2054    1.0391 O.3       1 RES1    0.0000
     24 C11        1.8084    1.0783    0.3348 C.2       1 RES1    0.0000
     25 O2         2.2365    1.0011   -0.7933 O.2       1 RES1    0.0000
     26 C12        1.3292   -0.1161    1.1003 C.ar      1 RES1    0.0000
     27 C13        0.7966   -0.0065    2.3820 C.ar      1 RES1    0.0000
     28 H13        0.7129    0.8454    2.7932 H         1 RES1    0.0000
     29 C14        0.3879   -1.1523    3.0588 C.ar      1 RES1    0.0000
     30 H14        0.0474   -1.0990    3.9439 H         1 RES1    0.0000
     31 C15        0.4905   -2.3691    2.4108 C.ar      1 RES1    0.0000
     32 C16        0.9957   -2.5025    1.1264 C.ar      1 RES1    0.0000
     33 H15        1.0387   -3.3523    0.7045 H         1 RES1    0.0000
     34 C17        1.4360   -1.3588    0.4737 C.ar      1 RES1    0.0000
     35 H16        1.8085   -1.4219   -0.3979 H         1 RES1    0.0000
     36 N1         0.0308   -3.5831    3.1059 N.pl3     1 RES1    0.0000
     37 O3         0.0276   -3.5654    4.3344 O.2       1 RES1    0.0000
     38 O4        -0.3106   -4.5436    2.4254 O.2       1 RES1    0.0000
     39 C18        4.3463    4.8080    0.0622 C.3       1 RES1    0.0000
     40 O5         4.0815    5.7683    1.1342 O.3       1 RES1    0.0000
     41 C19        3.7668    5.3606   -1.2347 C.3       1 RES1    0.0000
     42 H17        4.2313    6.1892   -1.4729 H         1 RES1    0.0000
     43 H18        2.8124    5.5447   -1.1128 H         1 RES1    0.0000
     44 H19        3.8840    4.7022   -1.9517 H         1 RES1    0.0000
     45 C20        5.8639    4.6561   -0.0992 C.3       1 RES1    0.0000
     46 H20        6.2435    5.4976   -0.4292 H         1 RES1    0.0000
     47 H21        6.0546    3.9386   -0.7397 H         1 RES1    0.0000
     48 H22        6.2650    4.4361    0.7671 H         1 RES1    0.0000
     49 O6         1.5316    4.4844    3.4357 O.3       1 RES1    0.0000
     50 H23        1.4550    5.0555    4.1265 H         1 RES1    0.0000
@<TRIPOS>BOND
     1    1    2 1
     2    3    1 1
     3    4    1 1
     4    5    4 1
     5    6    4 1
     6    7    6 1
     7    8    6 1
     8    9    8 1
     9   10    8 1
    10   11    8 1
    11   12   11 1
    12   13   12 1
    13   14   12 1
    14   15   12 1
    15   16   15 1
    16   17   15 2
    17   18   17 1
    18   19   17 1
    19   20   19 1
    20   21   19 1
    21   22    1 1
    22   23    4 1
    23   24   23 1
    24   25   24 2
    25   26   24 1
    26   27   26 ar
    27   28   27 1
    28   29   27 ar
    29   30   29 1
    30   31   29 ar
    31   32   31 ar
    32   33   32 1
    33   34   26 ar
    34   35   34 1
    35   36   31 1
    36   37   36 2
    37   38   36 2
    38   39    6 1
    39   40   11 1
    40   41   39 1
    41   42   41 1
    42   43   41 1
    43   44   41 1
    44   45   39 1
    45   46   45 1
    46   47   45 1
    47   48   45 1
    48   49   22 1
    49   50   49 1
    50   11   22 1
    51   19   22 1
    52   32   34 ar
    53   39   40 1
@<TRIPOS>SUBSTRUCTURE
     1 RES1 1

@<TRIPOS>CRYSIN
  10.0695   13.8584   13.4105  90.0000 103.3840  90.0000  14 1

