# MOL2 file generated by ConQuest
# Please check atom types

@<TRIPOS>MOLECULE
LIGYEF
    35    37     1
SMALL
NO_CHARGES
****
Generated from CSD

@<TRIPOS>ATOM
      1 O1         2.1443    5.4684   -0.1204 O.3       1 RES1    0.0000
      2 O2         2.2015    5.1099    4.1513 O.2       1 RES1    0.0000
      3 O3         0.9636    3.4908    3.6757 O.2       1 RES1    0.0000
      4 N1         1.7390    4.3408    3.3519 N.pl3     1 RES1    0.0000
      5 C1        -0.5826    5.4853    1.4008 C.ar      1 RES1    0.0000
      6 C2        -1.8725    5.9578    1.5082 C.ar      1 RES1    0.0000
      7 C3        -2.0847    7.3181    1.6810 C.ar      1 RES1    0.0000
      8 C4        -1.0093    8.1820    1.7246 C.ar      1 RES1    0.0000
      9 C5         0.2960    7.7182    1.6083 C.ar      1 RES1    0.0000
     10 C6         0.5232    6.3441    1.4552 C.ar      1 RES1    0.0000
     11 C7         1.4295    8.7137    1.6538 C.3       1 RES1    0.0000
     12 C8         2.7334    8.1599    1.1205 C.3       1 RES1    0.0000
     13 C9         3.0038    6.7968    1.7402 C.3       1 RES1    0.0000
     14 C10        1.9301    5.8017    1.2701 C.3       1 RES1    0.0000
     15 C11        2.1441    4.3983    1.9021 C.3       1 RES1    0.0000
     16 C12        3.5891    3.9086    1.7572 C.3       1 RES1    0.0000
     17 C13        4.6412    4.9258    2.1484 C.3       1 RES1    0.0000
     18 C14        4.4085    6.2642    1.4586 C.3       1 RES1    0.0000
     19 H1         1.7427    6.1417   -0.6871 H         1 RES1    0.0000
     20 H2        -0.4539    4.4584    1.2518 H         1 RES1    0.0000
     21 H3        -2.6665    5.2594    1.4831 H         1 RES1    0.0000
     22 H4        -3.0827    7.7519    1.7280 H         1 RES1    0.0000
     23 H5        -1.1312    9.2102    1.8641 H         1 RES1    0.0000
     24 H6         1.1464    9.6392    1.1429 H         1 RES1    0.0000
     25 H7         1.5978    8.9909    2.6192 H         1 RES1    0.0000
     26 H8         3.5350    8.8186    1.3266 H         1 RES1    0.0000
     27 H9         2.6516    8.0825    0.0748 H         1 RES1    0.0000
     28 H10        2.8689    6.9324    2.7757 H         1 RES1    0.0000
     29 H11        1.4671    3.7650    1.4355 H         1 RES1    0.0000
     30 H12        3.6385    3.6810    0.7824 H         1 RES1    0.0000
     31 H13        3.6873    3.0688    2.2246 H         1 RES1    0.0000
     32 H14        5.5736    4.5656    1.9933 H         1 RES1    0.0000
     33 H15        4.6632    5.1535    3.1770 H         1 RES1    0.0000
     34 H16        4.5207    6.1510    0.3946 H         1 RES1    0.0000
     35 H17        5.0865    6.8742    1.8504 H         1 RES1    0.0000
@<TRIPOS>BOND
     1    1   14 1
     2    2    4 2
     3    3    4 2
     4    4   15 1
     5    5    6 ar
     6    6    7 ar
     7    7    8 ar
     8    8    9 ar
     9    9   10 ar
    10   10    5 ar
    11   11    9 1
    12   12   11 1
    13   13   12 1
    14   14   10 1
    15   15   14 1
    16   16   15 1
    17   17   16 1
    18   18   13 1
    19   19    1 1
    20   20    5 1
    21   21    6 1
    22   22    7 1
    23   23    8 1
    24   24   11 1
    25   25   11 1
    26   26   12 1
    27   27   12 1
    28   28   13 1
    29   29   15 1
    30   30   16 1
    31   31   16 1
    32   32   17 1
    33   33   17 1
    34   34   18 1
    35   35   18 1
    36   13   14 1
    37   17   18 1
@<TRIPOS>SUBSTRUCTURE
     1 RES1 1

@<TRIPOS>CRYSIN
  10.5490    8.5300    7.1310 107.0700  91.6200  96.2700   2 1

