# MOL2 file generated by ConQuest
# Please check atom types

@<TRIPOS>MOLECULE
LIHLUM
    41    39     2
SMALL
NO_CHARGES
****
Generated from CSD

@<TRIPOS>ATOM
      1 C1         1.3998    2.7048    6.8920 C.2       1 RES1    0.0000
      2 C2         0.8185    2.3185    8.2348 C.3       1 RES1    0.0000
      3 H1        -0.0561    1.8737    8.0981 H         1 RES1    0.0000
      4 H2         0.6662    3.1340    8.7744 H         1 RES1    0.0000
      5 C3         1.8589    2.1260    9.3514 C.3       1 RES1    0.0000
      6 H3         2.2506    3.0037    9.6260 H         1 RES1    0.0000
      7 C4         2.9389    1.1959    8.8227 C.3       1 RES1    0.0000
      8 H4         2.5396    0.3289    8.5239 H         1 RES1    0.0000
      9 C5         1.4050    1.3352   10.5648 C.3       1 RES1    0.0000
     10 H5         1.2587    2.2434   10.9301 H         1 RES1    0.0000
     11 H6         0.6102    0.7741   10.7487 H         1 RES1    0.0000
     12 C6         2.6971    0.6962   11.1213 C.3       1 RES1    0.0000
     13 H7         2.9317    1.0935   11.9971 H         1 RES1    0.0000
     14 H8         2.5795   -0.2802   11.2374 H         1 RES1    0.0000
     15 C7         3.7935    0.9879   10.0857 C.3       1 RES1    0.0000
     16 H9         4.0912    0.1485    9.6526 H         1 RES1    0.0000
     17 H10        4.5739    1.4135   10.5212 H         1 RES1    0.0000
     18 C8         3.6892    1.8764    7.6553 C.3       1 RES1    0.0000
     19 H11        3.8484    0.9287    7.4170 H         1 RES1    0.0000
     20 H12        4.5513    2.3599    7.5985 H         1 RES1    0.0000
     21 C9         3.8789    4.0330    5.4391 C.3       1 RES1    0.0000
     22 H13        4.7581    3.9943    5.8927 H         1 RES1    0.0000
     23 H14        3.3111    4.6957    5.9060 H         1 RES1    0.0000
     24 C10        4.0506    4.4168    3.9994 C.ar      1 RES1    0.0000
     25 C11        5.2922    4.7849    3.5180 C.ar      1 RES1    0.0000
     26 H15        6.0491    4.7578    4.0902 H         1 RES1    0.0000
     27 C12        5.4372    5.1959    2.1981 C.ar      1 RES1    0.0000
     28 H16        6.2896    5.4617    1.8751 H         1 RES1    0.0000
     29 C13        4.3410    5.2168    1.3549 C.ar      1 RES1    0.0000
     30 H17        4.4404    5.5039    0.4549 H         1 RES1    0.0000
     31 C14        3.1067    4.8224    1.8183 C.ar      1 RES1    0.0000
     32 H18        2.3597    4.8161    1.2327 H         1 RES1    0.0000
     33 C15        2.9522    4.4320    3.1526 C.ar      1 RES1    0.0000
     34 H19        2.0967    4.1772    3.4780 H         1 RES1    0.0000
     35 N1         2.7243    2.4680    6.7243 N.am      1 RES1    0.0000
     36 O1         0.7192    3.2268    6.0118 O.2       1 RES1    0.0000
     37 O2         3.2467    2.7296    5.4535 O.3       1 RES1    0.0000
     38 C16        1.7552    1.3748    8.9933 Du        2 SUP2    0.0000
     39 H20        1.7508    0.4576    8.5941 Du        2 SUP2    0.0000
     40 C17        3.1582    1.9658    9.0139 Du        2 SUP2    0.0000
     41 H21        3.1513    2.9103    9.3405 Du        2 SUP2    0.0000
@<TRIPOS>BOND
     1    1    2 1
     2    2    3 1
     3    4    2 1
     4    5    2 1
     5    6    5 1
     6    7    5 1
     7    8    7 1
     8    9    5 1
     9   10    9 1
    10   11    9 1
    11   12    9 1
    12   13   12 1
    13   14   12 1
    14   15    7 1
    15   16   15 1
    16   17   15 1
    17   18    7 1
    18   19   18 1
    19   20   18 1
    20   21   22 1
    21   23   21 1
    22   24   21 1
    23   25   24 ar
    24   26   25 1
    25   27   25 ar
    26   28   27 1
    27   29   27 ar
    28   30   29 1
    29   31   29 ar
    30   32   31 1
    31   33   24 ar
    32   34   33 1
    33   35    1 1
    34   36    1 2
    35   37   21 1
    36   12   15 1
    37   18   35 1
    38   31   33 ar
    39   35   37 1
@<TRIPOS>SUBSTRUCTURE
     1 RES1 1
     2 SUP2 38

@<TRIPOS>CRYSIN
   6.5128    8.1908   12.6746  77.5170  76.4540  81.8250   2 1

