# MOL2 file generated by ConQuest
# Please check atom types

@<TRIPOS>MOLECULE
LIHWEF
    32    34     1
SMALL
NO_CHARGES
****
Generated from CSD

@<TRIPOS>ATOM
      1 O1         3.4748    1.2885    8.3028 O.2       1 RES1    0.0000
      2 O2         3.0938    0.2382   10.1906 O.3       1 RES1    0.0000
      3 O3         0.6756   -2.3121    8.1882 O.2       1 RES1    0.0000
      4 O4         3.1358   -1.2810    2.0176 O.2       1 RES1    0.0000
      5 O5         1.7124    0.2909    1.9708 O.2       1 RES1    0.0000
      6 N1         2.1577   -0.5755    8.1952 N.am      1 RES1    0.0000
      7 N2         2.4072   -0.4865    2.5670 N.pl3     1 RES1    0.0000
      8 C1         2.9453    0.3698    8.8674 C.2       1 RES1    0.0000
      9 C2         2.6530   -1.0178   10.7565 C.3       1 RES1    0.0000
     10 H1         3.0678   -1.8224   10.3717 H         1 RES1    0.0000
     11 C3         2.5763   -1.0109   12.2596 C.3       1 RES1    0.0000
     12 H2         2.3043   -0.1417   12.5927 H         1 RES1    0.0000
     13 H3         3.4269   -1.2528   12.6570 H         1 RES1    0.0000
     14 C4         1.5095   -2.0713   12.5464 C.3       1 RES1    0.0000
     15 H4         0.8471   -1.7201   13.1600 H         1 RES1    0.0000
     16 H5         1.9174   -2.8541   12.9486 H         1 RES1    0.0000
     17 C5         0.8489   -2.4453   11.2130 C.3       1 RES1    0.0000
     18 C6         1.2817   -1.3284   10.2976 C.3       1 RES1    0.0000
     19 H6         0.7199   -0.5494   10.4922 H         1 RES1    0.0000
     20 C7         1.3070   -1.5086    8.8248 C.2       1 RES1    0.0000
     21 C8         2.2146   -0.5446    6.7491 C.ar      1 RES1    0.0000
     22 C9         2.8766   -1.5554    6.0898 C.ar      1 RES1    0.0000
     23 H7         3.2439   -2.2221    6.5452 H         1 RES1    0.0000
     24 C10        2.9491   -1.5363    4.7096 C.ar      1 RES1    0.0000
     25 H8         3.4129   -2.1848    4.2520 H         1 RES1    0.0000
     26 C11        2.3434   -0.5030    4.0393 C.ar      1 RES1    0.0000
     27 C12        1.6774    0.5100    4.6756 C.ar      1 RES1    0.0000
     28 H9         1.2201    1.2203    4.2145 H         1 RES1    0.0000
     29 C13        1.6212    0.4849    6.0579 C.ar      1 RES1    0.0000
     30 H10        1.1679    1.1670    6.5158 H         1 RES1    0.0000
     31 H11        1.1853   -3.2825   10.9337 H         1 RES1    0.0000
     32 H12       -0.0697   -2.5098   11.2816 H         1 RES1    0.0000
@<TRIPOS>BOND
     1    1    8 2
     2    2    8 1
     3    3   20 2
     4    4    7 2
     5    5    7 2
     6    6    8 1
     7    7   26 1
     8    9    2 1
     9   10    9 1
    10   11    9 1
    11   12   11 1
    12   13   11 1
    13   14   11 1
    14   15   14 1
    15   16   14 1
    16   17   14 1
    17   18    9 1
    18   19   18 1
    19   20    6 1
    20   21    6 1
    21   22   21 ar
    22   23   22 1
    23   24   22 ar
    24   25   24 1
    25   26   24 ar
    26   27   26 ar
    27   28   27 1
    28   29   21 ar
    29   30   29 1
    30   31   17 1
    31   32   17 1
    32   17   18 1
    33   18   20 1
    34   27   29 ar
@<TRIPOS>SUBSTRUCTURE
     1 RES1 1

@<TRIPOS>CRYSIN
  17.4307    5.3287   26.7589  90.0000  90.0000  90.0000  60 1

