# MOL2 file generated by ConQuest
# Please check atom types

@<TRIPOS>MOLECULE
LIJKEV
    23    24     1
SMALL
NO_CHARGES
****
Generated from CSD

@<TRIPOS>ATOM
      1 N1         3.3086    1.2976   12.8294 N.pl3     1 RES1    0.0000
      2 C1         3.5741    1.1595   11.4465 C.ar      1 RES1    0.0000
      3 C2         2.5846    0.7519   10.6004 C.ar      1 RES1    0.0000
      4 H1         1.7382    0.5943   10.9512 H         1 RES1    0.0000
      5 N2         2.7743    0.5712    9.3072 N.ar      1 RES1    0.0000
      6 C3         3.9840    0.7940    8.8334 C.ar      1 RES1    0.0000
      7 H2         4.1283    0.6726    7.9222 H         1 RES1    0.0000
      8 C4         5.0324    1.1909    9.6014 C.ar      1 RES1    0.0000
      9 H3         5.8707    1.3328    9.2244 H         1 RES1    0.0000
     10 C5         4.8292    1.3780   10.9438 C.ar      1 RES1    0.0000
     11 H4         5.5252    1.6460   11.4984 H         1 RES1    0.0000
     12 C6         2.2507    1.9300   13.4362 C.2       1 RES1    0.0000
     13 C7         1.2163    2.6773   12.7253 C.3       1 RES1    0.0000
     14 H5         0.8578    3.3557   13.3029 H         1 RES1    0.0000
     15 H6         0.5139    2.0786   12.4597 H         1 RES1    0.0000
     16 H7         1.5975    3.0893   11.9469 H         1 RES1    0.0000
     17 N3         2.3033    1.7988   14.7244 N.2       1 RES1    0.0000
     18 C8         3.4124    1.0738   14.9355 C.2       1 RES1    0.0000
     19 N4         3.7659    0.6637   16.2360 N.pl3     1 RES1    0.0000
     20 O1         3.0460    0.9834   17.1631 O.2       1 RES1    0.0000
     21 O2         4.7651   -0.0072   16.3635 O.2       1 RES1    0.0000
     22 C9         4.0633    0.7513   13.8071 C.2       1 RES1    0.0000
     23 H8         4.8508    0.2649   13.7185 H         1 RES1    0.0000
@<TRIPOS>BOND
     1    1    2 1
     2    2    3 ar
     3    3    4 1
     4    5    3 ar
     5    6    5 ar
     6    7    6 1
     7    8    6 ar
     8    9    8 1
     9   10    2 ar
    10   11   10 1
    11   12    1 1
    12   13   12 1
    13   14   13 1
    14   15   13 1
    15   16   13 1
    16   17   12 2
    17   18   17 1
    18   19   18 1
    19   20   19 2
    20   21   19 2
    21   22    1 1
    22   23   22 1
    23    8   10 ar
    24   18   22 2
@<TRIPOS>SUBSTRUCTURE
     1 RES1 1

@<TRIPOS>CRYSIN
   8.1315    7.3189   15.1040  90.0000  98.1780  90.0000 231 1

