# MOL2 file generated by ConQuest
# Please check atom types

@<TRIPOS>MOLECULE
LIJLEW
    23    23     1
SMALL
NO_CHARGES
****
Generated from CSD

@<TRIPOS>ATOM
      1 O1        -1.3504    1.0107    0.3324 O.3       1 RES1    0.0000
      2 H1        -1.1281    0.3351   -0.3234 H         1 RES1    0.0000
      3 O2         1.5988    2.4547    5.0690 O.3       1 RES1    0.0000
      4 H2         1.4074    3.1247    5.7166 H         1 RES1    0.0000
      5 N1         2.5163    0.5520    2.2164 N.2       1 RES1    0.0000
      6 N2         1.5831    0.6178    3.2209 N.pl3     1 RES1    0.0000
      7 N3        -0.3316    0.8402    1.2627 N.2       1 RES1    0.0000
      8 N4         0.6051    2.5925    4.1305 N.2       1 RES1    0.0000
      9 C1         0.7432   -0.6220    5.2154 C.3       1 RES1    0.0000
     10 H3         0.7057    0.1863    5.7318 H         1 RES1    0.0000
     11 H4         1.0595   -1.3406    5.7680 H         1 RES1    0.0000
     12 H5        -0.1350   -0.8329    4.8881 H         1 RES1    0.0000
     13 C2         1.6723   -0.4338    4.0631 C.2       1 RES1    0.0000
     14 C3         2.7109   -1.1924    3.5973 C.2       1 RES1    0.0000
     15 H6         3.0276   -1.9843    3.9683 H         1 RES1    0.0000
     16 C4         3.2030   -0.5550    2.4625 C.2       1 RES1    0.0000
     17 C5         4.3275   -0.9670    1.5638 C.3       1 RES1    0.0000
     18 H7         4.0305   -0.9512    0.6506 H         1 RES1    0.0000
     19 H8         4.6111   -1.8561    1.7920 H         1 RES1    0.0000
     20 H9         5.0634   -0.3598    1.6712 H         1 RES1    0.0000
     21 C6         0.6384    1.6811    3.2279 C.2       1 RES1    0.0000
     22 C7        -0.3583    1.7274    2.1732 C.2       1 RES1    0.0000
     23 H10       -1.0315    2.4742    2.2163 H         1 RES1    0.0000
@<TRIPOS>BOND
     1    1    2 1
     2    3    4 1
     3    5    6 1
     4    6   13 1
     5    7    1 1
     6    8    3 1
     7    9   10 1
     8   11    9 1
     9   12    9 1
    10   13    9 1
    11   14   13 2
    12   15   14 1
    13   16    5 2
    14   17   16 1
    15   18   17 1
    16   19   17 1
    17   20   17 1
    18   21    6 1
    19   22    7 2
    20   23   22 1
    21    8   21 2
    22   14   16 1
    23   21   22 1
@<TRIPOS>SUBSTRUCTURE
     1 RES1 1

@<TRIPOS>CRYSIN
   9.7598    9.8572    9.8140  90.0000 104.2540  90.0000  14 1

