# MOL2 file generated by ConQuest
# Please check atom types

@<TRIPOS>MOLECULE
LIJRAY
    30    33     1
SMALL
NO_CHARGES
****
Generated from CSD

@<TRIPOS>ATOM
      1 O1        -1.6131    1.7255    9.0815 O.3       1 RES1    0.0000
      2 N1        -3.0008    1.4901    9.2919 N.2       1 RES1    0.0000
      3 N2         1.2793    1.3539    7.8252 N.3       1 RES1    0.0000
      4 C1        -3.3340    0.4789    8.5151 C.2       1 RES1    0.0000
      5 C2        -2.2175    0.0107    7.7725 C.ar      1 RES1    0.0000
      6 C3        -2.0290   -1.0041    6.8118 C.ar      1 RES1    0.0000
      7 C4        -0.7759   -1.1627    6.2751 C.ar      1 RES1    0.0000
      8 C5         0.2797   -0.3264    6.6615 C.ar      1 RES1    0.0000
      9 C6         1.6424   -0.2334    6.2431 C.ar      1 RES1    0.0000
     10 C7         2.4087   -0.9080    5.2838 C.ar      1 RES1    0.0000
     11 C8         3.7237   -0.5287    5.1124 C.ar      1 RES1    0.0000
     12 C9         4.2871    0.4870    5.8837 C.ar      1 RES1    0.0000
     13 C10        3.5689    1.1846    6.8300 C.ar      1 RES1    0.0000
     14 C11        2.2395    0.8089    6.9811 C.ar      1 RES1    0.0000
     15 C12        0.1001    0.6843    7.6318 C.ar      1 RES1    0.0000
     16 C13       -1.1884    0.8226    8.1505 C.ar      1 RES1    0.0000
     17 C14       -4.7347   -0.0259    8.5047 C.3       1 RES1    0.0000
     18 C15        4.1886    2.2756    7.6556 C.3       1 RES1    0.0000
     19 H1        -2.7415   -1.5568    6.5465 H         1 RES1    0.0000
     20 H2        -0.6240   -1.8401    5.6411 H         1 RES1    0.0000
     21 H3         2.0362   -1.6012    4.7699 H         1 RES1    0.0000
     22 H4         4.2490   -0.9627    4.4647 H         1 RES1    0.0000
     23 H5         5.1921    0.7039    5.7532 H         1 RES1    0.0000
     24 H6         1.4260    2.0489    8.2958 H         1 RES1    0.0000
     25 H7        -5.2326    0.3867    9.2275 H         1 RES1    0.0000
     26 H8        -4.7322   -0.9890    8.6224 H         1 RES1    0.0000
     27 H9        -5.1517    0.1949    7.6573 H         1 RES1    0.0000
     28 H10        5.0772    2.4703    7.3192 H         1 RES1    0.0000
     29 H11        4.2487    1.9867    8.5798 H         1 RES1    0.0000
     30 H12        3.6399    3.0734    7.6011 H         1 RES1    0.0000
@<TRIPOS>BOND
     1    1    2 1
     2    2    4 2
     3    3   14 1
     4    4    5 1
     5    5    6 ar
     6    6    7 ar
     7    7    8 ar
     8    8    9 1
     9    9   10 ar
    10   10   11 ar
    11   11   12 ar
    12   12   13 ar
    13   13   14 ar
    14   14    9 ar
    15   15    3 1
    16   16    1 1
    17   17    4 1
    18   18   13 1
    19   19    6 1
    20   20    7 1
    21   21   10 1
    22   22   11 1
    23   23   12 1
    24   24    3 1
    25   25   17 1
    26   26   17 1
    27   27   17 1
    28   28   18 1
    29   29   18 1
    30   30   18 1
    31    5   16 ar
    32    8   15 ar
    33   15   16 ar
@<TRIPOS>SUBSTRUCTURE
     1 RES1 1

