# MOL2 file generated by ConQuest
# Please check atom types

@<TRIPOS>MOLECULE
LIJYUY
    45    49     1
SMALL
NO_CHARGES
****
Generated from CSD

@<TRIPOS>ATOM
      1 C1        -0.4603    7.7609    5.2735 C.3       1 RES1    0.0000
      2 N1        -1.0468    9.0732    4.9963 N.3       1 RES1    0.0000
      3 O1        -0.6123    9.3043    3.6346 O.3       1 RES1    0.0000
      4 C2         0.7446    8.8191    3.5056 C.3       1 RES1    0.0000
      5 C3         0.8865    8.0808    2.1769 C.3       1 RES1    0.0000
      6 C4         2.1957    8.2714    1.4193 C.3       1 RES1    0.0000
      7 O2         2.4918    7.0117    0.8483 O.3       1 RES1    0.0000
      8 C5         1.7359    5.9765    1.4989 C.3       1 RES1    0.0000
      9 N2         0.9936    6.6655    2.5393 N.am      1 RES1    0.0000
     10 C6         1.2565    6.4848    3.8735 C.2       1 RES1    0.0000
     11 C7         0.9207    7.7708    4.5955 C.3       1 RES1    0.0000
     12 C8        -0.4558   10.1073    5.8637 C.3       1 RES1    0.0000
     13 C9        -0.8467   11.5006    5.4629 C.ar      1 RES1    0.0000
     14 C10        0.0129   12.2860    4.7190 C.ar      1 RES1    0.0000
     15 C11       -0.2989   13.5972    4.3951 C.ar      1 RES1    0.0000
     16 C12       -1.5004   14.1372    4.8068 C.ar      1 RES1    0.0000
     17 C13       -2.3723   13.3661    5.5426 C.ar      1 RES1    0.0000
     18 C14       -2.0628   12.0494    5.8802 C.ar      1 RES1    0.0000
     19 O3         1.6675    5.4595    4.3704 O.2       1 RES1    0.0000
     20 C15        0.8455    5.2864    0.4914 C.ar      1 RES1    0.0000
     21 C16       -0.3157    4.6544    0.9059 C.ar      1 RES1    0.0000
     22 C17       -1.1360    4.0059   -0.0110 C.ar      1 RES1    0.0000
     23 C18       -0.7839    3.9916   -1.3479 C.ar      1 RES1    0.0000
     24 C19        0.3723    4.6051   -1.7679 C.ar      1 RES1    0.0000
     25 C20        1.1965    5.2415   -0.8565 C.ar      1 RES1    0.0000
     26 H1        -0.9868    7.0215    4.8316 H         1 RES1    0.0000
     27 H2        -0.4486    7.5473    6.3414 H         1 RES1    0.0000
     28 H3         1.3401    9.6395    3.5688 H         1 RES1    0.0000
     29 H4         0.0617    8.1936    1.6197 H         1 RES1    0.0000
     30 H5         2.0802    9.0371    0.6863 H         1 RES1    0.0000
     31 H6         2.9269    8.4674    2.0314 H         1 RES1    0.0000
     32 H7         2.3774    5.3127    1.9216 H         1 RES1    0.0000
     33 H8         1.6709    7.9636    5.2159 H         1 RES1    0.0000
     34 H9         0.4822   10.1105    5.8473 H         1 RES1    0.0000
     35 H10       -0.7233    9.8696    6.7806 H         1 RES1    0.0000
     36 H11        0.9476   11.8522    4.4747 H         1 RES1    0.0000
     37 H12        0.3140   14.1745    3.8707 H         1 RES1    0.0000
     38 H13       -1.7270   15.0837    4.6119 H         1 RES1    0.0000
     39 H14       -3.2633   13.8239    5.7924 H         1 RES1    0.0000
     40 H15       -2.6745   11.5674    6.4787 H         1 RES1    0.0000
     41 H16       -0.5999    4.7102    1.8942 H         1 RES1    0.0000
     42 H17       -1.9568    3.6258    0.2745 H         1 RES1    0.0000
     43 H18       -1.3737    3.4615   -2.0589 H         1 RES1    0.0000
     44 H19        0.7065    4.6774   -2.7177 H         1 RES1    0.0000
     45 H20        2.0017    5.7289   -1.1255 H         1 RES1    0.0000
@<TRIPOS>BOND
     1    1    2 1
     2    2    3 1
     3    3    4 1
     4    4    5 1
     5    5    6 1
     6    6    7 1
     7    7    8 1
     8    8    9 1
     9    9    5 1
    10   10    9 1
    11   11    1 1
    12   12    2 1
    13   13   12 1
    14   14   13 ar
    15   15   14 ar
    16   16   15 ar
    17   17   16 ar
    18   18   13 ar
    19   19   10 2
    20   20    8 1
    21   21   20 ar
    22   22   21 ar
    23   23   22 ar
    24   24   23 ar
    25   25   20 ar
    26   26    1 1
    27   27    1 1
    28   28    4 1
    29   29    5 1
    30   30    6 1
    31   31    6 1
    32   32    8 1
    33   33   11 1
    34   34   12 1
    35   35   12 1
    36   36   14 1
    37   37   15 1
    38   38   16 1
    39   39   17 1
    40   40   18 1
    41   41   21 1
    42   42   22 1
    43   43   23 1
    44   44   24 1
    45   45   25 1
    46    4   11 1
    47   10   11 1
    48   17   18 ar
    49   24   25 ar
@<TRIPOS>SUBSTRUCTURE
     1 RES1 1

@<TRIPOS>CRYSIN
   5.6070   10.9540   27.4520  90.0000  90.0000  90.0000  19 1

