# MOL2 file generated by ConQuest
# Please check atom types

@<TRIPOS>MOLECULE
LIJZUZ
    47    49     1
SMALL
NO_CHARGES
****
Generated from CSD

@<TRIPOS>ATOM
      1 C1         0.5789    1.4009   15.2800 C.ar      1 RES1    0.0000
      2 C2        -0.0054    2.0703   14.2174 C.ar      1 RES1    0.0000
      3 C3        -1.3061    1.7477   13.8249 C.ar      1 RES1    0.0000
      4 C4        -1.9866    0.7382   14.4378 C.ar      1 RES1    0.0000
      5 C5        -1.4104    0.0513   15.4846 C.ar      1 RES1    0.0000
      6 C6        -0.1393    0.3904   15.9217 C.ar      1 RES1    0.0000
      7 C7         1.9389    1.7700   15.7629 C.2       1 RES1    0.0000
      8 N1         2.1034    1.8436   17.0389 N.2       1 RES1    0.0000
      9 C8         3.3718    2.1517   17.5985 C.ar      1 RES1    0.0000
     10 C9         4.5664    1.5762   17.2080 C.ar      1 RES1    0.0000
     11 C10        5.7503    1.9143   17.8239 C.ar      1 RES1    0.0000
     12 C11        5.8042    2.8356   18.8723 C.ar      1 RES1    0.0000
     13 C12        4.5916    3.3830   19.2765 C.ar      1 RES1    0.0000
     14 C13        3.3978    3.0333   18.6790 C.ar      1 RES1    0.0000
     15 C14        2.9457    2.1662   14.7812 C.2       1 RES1    0.0000
     16 N2         3.1605    1.5152   13.6757 N.pl3     1 RES1    0.0000
     17 O1         2.6023    0.3807   13.4165 O.2       1 RES1    0.0000
     18 C15        4.0738    2.0141   12.6539 C.ar      1 RES1    0.0000
     19 C16        4.3956    3.3520   12.5735 C.ar      1 RES1    0.0000
     20 C17        5.2765    3.7724   11.5888 C.ar      1 RES1    0.0000
     21 C18        5.8006    2.8715   10.6875 C.ar      1 RES1    0.0000
     22 C19        5.4635    1.5442   10.7684 C.ar      1 RES1    0.0000
     23 C20        4.6015    1.1093   11.7551 C.ar      1 RES1    0.0000
     24 N3         6.9836    3.1466   19.5024 N.3       1 RES1    0.0000
     25 C21        8.2528    2.8279   18.8757 C.3       1 RES1    0.0000
     26 C22        7.0114    4.1444   20.5437 C.3       1 RES1    0.0000
     27 H1         0.4800    2.7155   13.7969 H         1 RES1    0.0000
     28 H2        -1.6270    2.2699   13.0802 H         1 RES1    0.0000
     29 H3        -2.9367    0.4854   14.2053 H         1 RES1    0.0000
     30 H4        -1.9299   -0.6946   15.9929 H         1 RES1    0.0000
     31 H5         0.2499   -0.0678   16.7222 H         1 RES1    0.0000
     32 H6         4.6060    0.9271   16.4221 H         1 RES1    0.0000
     33 H7         6.5476    1.5287   17.5472 H         1 RES1    0.0000
     34 H8         4.5466    4.0253   20.0099 H         1 RES1    0.0000
     35 H9         2.5331    3.4983   18.9515 H         1 RES1    0.0000
     36 H10        3.5390    2.8850   14.9262 H         1 RES1    0.0000
     37 H11        4.0028    3.9817   13.1636 H         1 RES1    0.0000
     38 H12        5.5489    4.7751   11.5384 H         1 RES1    0.0000
     39 H13        6.3948    3.1563   10.0175 H         1 RES1    0.0000
     40 H14        5.7907    0.9232   10.1758 H         1 RES1    0.0000
     41 H15        4.3525    0.2160   11.8509 H         1 RES1    0.0000
     42 H16        8.2897    1.8417   18.7640 H         1 RES1    0.0000
     43 H17        8.3364    3.1272   17.9889 H         1 RES1    0.0000
     44 H18        8.9548    3.0139   19.4349 H         1 RES1    0.0000
     45 H19        6.7435    5.0638   20.2475 H         1 RES1    0.0000
     46 H20        6.3462    3.9807   21.2975 H         1 RES1    0.0000
     47 H21        7.9292    4.2694   20.9142 H         1 RES1    0.0000
@<TRIPOS>BOND
     1    1    2 ar
     2    2    3 ar
     3    3    4 ar
     4    4    5 ar
     5    5    6 ar
     6    6    1 ar
     7    7    1 1
     8    8    7 2
     9    9    8 1
    10   10    9 ar
    11   11   10 ar
    12   12   11 ar
    13   13   12 ar
    14   14    9 ar
    15   15    7 1
    16   16   15 2
    17   17   16 1
    18   18   16 1
    19   19   18 ar
    20   20   19 ar
    21   21   20 ar
    22   22   21 ar
    23   23   18 ar
    24   24   12 1
    25   25   24 1
    26   26   24 1
    27   27    2 1
    28   28    3 1
    29   29    4 1
    30   30    5 1
    31   31    6 1
    32   32   10 1
    33   33   11 1
    34   34   13 1
    35   35   14 1
    36   36   15 1
    37   37   19 1
    38   38   20 1
    39   39   21 1
    40   40   22 1
    41   41   23 1
    42   42   25 1
    43   43   25 1
    44   44   25 1
    45   45   26 1
    46   46   26 1
    47   47   26 1
    48   13   14 ar
    49   22   23 ar
@<TRIPOS>SUBSTRUCTURE
     1 RES1 1

@<TRIPOS>CRYSIN
   8.9890    9.6878   41.6700  90.0000  90.0000  90.0000  61 1

