# MOL2 file generated by ConQuest
# Please check atom types

@<TRIPOS>MOLECULE
LIKDIS
    23    23     1
SMALL
NO_CHARGES
****
Generated from CSD

@<TRIPOS>ATOM
      1 C1        10.0302    4.3876    1.0420 C.3       1 RES1    0.0000
      2 H1        10.1941    4.5457    0.0889 H         1 RES1    0.0000
      3 C2        10.2947    5.6755    1.7891 C.3       1 RES1    0.0000
      4 H2        11.2071    5.9610    1.6234 H         1 RES1    0.0000
      5 H3        10.1985    5.5201    2.7412 H         1 RES1    0.0000
      6 C3         9.3405    6.7758    1.3612 C.3       1 RES1    0.0000
      7 H4         9.4941    7.5625    1.9070 H         1 RES1    0.0000
      8 H5         9.5183    7.0127    0.4381 H         1 RES1    0.0000
      9 C4         7.9061    6.3472    1.4989 C.3       1 RES1    0.0000
     10 H6         7.6958    6.2335    2.4388 H         1 RES1    0.0000
     11 H7         7.3299    7.0435    1.1459 H         1 RES1    0.0000
     12 C5         7.6304    5.0661    0.7742 C.3       1 RES1    0.0000
     13 H8         7.7281    5.2106   -0.1807 H         1 RES1    0.0000
     14 H9         6.7156    4.7922    0.9437 H         1 RES1    0.0000
     15 C6         8.5740    3.9630    1.2133 C.3       1 RES1    0.0000
     16 H10        8.4061    3.1661    0.6862 H         1 RES1    0.0000
     17 H11        8.4078    3.7474    2.1448 H         1 RES1    0.0000
     18 C7        10.9311    3.2742    1.4966 C.2       1 RES1    0.0000
     19 O1        11.0172    2.9339    2.6931 O.2       1 RES1    0.0000
     20 N1        11.6093    2.6635    0.5408 N.am      1 RES1    0.0000
     21 H12       11.5657    2.9668   -0.2629 H         1 RES1    0.0000
     22 O2        12.3873    1.5502    0.7995 O.3       1 RES1    0.0000
     23 H13       13.0576    1.7754    1.2152 H         1 RES1    0.0000
@<TRIPOS>BOND
     1    1    2 1
     2    3    1 1
     3    4    3 1
     4    5    3 1
     5    6    3 1
     6    7    6 1
     7    8    6 1
     8    9    6 1
     9   10    9 1
    10   11    9 1
    11   12    9 1
    12   13   12 1
    13   14   12 1
    14   15    1 1
    15   16   15 1
    16   17   15 1
    17   18    1 1
    18   19   18 2
    19   20   18 1
    20   21   20 1
    21   22   20 1
    22   23   22 1
    23   12   15 1
@<TRIPOS>SUBSTRUCTURE
     1 RES1 1

@<TRIPOS>CRYSIN
  13.0440    6.8470    9.4650  90.0000  98.4600  90.0000  13 1

