# MOL2 file generated by ConQuest
# Please check atom types

@<TRIPOS>MOLECULE
LIKDAK
    43    44     1
SMALL
NO_CHARGES
****
Generated from CSD

@<TRIPOS>ATOM
      1 N1         0.0272    2.6519    2.5711 N.pl3     1 RES1    0.0000
      2 O1         1.0351    1.9530    2.0786 O.2       1 RES1    0.0000
      3 C1        -1.2616    2.2250    2.4066 C.ar      1 RES1    0.0000
      4 C2        -2.2668    2.9626    2.9976 C.ar      1 RES1    0.0000
      5 C3        -1.9998    4.1258    3.7006 C.ar      1 RES1    0.0000
      6 C4        -0.6982    4.5554    3.7856 C.ar      1 RES1    0.0000
      7 C5         0.2958    3.8126    3.2226 C.ar      1 RES1    0.0000
      8 C6        -1.5351    1.0393    1.5290 C.3       1 RES1    0.0000
      9 N2        -1.9645   -2.9611    3.1174 N.3       1 RES1    0.0000
     10 O2        -2.1451   -4.1431    3.5864 O.2       1 RES1    0.0000
     11 C7        -1.4972   -1.9412    4.1035 C.3       1 RES1    0.0000
     12 C8        -2.3889   -2.0504    5.3326 C.3       1 RES1    0.0000
     13 C9        -0.0514   -2.2704    4.4998 C.3       1 RES1    0.0000
     14 C10       -1.6467   -0.5337    3.5013 C.3       1 RES1    0.0000
     15 C11       -1.1747   -0.3671    2.0686 C.3       1 RES1    0.0000
     16 O3         0.2302   -0.5923    1.9432 O.3       1 RES1    0.0000
     17 C12       -1.9179   -1.3873    1.2134 C.3       1 RES1    0.0000
     18 C13       -1.7845   -2.8551    1.6410 C.3       1 RES1    0.0000
     19 C14       -0.4520   -3.4760    1.2380 C.3       1 RES1    0.0000
     20 C15       -2.9196   -3.6440    0.9772 C.3       1 RES1    0.0000
     21 H1         0.5955    0.2221    2.0708 H         1 RES1    0.0000
     22 H2        -3.1863    2.6140    2.8812 H         1 RES1    0.0000
     23 H3        -2.7586    4.6316    4.1136 H         1 RES1    0.0000
     24 H4        -0.4271    5.3774    4.2177 H         1 RES1    0.0000
     25 H5         1.2291    4.0277    3.2439 H         1 RES1    0.0000
     26 H6        -2.4930    1.0452    1.3555 H         1 RES1    0.0000
     27 H7        -1.0658    1.1269    0.6571 H         1 RES1    0.0000
     28 H8        -2.3110   -2.9087    5.6919 H         1 RES1    0.0000
     29 H9        -2.1711   -1.3479    5.9672 H         1 RES1    0.0000
     30 H10       -3.3052   -1.9181    5.0628 H         1 RES1    0.0000
     31 H11        0.5677   -2.1903    3.7207 H         1 RES1    0.0000
     32 H12       -0.0100   -3.1707    4.8859 H         1 RES1    0.0000
     33 H13        0.1815   -1.6203    5.2173 H         1 RES1    0.0000
     34 H14       -1.1392    0.0771    4.0755 H         1 RES1    0.0000
     35 H15       -2.6276   -0.2783    3.5092 H         1 RES1    0.0000
     36 H16       -1.5877   -1.3323    0.2485 H         1 RES1    0.0000
     37 H17       -2.9043   -1.1553    1.2324 H         1 RES1    0.0000
     38 H18        0.3258   -2.9743    1.6175 H         1 RES1    0.0000
     39 H19       -0.4421   -4.3994    1.5604 H         1 RES1    0.0000
     40 H20       -0.3135   -3.5038    0.2586 H         1 RES1    0.0000
     41 H21       -2.8285   -3.5351   -0.0257 H         1 RES1    0.0000
     42 H22       -3.7826   -3.2899    1.3040 H         1 RES1    0.0000
     43 H23       -2.8390   -4.5929    1.2167 H         1 RES1    0.0000
@<TRIPOS>BOND
     1    1    2 1
     2    3    1 ar
     3    4    3 ar
     4    5    4 ar
     5    6    5 ar
     6    7    1 ar
     7    8    3 1
     8    9   10 1
     9   11    9 1
    10   12   11 1
    11   13   11 1
    12   14   11 1
    13   15    8 1
    14   16   15 1
    15   17   15 1
    16   18    9 1
    17   19   18 1
    18   20   18 1
    19   21   16 1
    20   22    4 1
    21   23    5 1
    22   24    6 1
    23   25    7 1
    24   26    8 1
    25   27    8 1
    26   28   12 1
    27   29   12 1
    28   30   12 1
    29   31   13 1
    30   32   13 1
    31   33   13 1
    32   34   14 1
    33   35   14 1
    34   36   17 1
    35   37   17 1
    36   38   19 1
    37   39   19 1
    38   40   19 1
    39   41   20 1
    40   42   20 1
    41   43   20 1
    42    6    7 ar
    43   14   15 1
    44   17   18 1
@<TRIPOS>SUBSTRUCTURE
     1 RES1 1

@<TRIPOS>CRYSIN
   6.4000   10.7670   11.2030  91.6200  91.3400 102.2000   2 1

