# MOL2 file generated by ConQuest
# Please check atom types

@<TRIPOS>MOLECULE
LIKNAW
    34    35     1
SMALL
NO_CHARGES
****
Generated from CSD

@<TRIPOS>ATOM
      1 O1         4.5103    1.2385    6.2238 O.2       1 RES1    0.0000
      2 O2         4.0184    3.2165    5.4941 O.2       1 RES1    0.0000
      3 O3         3.6612    2.6636   -0.5657 O.2       1 RES1    0.0000
      4 O4         3.0835    4.0869    0.9776 O.2       1 RES1    0.0000
      5 N1         5.1592   -0.6772    4.5306 N.3       1 RES1    0.0000
      6 H1         5.0137   -0.4770    5.3607 H         1 RES1    0.0000
      7 N2         4.3014    2.0322    5.2879 N.pl3     1 RES1    0.0000
      8 N3         3.5779    3.0121    0.6212 N.pl3     1 RES1    0.0000
      9 C1         4.8392    0.2327    3.6040 C.ar      1 RES1    0.0000
     10 C2         4.3899    1.5588    3.9274 C.ar      1 RES1    0.0000
     11 C3         4.0029    2.4592    2.9487 C.ar      1 RES1    0.0000
     12 H2         3.7002    3.3009    3.2189 H         1 RES1    0.0000
     13 C4         4.0739    2.0961    1.6273 C.ar      1 RES1    0.0000
     14 C5         4.5737    0.8359    1.2539 C.ar      1 RES1    0.0000
     15 H3         4.6224    0.6139    0.3460 H         1 RES1    0.0000
     16 C6         4.9337   -0.0646    2.2096 C.ar      1 RES1    0.0000
     17 H4         5.2611   -0.9152    1.9507 H         1 RES1    0.0000
     18 C7         5.6114   -2.0433    4.2699 C.3       1 RES1    0.0000
     19 H5         6.1965   -2.0471    3.4733 H         1 RES1    0.0000
     20 H6         6.1401   -2.3134    5.0538 H         1 RES1    0.0000
     21 C8         4.4473   -3.0249    4.0790 C.3       1 RES1    0.0000
     22 H7         3.8410   -2.9354    4.8357 H         1 RES1    0.0000
     23 H8         3.9130   -2.7972    3.3023 H         1 RES1    0.0000
     24 C9         4.9509   -4.4503    3.9637 C.ar      1 RES1    0.0000
     25 C10        5.3012   -5.1686    5.1119 C.ar      1 RES1    0.0000
     26 H9         5.1759   -4.7616    5.9948 H         1 RES1    0.0000
     27 C11        5.7914   -6.4708    5.0127 C.ar      1 RES1    0.0000
     28 H10        6.0082   -6.9487    5.8238 H         1 RES1    0.0000
     29 C12        5.9290   -7.0671    3.7657 C.ar      1 RES1    0.0000
     30 H11        6.2380   -7.9524    3.7291 H         1 RES1    0.0000
     31 C13        5.5721   -6.3700    2.6265 C.ar      1 RES1    0.0000
     32 H12        5.6499   -6.8289    1.7636 H         1 RES1    0.0000
     33 C14        5.0906   -5.0643    2.7182 C.ar      1 RES1    0.0000
     34 H13        4.8548   -4.6013    1.9184 H         1 RES1    0.0000
@<TRIPOS>BOND
     1    1    7 2
     2    2    7 2
     3    3    8 2
     4    4    8 2
     5    5    6 1
     6    7   10 1
     7    8   13 1
     8    9    5 1
     9   10    9 ar
    10   11   10 ar
    11   12   11 1
    12   13   11 ar
    13   14   13 ar
    14   15   14 1
    15   16    9 ar
    16   17   16 1
    17   18    5 1
    18   19   18 1
    19   20   18 1
    20   21   18 1
    21   22   21 1
    22   23   21 1
    23   24   21 1
    24   25   24 ar
    25   26   25 1
    26   27   25 ar
    27   28   27 1
    28   29   27 ar
    29   30   29 1
    30   31   29 ar
    31   32   31 1
    32   33   24 ar
    33   34   33 1
    34   14   16 ar
    35   31   33 ar
@<TRIPOS>SUBSTRUCTURE
     1 RES1 1

@<TRIPOS>CRYSIN
   7.2350    7.2820   13.5120  88.7140  85.1310  67.2390   2 1

