# MOL2 file generated by ConQuest
# Please check atom types

@<TRIPOS>MOLECULE
LILJUL01
    33    35     1
SMALL
NO_CHARGES
****
Generated from CSD

@<TRIPOS>ATOM
      1 O1         1.4671   -7.5287   -3.3997 O.2       1 RES1    0.0000
      2 O2        -0.4473   -6.5296   -3.5598 O.2       1 RES1    0.0000
      3 O3         0.5235   -1.7166   -2.6602 O.2       1 RES1    0.0000
      4 O4         1.0259   -1.2509   -0.6122 O.2       1 RES1    0.0000
      5 O5         2.2690  -13.0529   -0.1602 O.3       1 RES1    0.0000
      6 O6         3.1106  -13.4825    1.9605 O.3       1 RES1    0.0000
      7 N1         0.6597   -6.6696   -3.0634 N.pl3     1 RES1    0.0000
      8 N2         0.8675   -2.0470   -1.5232 N.pl3     1 RES1    0.0000
      9 C1         1.5683   -6.2102   -0.7701 C.ar      1 RES1    0.0000
     10 C2         1.0340   -5.7303   -1.9844 C.ar      1 RES1    0.0000
     11 C3         0.7973   -4.3945   -2.2502 C.ar      1 RES1    0.0000
     12 C4         1.1052   -3.4756   -1.2699 C.ar      1 RES1    0.0000
     13 C5         1.5980   -3.8721   -0.0454 C.ar      1 RES1    0.0000
     14 C6         1.8246   -5.2111    0.1942 C.ar      1 RES1    0.0000
     15 C7         1.7810   -7.6357   -0.5021 C.2       1 RES1    0.0000
     16 C8         2.2916   -8.1282    0.6111 C.2       1 RES1    0.0000
     17 C9         2.5157   -9.5301    0.9632 C.ar      1 RES1    0.0000
     18 C10        2.2072  -10.5968    0.0795 C.ar      1 RES1    0.0000
     19 C11        2.4494  -11.8666    0.5270 C.ar      1 RES1    0.0000
     20 C12        2.9547  -12.1325    1.7947 C.ar      1 RES1    0.0000
     21 C13        3.2758  -11.1271    2.6647 C.ar      1 RES1    0.0000
     22 C14        3.0514   -9.8259    2.2252 C.ar      1 RES1    0.0000
     23 C15        2.6043  -14.0977    0.7792 C.3       1 RES1    0.0000
     24 H1         0.4168   -4.2293   -3.1282 H         1 RES1    0.0000
     25 H2         1.7903   -3.1924    0.6645 H         1 RES1    0.0000
     26 H3         2.1847   -5.4849    1.0859 H         1 RES1    0.0000
     27 H4         1.5174   -8.2840   -1.2154 H         1 RES1    0.0000
     28 H5         2.5626   -7.4579    1.3006 H         1 RES1    0.0000
     29 H6         1.8304  -10.4285   -0.8315 H         1 RES1    0.0000
     30 H7         3.6515  -11.3190    3.5712 H         1 RES1    0.0000
     31 H8         3.2812   -9.0691    2.8374 H         1 RES1    0.0000
     32 H9         3.3004  -14.6987    0.3851 H         1 RES1    0.0000
     33 H10        1.7884  -14.6326    0.9973 H         1 RES1    0.0000
@<TRIPOS>BOND
     1    1    7 2
     2    2    7 2
     3    3    8 2
     4    4    8 2
     5    5   19 1
     6    6   20 1
     7    7   10 1
     8    8   12 1
     9    9   10 ar
    10   10   11 ar
    11   11   12 ar
    12   12   13 ar
    13   13   14 ar
    14   14    9 ar
    15   15    9 1
    16   16   15 2
    17   17   16 1
    18   18   17 ar
    19   19   18 ar
    20   20   19 ar
    21   21   20 ar
    22   22   17 ar
    23   23    5 1
    24   24   11 1
    25   25   13 1
    26   26   14 1
    27   27   15 1
    28   28   16 1
    29   29   18 1
    30   30   21 1
    31   31   22 1
    32   32   23 1
    33   33   23 1
    34    6   23 1
    35   21   22 ar
@<TRIPOS>SUBSTRUCTURE
     1 RES1 1

@<TRIPOS>CRYSIN
   7.6900   15.7340   11.3990  90.0000  94.8200  90.0000 231 1

