# MOL2 file generated by ConQuest
# Please check atom types

@<TRIPOS>MOLECULE
LIMQED
    44    46     1
SMALL
NO_CHARGES
****
Generated from CSD

@<TRIPOS>ATOM
      1 O1         4.2417    6.8366    0.6119 O.3       1 RES1    0.0000
      2 N1         5.4923    7.2189   -0.0715 N.3       1 RES1    0.0000
      3 O2         6.1731    5.9875   -0.1787 O.3       1 RES1    0.0000
      4 O3         4.2289    8.5681    2.1933 O.3       1 RES1    0.0000
      5 O4         7.2431    5.6557   -2.1985 O.3       1 RES1    0.0000
      6 C1         3.7176    9.1009   -0.0473 C.3       1 RES1    0.0000
      7 C2         5.0662    7.5580   -1.4562 C.3       1 RES1    0.0000
      8 C3         3.7978    8.4168   -1.4100 C.3       1 RES1    0.0000
      9 C4         3.6404    8.0431    1.0441 C.3       1 RES1    0.0000
     10 C5         6.0617    5.4377   -1.5130 C.3       1 RES1    0.0000
     11 C6         3.7436    9.3556   -2.5960 C.ar      1 RES1    0.0000
     12 C7         4.9517    6.2090   -2.1502 C.3       1 RES1    0.0000
     13 C8         4.1602    7.7110    3.3256 C.3       1 RES1    0.0000
     14 C9         3.0429    8.9979   -3.7262 C.ar      1 RES1    0.0000
     15 C10        4.4351   10.5449   -2.6117 C.ar      1 RES1    0.0000
     16 C11        3.7150   10.9843   -4.8502 C.ar      1 RES1    0.0000
     17 C12        3.0361    9.8127   -4.8471 C.ar      1 RES1    0.0000
     18 C13        8.3539    4.9522   -1.6612 C.3       1 RES1    0.0000
     19 C14        4.4252   11.3570   -3.7410 C.ar      1 RES1    0.0000
     20 C15        4.6528    8.4769    4.5074 C.3       1 RES1    0.0000
     21 C16        9.5560    5.3605   -2.2574 C.3       1 RES1    0.0000
     22 H1         2.9390    9.6612   -0.0116 H         1 RES1    0.0000
     23 H2         4.4918    9.6522    0.0873 H         1 RES1    0.0000
     24 H3         5.7650    8.0630   -1.8778 H         1 RES1    0.0000
     25 H4         3.0461    7.8239   -1.4794 H         1 RES1    0.0000
     26 H5         2.7149    7.8698    1.2312 H         1 RES1    0.0000
     27 H6         5.8527    4.5019   -1.4804 H         1 RES1    0.0000
     28 H7         5.0805    6.2908   -3.0975 H         1 RES1    0.0000
     29 H8         4.0996    5.8007   -1.9809 H         1 RES1    0.0000
     30 H9         4.7020    6.9319    3.1848 H         1 RES1    0.0000
     31 H10        3.2545    7.4300    3.4718 H         1 RES1    0.0000
     32 H11        2.5529    8.1731   -3.7368 H         1 RES1    0.0000
     33 H12        4.9296   10.8174   -1.8347 H         1 RES1    0.0000
     34 H13        3.6991   11.5497   -5.6262 H         1 RES1    0.0000
     35 H14        2.5479    9.5418   -5.6293 H         1 RES1    0.0000
     36 H15        8.2336    4.0109   -1.8074 H         1 RES1    0.0000
     37 H16        8.3961    5.1021   -0.7139 H         1 RES1    0.0000
     38 H17        4.9146   12.1839   -3.7410 H         1 RES1    0.0000
     39 H18        4.6156    7.9187    5.2876 H         1 RES1    0.0000
     40 H19        5.5598    8.7506    4.3529 H         1 RES1    0.0000
     41 H20        4.1028    9.2519    4.6420 H         1 RES1    0.0000
     42 H21       10.2838    4.8668   -1.8726 H         1 RES1    0.0000
     43 H22        9.5239    5.1977   -3.2026 H         1 RES1    0.0000
     44 H23        9.6869    6.2985   -2.0986 H         1 RES1    0.0000
@<TRIPOS>BOND
     1    1    2 1
     2    2    3 1
     3    3   10 1
     4    4    9 1
     5    5   10 1
     6    6    8 1
     7    7    2 1
     8    8    7 1
     9    9    1 1
    10   10   12 1
    11   11    8 1
    12   12    7 1
    13   13    4 1
    14   14   11 ar
    15   15   11 ar
    16   16   17 ar
    17   17   14 ar
    18   18    5 1
    19   19   15 ar
    20   20   13 1
    21   21   18 1
    22   22    6 1
    23   23    6 1
    24   24    7 1
    25   25    8 1
    26   26    9 1
    27   27   10 1
    28   28   12 1
    29   29   12 1
    30   30   13 1
    31   31   13 1
    32   32   14 1
    33   33   15 1
    34   34   16 1
    35   35   17 1
    36   36   18 1
    37   37   18 1
    38   38   19 1
    39   39   20 1
    40   40   20 1
    41   41   20 1
    42   42   21 1
    43   43   21 1
    44   44   21 1
    45    6    9 1
    46   16   19 ar
@<TRIPOS>SUBSTRUCTURE
     1 RES1 1

@<TRIPOS>CRYSIN
   8.7810    9.1260   11.0600  75.2400  77.0800  78.6900   2 1

