# MOL2 file generated by ConQuest
# Please check atom types

@<TRIPOS>MOLECULE
LIMQIH
    73    74     1
SMALL
NO_CHARGES
****
Generated from CSD

@<TRIPOS>ATOM
      1 O1         1.9058    5.1699    2.9422 O.3       1 RES1    0.0000
      2 O2         3.5385    6.3968    5.5465 O.3       1 RES1    0.0000
      3 O3         3.5761    8.3532    3.4134 O.3       1 RES1    0.0000
      4 O4         1.9609    7.2719    0.8371 O.3       1 RES1    0.0000
      5 C1         2.5294    7.3858    3.5955 C.3       1 RES1    0.0000
      6 C2         2.9495    6.1762    2.7636 C.3       1 RES1    0.0000
      7 C3         2.3453    7.0557    5.0754 C.3       1 RES1    0.0000
      8 C4         2.0701    8.2826    5.9283 C.3       1 RES1    0.0000
      9 C5         2.0478    7.9394    7.4449 C.3       1 RES1    0.0000
     10 C6         3.1141    6.4934    1.2750 C.3       1 RES1    0.0000
     11 C7         3.3946    5.1944    6.1857 C.2       1 RES1    0.0000
     12 C8         0.7177    8.9313    5.5990 C.3       1 RES1    0.0000
     13 O5         1.2718   10.1582    7.6113 O.3       1 RES1    0.0000
     14 O6         1.4710    8.8492    9.4450 O.3       1 RES1    0.0000
     15 O7         2.0864    9.9275    2.8319 O.2       1 RES1    0.0000
     16 O8         3.3310    5.5967   -0.9650 O.3       1 RES1    0.0000
     17 N1         1.0166    8.7828    8.1332 N.3       1 RES1    0.0000
     18 C9         3.1388    5.2204    0.4273 C.3       1 RES1    0.0000
     19 C10        2.2136    8.3273    0.0350 C.2       1 RES1    0.0000
     20 O9         2.3554    4.7100    6.4537 O.2       1 RES1    0.0000
     21 O10        3.4859    3.6158    3.3801 O.2       1 RES1    0.0000
     22 C11        3.2190    9.6017    2.9895 C.2       1 RES1    0.0000
     23 C12        4.4034   10.4451    2.7496 C.3       1 RES1    0.0000
     24 C13        2.3130    3.9070    3.2260 C.2       1 RES1    0.0000
     25 C14        3.3402    8.1672    8.2015 C.3       1 RES1    0.0000
     26 C15        0.6305   10.2519    6.3363 C.3       1 RES1    0.0000
     27 O11        3.3250    8.7208   -0.2189 O.2       1 RES1    0.0000
     28 O12       -0.7243   10.6138    6.4502 O.3       1 RES1    0.0000
     29 C16        4.6125    5.6443   -1.4133 C.2       1 RES1    0.0000
     30 C17        2.9274    8.8910    9.4555 C.3       1 RES1    0.0000
     31 C18        1.1649    2.9930    3.2908 C.3       1 RES1    0.0000
     32 C19        4.7289    4.5990    6.4729 C.3       1 RES1    0.0000
     33 C20        4.6526    6.0782   -2.8214 C.3       1 RES1    0.0000
     34 O13        5.5439    5.3545   -0.7426 O.2       1 RES1    0.0000
     35 C21        0.9455    8.9313   -0.4606 C.3       1 RES1    0.0000
     36 N2         3.7534    7.7823   11.6061 N.1       1 RES1    0.0000
     37 C22        3.3693    8.2465   10.6727 C.1       1 RES1    0.0000
     38 C23       -2.0246   12.6769    6.8004 C.3       1 RES1    0.0000
     39 C24       -0.7588   11.9993    6.8652 C.3       1 RES1    0.0000
     40 H1         1.7882    7.0211    7.5465 H         1 RES1    0.0000
     41 H2         3.9236    6.9937    1.1454 H         1 RES1    0.0000
     42 H3         0.0043    8.3575    5.8880 H         1 RES1    0.0000
     43 H4         0.6351    9.0669    4.6516 H         1 RES1    0.0000
     44 H5         2.3191    4.7345    0.5482 H         1 RES1    0.0000
     45 H6         3.8688    4.6610    0.7023 H         1 RES1    0.0000
     46 H7         4.1298   11.3159    2.4501 H         1 RES1    0.0000
     47 H8         4.8929   10.5287    3.5710 H         1 RES1    0.0000
     48 H9         4.9631   10.0400    2.0823 H         1 RES1    0.0000
     49 H10        3.9384    8.7035    7.6761 H         1 RES1    0.0000
     50 H11        3.7716    7.3368    8.4187 H         1 RES1    0.0000
     51 H12        1.0851   10.9180    5.8144 H         1 RES1    0.0000
     52 H13        3.2297    9.8007    9.4345 H         1 RES1    0.0000
     53 H14        1.4816    2.1092    3.4904 H         1 RES1    0.0000
     54 H15        0.5504    3.2755    3.9703 H         1 RES1    0.0000
     55 H16        0.7197    2.9872    2.4396 H         1 RES1    0.0000
     56 H17        4.6095    3.7600    6.9248 H         1 RES1    0.0000
     57 H18        5.1924    4.4534    5.6463 H         1 RES1    0.0000
     58 H19        5.2421    5.1916    7.0281 H         1 RES1    0.0000
     59 H20        5.5616    6.1128   -3.1296 H         1 RES1    0.0000
     60 H21        4.1552    5.4626   -3.3661 H         1 RES1    0.0000
     61 H22        4.2592    6.9504   -2.8862 H         1 RES1    0.0000
     62 H23        1.1301    9.6868   -1.0245 H         1 RES1    0.0000
     63 H24        0.4703    8.2653   -0.9632 H         1 RES1    0.0000
     64 H25        0.4100    9.2125    0.2855 H         1 RES1    0.0000
     65 H26       -2.0293   13.5981    7.0737 H         1 RES1    0.0000
     66 H27       -2.4432   12.5947    5.9423 H         1 RES1    0.0000
     67 H28       -2.5063   12.1506    7.4432 H         1 RES1    0.0000
     68 H29       -0.2740   12.5356    6.2348 H         1 RES1    0.0000
     69 H30       -0.3366   12.0959    7.7234 H         1 RES1    0.0000
     70 H31        1.6013    6.5237    5.1279 H         1 RES1    0.0000
     71 H32        2.8042    8.9558    5.7321 H         1 RES1    0.0000
     72 H33        3.8781    5.6572    3.0578 H         1 RES1    0.0000
     73 H34        1.6250    7.6079    3.3345 H         1 RES1    0.0000
@<TRIPOS>BOND
     1    1    6 1
     2    2    7 1
     3    3    5 1
     4    4   10 1
     5    5    6 1
     6    6   10 1
     7    7    5 1
     8    8    7 1
     9    9    8 1
    10   10   18 1
    11   11    2 1
    12   12    8 1
    13   13   17 1
    14   14   17 1
    15   15   22 2
    16   16   18 1
    17   17    9 1
    18   18   44 1
    19   19    4 1
    20   20   11 2
    21   21   24 2
    22   22    3 1
    23   23   22 1
    24   24    1 1
    25   25    9 1
    26   26   12 1
    27   27   19 2
    28   28   26 1
    29   29   16 1
    30   30   14 1
    31   31   24 1
    32   32   11 1
    33   33   29 1
    34   34   29 2
    35   35   19 1
    36   36   37 3
    37   37   30 1
    38   38   39 1
    39   39   28 1
    40   40    9 1
    41   41   10 1
    42   42   12 1
    43   43   12 1
    44   45   18 1
    45   46   23 1
    46   47   23 1
    47   48   23 1
    48   49   25 1
    49   50   25 1
    50   51   26 1
    51   52   30 1
    52   53   31 1
    53   54   31 1
    54   55   31 1
    55   56   32 1
    56   57   32 1
    57   58   32 1
    58   59   33 1
    59   60   33 1
    60   61   33 1
    61   62   35 1
    62   63   35 1
    63   64   35 1
    64   65   38 1
    65   66   38 1
    66   67   38 1
    67   68   39 1
    68   69   39 1
    69   70    7 1
    70   71    8 1
    71   72    6 1
    72   73    5 1
    73   13   26 1
    74   25   30 1
@<TRIPOS>SUBSTRUCTURE
     1 RES1 1

@<TRIPOS>CRYSIN
   5.8320   14.4170   17.5280  90.0000  92.3400  90.0000   4 1

