# MOL2 file generated by ConQuest
# Please check atom types

@<TRIPOS>MOLECULE
LIMWIN
    81    88     2
SMALL
NO_CHARGES
****
Generated from CSD

@<TRIPOS>ATOM
      1 O1         8.4823    5.1258    1.9426 O.2       1 RES1    0.0000
      2 N1         1.7496    8.6188    3.4711 N.2       1 RES1    0.0000
      3 C1         2.9938    8.1090    3.1942 C.2       1 RES1    0.0000
      4 C2         3.9361    9.1939    3.1640 C.2       1 RES1    0.0000
      5 C3         3.2609   10.3244    3.4574 C.2       1 RES1    0.0000
      6 C4         2.3884    5.7039    3.2202 C.2       1 RES1    0.0000
      7 C5         3.2928    6.7524    3.0393 C.2       1 RES1    0.0000
      8 C6         4.6979    6.3761    2.6883 C.2       1 RES1    0.0000
      9 C7         5.0150    5.9907    1.4011 C.2       1 RES1    0.0000
     10 C8         6.2927    5.6068    1.0816 C.2       1 RES1    0.0000
     11 C9         7.2668    5.5719    2.0440 C.2       1 RES1    0.0000
     12 C10        6.9800    5.9603    3.2998 C.2       1 RES1    0.0000
     13 C11        5.7085    6.3655    3.6260 C.2       1 RES1    0.0000
     14 H1         0.9757    8.1424    3.5342 H         1 RES1    0.0000
     15 H2         4.9922    9.2106    2.9474 H         1 RES1    0.0000
     16 H3         3.6266   11.2439    3.5918 H         1 RES1    0.0000
     17 H4         4.4308    6.0241    0.6992 H         1 RES1    0.0000
     18 H5         6.4338    5.2957    0.1645 H         1 RES1    0.0000
     19 H6         8.1697    5.2669    1.8178 Du        2 SUP2    0.0000
     20 H7         7.6629    6.0544    3.9208 H         1 RES1    0.0000
     21 H8         5.5233    6.5552    4.5240 H         1 RES1    0.0000
     22 C4M        1.8831    9.9754    3.6343 C.2       1 RES1    0.0000
     23 C5M        0.8346   10.8798    3.8152 C.2       1 RES1    0.0000
     24 C1M       -0.5220   10.5808    3.6603 C.2       1 RES1    0.0000
     25 N1M       -1.0318    9.3366    3.3834 N.2       1 RES1    0.0000
     26 C4C       -2.3884    9.4701    3.2202 C.2       1 RES1    0.0000
     27 C3M       -2.7374   10.8479    3.3971 C.2       1 RES1    0.0000
     28 C2M       -1.6069   11.5231    3.6905 C.2       1 RES1    0.0000
     29 H2M       -1.6236   12.5792    3.9071 H         1 RES1    0.0000
     30 H3M       -3.6569   11.2136    3.2627 H         1 RES1    0.0000
     31 C5C       -3.2928    8.4216    3.0393 C.2       1 RES1    0.0000
     32 C1C       -2.9938    7.0650    3.1942 C.2       1 RES1    0.0000
     33 N1C       -1.7496    6.5552    3.4711 N.2       1 RES1    0.0000
     34 C4I       -1.8831    5.1986    3.6343 C.2       1 RES1    0.0000
     35 C3C       -3.2609    4.8496    3.4574 C.2       1 RES1    0.0000
     36 C2C       -3.9361    5.9801    3.1640 C.2       1 RES1    0.0000
     37 H2C       -4.9922    5.9634    2.9474 H         1 RES1    0.0000
     38 H3C       -3.6266    3.9301    3.5918 H         1 RES1    0.0000
     39 C5I       -0.8346    4.2942    3.8152 C.2       1 RES1    0.0000
     40 C1I        0.5220    4.5932    3.6603 C.2       1 RES1    0.0000
     41 N1I        1.0318    5.8374    3.3834 N.2       1 RES1    0.0000
     42 C3I        2.7374    4.3261    3.3971 C.2       1 RES1    0.0000
     43 C2I        1.6069    3.6509    3.6905 C.2       1 RES1    0.0000
     44 H2I        1.6236    2.5948    3.9071 H         1 RES1    0.0000
     45 H3I        3.6569    3.9604    3.2627 H         1 RES1    0.0000
     46 H1I        0.5554    6.6113    3.3203 H         1 RES1    0.0000
     47 C6I       -1.2109    2.8891    4.1662 C.2       1 RES1    0.0000
     48 C7I       -1.5963    2.5720    5.4534 C.2       1 RES1    0.0000
     49 C8I       -1.9802    1.2943    5.7729 C.2       1 RES1    0.0000
     50 C9I       -2.0151    0.3202    4.8105 C.2       1 RES1    0.0000
     51 O1I       -2.4612   -0.8953    4.9119 O.2       1 RES1    0.0000
     52 C10I      -1.6267    0.6070    3.5547 C.2       1 RES1    0.0000
     53 C11I      -1.2215    1.8785    3.2285 C.2       1 RES1    0.0000
     54 H8I       -1.0318    2.0637    2.3305 H         1 RES1    0.0000
     55 H7I       -1.5326   -0.0759    2.9337 H         1 RES1    0.0000
     56 H5I       -2.2913    1.1532    6.6900 H         1 RES1    0.0000
     57 H4I       -1.5629    3.1562    6.1553 H         1 RES1    0.0000
     58 H1C       -0.9757    7.0316    3.5342 H         1 RES1    0.0000
     59 C6C       -4.6979    8.7979    2.6883 C.2       1 RES1    0.0000
     60 C7C       -5.0150    9.1833    1.4011 C.2       1 RES1    0.0000
     61 C8C       -6.2927    9.5672    1.0816 C.2       1 RES1    0.0000
     62 C9C       -7.2668    9.6021    2.0440 C.2       1 RES1    0.0000
     63 O1C       -8.4823   10.0482    1.9426 O.2       1 RES1    0.0000
     64 C10C      -6.9800    9.2137    3.2998 C.2       1 RES1    0.0000
     65 C11C      -5.7085    8.8085    3.6260 C.2       1 RES1    0.0000
     66 H8C       -5.5233    8.6188    4.5240 H         1 RES1    0.0000
     67 H7C       -7.6629    9.1196    3.9208 H         1 RES1    0.0000
     68 H5C       -6.4338    9.8783    0.1645 H         1 RES1    0.0000
     69 H4C       -4.4308    9.1499    0.6992 H         1 RES1    0.0000
     70 H1M       -0.5554    8.5627    3.3203 H         1 RES1    0.0000
     71 C6M        1.2109   12.2849    4.1662 C.2       1 RES1    0.0000
     72 C7M        1.5963   12.6020    5.4534 C.2       1 RES1    0.0000
     73 C8M        1.9802   13.8797    5.7729 C.2       1 RES1    0.0000
     74 C9M        2.0151   14.8538    4.8105 C.2       1 RES1    0.0000
     75 O1M        2.4612   16.0693    4.9119 O.2       1 RES1    0.0000
     76 C10M       1.6267   14.5670    3.5547 C.2       1 RES1    0.0000
     77 C11M       1.2215   13.2955    3.2285 C.2       1 RES1    0.0000
     78 H8M        1.0318   13.1103    2.3305 H         1 RES1    0.0000
     79 H7M        1.5326   15.2499    2.9337 H         1 RES1    0.0000
     80 H5M        2.2913   14.0208    6.6900 H         1 RES1    0.0000
     81 H4M        1.5629   12.0178    6.1553 H         1 RES1    0.0000
@<TRIPOS>BOND
     1    1   11 1
     2    2    3 1
     3    3    4 1
     4    4    5 1
     5    5   16 1
     6    6    7 1
     7    7    3 1
     8    8    7 1
     9    9    8 1
    10   10    9 1
    11   11   10 1
    12   12   11 1
    13   13    8 1
    14   14    2 1
    15   15    4 1
    16   17    9 1
    17   18   10 1
    18   20   12 1
    19   21   13 1
    20   22    2 1
    21   23   22 1
    22   24   23 1
    23   25   24 1
    24   26   25 1
    25   27   26 1
    26   28   24 1
    27   29   28 1
    28   30   27 1
    29   31   26 1
    30   32   31 1
    31   33   32 1
    32   34   33 1
    33   35   34 1
    34   36   32 1
    35   37   36 1
    36   38   35 1
    37   39   34 1
    38   40   39 1
    39   41    6 1
    40   42    6 1
    41   43   40 1
    42   44   43 1
    43   45   42 1
    44   46   41 1
    45   47   39 1
    46   48   47 1
    47   49   48 1
    48   50   49 1
    49   51   50 1
    50   52   50 1
    51   53   47 1
    52   54   53 1
    53   55   52 1
    54   56   49 1
    55   57   48 1
    56   58   33 1
    57   59   31 1
    58   60   59 1
    59   61   60 1
    60   62   61 1
    61   63   62 1
    62   64   62 1
    63   65   59 1
    64   66   65 1
    65   67   64 1
    66   68   61 1
    67   69   60 1
    68   70   25 1
    69   71   23 1
    70   72   71 1
    71   73   72 1
    72   74   73 1
    73   75   74 1
    74   76   74 1
    75   77   71 1
    76   78   77 1
    77   79   76 1
    78   80   73 1
    79   81   72 1
    80    5   22 1
    81   12   13 1
    82   27   28 1
    83   35   36 1
    84   40   41 1
    85   42   43 1
    86   52   53 1
    87   64   65 1
    88   76   77 1
@<TRIPOS>SUBSTRUCTURE
     1 RES1 1
     2 SUP2 19

@<TRIPOS>CRYSIN
  15.1740   15.1740   13.7090  90.0000  90.0000  90.0000 122 1

