# MOL2 file generated by ConQuest
# Please check atom types

@<TRIPOS>MOLECULE
LIMZOW
    39    40     1
SMALL
NO_CHARGES
****
Generated from CSD

@<TRIPOS>ATOM
      1 O1         2.9543    5.5357   17.5581 O.2       1 RES1    0.0000
      2 O2         0.1457    3.9791   14.5001 O.2       1 RES1    0.0000
      3 O3        -1.1312    1.5932   16.7152 O.3       1 RES1    0.0000
      4 O4         0.3835   -0.2703   13.9910 O.3       1 RES1    0.0000
      5 N1         2.1145    6.0463   16.5728 N.2       1 RES1    0.0000
      6 N2         0.9894    3.5377   15.5036 N.2       1 RES1    0.0000
      7 C1         1.3326    8.2428   15.6879 C.ar      1 RES1    0.0000
      8 C2         1.4656    9.6206   15.5766 C.ar      1 RES1    0.0000
      9 C3         2.4737   10.2722   16.2481 C.ar      1 RES1    0.0000
     10 C4         3.3445    9.5553   17.0399 C.ar      1 RES1    0.0000
     11 C5         3.2175    8.1854   17.1786 C.ar      1 RES1    0.0000
     12 C6         2.2094    7.5468   16.4889 C.ar      1 RES1    0.0000
     13 C7         2.5272    5.4691   15.2427 C.3       1 RES1    0.0000
     14 C8         2.4103    3.9739   15.2354 C.3       1 RES1    0.0000
     15 C9         0.5794    4.1149   16.8356 C.3       1 RES1    0.0000
     16 C10        0.6914    5.6088   16.8356 C.3       1 RES1    0.0000
     17 C11        0.9822    2.0281   15.5383 C.3       1 RES1    0.0000
     18 C12       -0.3912    1.3960   15.5200 C.3       1 RES1    0.0000
     19 C13       -0.2660   -0.0810   15.2263 C.3       1 RES1    0.0000
     20 H1         0.6732    7.7701   15.1259 H         1 RES1    0.0000
     21 H2         0.8222   10.0815   14.9617 H         1 RES1    0.0000
     22 H3         2.4831   11.2438   16.1295 H         1 RES1    0.0000
     23 H4         4.0116    9.9901   17.4797 H         1 RES1    0.0000
     24 H5         3.8129    7.6003   17.6621 H         1 RES1    0.0000
     25 H6        -0.6732    1.4495   17.3155 H         1 RES1    0.0000
     26 H7         0.2593   -0.9664   13.7027 H         1 RES1    0.0000
     27 H8         2.0141    5.8896   14.5968 H         1 RES1    0.0000
     28 H9         3.4212    5.7198   15.0530 H         1 RES1    0.0000
     29 H10        2.6100    3.6565   14.3414 H         1 RES1    0.0000
     30 H11        2.9687    3.5259   15.9470 H         1 RES1    0.0000
     31 H12       -0.2925    3.9046   16.9323 H         1 RES1    0.0000
     32 H13        1.0870    3.6957   17.4979 H         1 RES1    0.0000
     33 H14        0.4470    6.0071   17.6804 H         1 RES1    0.0000
     34 H15        0.1600    6.0333   16.1660 H         1 RES1    0.0000
     35 H16        1.4071    1.7499   14.7428 H         1 RES1    0.0000
     36 H17        1.4512    1.7891   16.2937 H         1 RES1    0.0000
     37 H18       -0.9546    1.7891   14.7975 H         1 RES1    0.0000
     38 H19       -1.1367   -0.4962   15.1989 H         1 RES1    0.0000
     39 H20        0.2097   -0.5224   15.9288 H         1 RES1    0.0000
@<TRIPOS>BOND
     1    1    5 2
     2    2    6 2
     3    3   18 1
     4    4   19 1
     5    5   12 1
     6    6   14 1
     7    7    8 ar
     8    8    9 ar
     9    9   10 ar
    10   10   11 ar
    11   11   12 ar
    12   12    7 ar
    13   13    5 1
    14   14   13 1
    15   15    6 1
    16   16    5 1
    17   17    6 1
    18   18   17 1
    19   19   18 1
    20   20    7 1
    21   21    8 1
    22   22    9 1
    23   23   10 1
    24   24   11 1
    25   25    3 1
    26   26    4 1
    27   27   13 1
    28   28   13 1
    29   29   14 1
    30   30   14 1
    31   31   15 1
    32   32   15 1
    33   33   16 1
    34   34   16 1
    35   35   17 1
    36   36   17 1
    37   37   18 1
    38   38   19 1
    39   39   19 1
    40   15   16 1
@<TRIPOS>SUBSTRUCTURE
     1 RES1 1

@<TRIPOS>CRYSIN
   5.5180   13.0590   18.2460  90.0000  90.0000  90.0000  19 1

