# MOL2 file generated by ConQuest
# Please check atom types

@<TRIPOS>MOLECULE
LIPJUR
    45    48     1
SMALL
NO_CHARGES
****
Generated from CSD

@<TRIPOS>ATOM
      1 O1        14.6021   14.4427    4.2928 O.3       1 RES1    0.0000
      2 O2        10.0597   14.0729    6.2285 O.3       1 RES1    0.0000
      3 O3         8.4404   10.1474    8.2980 O.2       1 RES1    0.0000
      4 O4         8.5673    8.1771    9.1747 O.2       1 RES1    0.0000
      5 N1        12.4960   11.6314    8.6242 N.3       1 RES1    0.0000
      6 H1        13.0074   10.9701    8.9552 H         1 RES1    0.0000
      7 N2         8.8431    9.3791    9.1590 N.pl3     1 RES1    0.0000
      8 C1        13.0289   12.2494    7.4843 C.ar      1 RES1    0.0000
      9 C2        14.4119   12.2758    7.2786 C.ar      1 RES1    0.0000
     10 H2        14.9745   11.7933    7.8724 H         1 RES1    0.0000
     11 C3        14.9873   12.9848    6.2330 C.ar      1 RES1    0.0000
     12 H3        15.9306   12.9994    6.1222 H         1 RES1    0.0000
     13 C4        14.1611   13.6734    5.3485 C.ar      1 RES1    0.0000
     14 C5        12.7828   13.6148    5.5128 C.ar      1 RES1    0.0000
     15 H4        12.2220   14.0584    4.8870 H         1 RES1    0.0000
     16 C6        12.2038   12.9240    6.5678 C.ar      1 RES1    0.0000
     17 C7        10.6898   12.8851    6.7317 C.3       1 RES1    0.0000
     18 H5        10.3536   12.1191    6.1833 H         1 RES1    0.0000
     19 C8        10.3050   15.2377    7.0254 C.3       1 RES1    0.0000
     20 H6         9.8234   16.0090    6.6344 H         1 RES1    0.0000
     21 H7        11.2728   15.4443    7.0138 H         1 RES1    0.0000
     22 C9         9.8532   15.0386    8.4583 C.3       1 RES1    0.0000
     23 H8         8.8738   14.8982    8.4827 H         1 RES1    0.0000
     24 H9        10.0621   15.8475    8.9892 H         1 RES1    0.0000
     25 C10       10.5626   13.8276    9.0642 C.3       1 RES1    0.0000
     26 H10       11.5354   14.0006    9.1182 H         1 RES1    0.0000
     27 H11       10.2248   13.6644    9.9808 H         1 RES1    0.0000
     28 C11       10.3018   12.6014    8.1884 C.3       1 RES1    0.0000
     29 H12        9.3225   12.4016    8.2169 H         1 RES1    0.0000
     30 C12       11.0637   11.3333    8.6316 C.3       1 RES1    0.0000
     31 H13       10.8840   10.6032    7.9724 H         1 RES1    0.0000
     32 C13       10.6627   10.8506   10.0206 C.ar      1 RES1    0.0000
     33 C14        9.6532    9.9133   10.2611 C.ar      1 RES1    0.0000
     34 C15        9.3182    9.4401   11.5241 C.ar      1 RES1    0.0000
     35 H14        8.6360    8.7872   11.6301 H         1 RES1    0.0000
     36 C16        9.9937    9.9353   12.6218 C.ar      1 RES1    0.0000
     37 H15        9.7677    9.6428   13.4969 H         1 RES1    0.0000
     38 C17       11.0039   10.8631   12.4331 C.ar      1 RES1    0.0000
     39 H16       11.4752   11.2018   13.1854 H         1 RES1    0.0000
     40 C18       11.3381   11.3058   11.1602 C.ar      1 RES1    0.0000
     41 H17       12.0437   11.9344   11.0597 H         1 RES1    0.0000
     42 C19       16.0043   14.6840    4.2259 C.3       1 RES1    0.0000
     43 H18       16.3104   15.0702    5.0733 H         1 RES1    0.0000
     44 H19       16.1938   15.3085    3.4948 H         1 RES1    0.0000
     45 H20       16.4741   13.8399    4.0643 H         1 RES1    0.0000
@<TRIPOS>BOND
     1    1   13 1
     2    2   17 1
     3    3    7 2
     4    4    7 2
     5    5    6 1
     6    7   33 1
     7    8    5 1
     8    9    8 ar
     9   10    9 1
    10   11    9 ar
    11   12   11 1
    12   13   11 ar
    13   14   13 ar
    14   15   14 1
    15   16    8 ar
    16   17   16 1
    17   18   17 1
    18   19    2 1
    19   20   19 1
    20   21   19 1
    21   22   19 1
    22   23   22 1
    23   24   22 1
    24   25   22 1
    25   26   25 1
    26   27   25 1
    27   28   17 1
    28   29   28 1
    29   30    5 1
    30   31   30 1
    31   32   30 1
    32   33   32 ar
    33   34   33 ar
    34   35   34 1
    35   36   34 ar
    36   37   36 1
    37   38   36 ar
    38   39   38 1
    39   40   32 ar
    40   41   40 1
    41   42    1 1
    42   43   42 1
    43   44   42 1
    44   45   42 1
    45   14   16 ar
    46   25   28 1
    47   28   30 1
    48   38   40 ar
@<TRIPOS>SUBSTRUCTURE
     1 RES1 1

@<TRIPOS>CRYSIN
   8.4406   10.2459   10.6103  66.3660  80.9010  74.9290   2 1

