# MOL2 file generated by ConQuest
# Please check atom types

@<TRIPOS>MOLECULE
LIPKUR
    49    50     1
SMALL
NO_CHARGES
****
Generated from CSD

@<TRIPOS>ATOM
      1 O1         2.3661    3.5278    6.7724 O.3       1 RES1    0.0000
      2 H1         2.5392    4.2248    7.3214 H         1 RES1    0.0000
      3 O2         4.0884    4.0258    0.0138 O.3       1 RES1    0.0000
      4 H2         3.9436    4.7205   -0.4967 H         1 RES1    0.0000
      5 N1         2.0233    2.0628    4.7080 N.pl3     1 RES1    0.0000
      6 H3         2.3536    1.7891    5.4870 H         1 RES1    0.0000
      7 N2         1.6643    4.1616    5.6827 N.2       1 RES1    0.0000
      8 N3         4.2586    2.6642    2.1909 N.pl3     1 RES1    0.0000
      9 H4         3.9217    2.3854    1.3957 H         1 RES1    0.0000
     10 N4         4.7462    4.6853    1.1066 N.2       1 RES1    0.0000
     11 C1         3.4679    0.6035    3.3034 C.3       1 RES1    0.0000
     12 H5         3.4276    0.0560    2.4917 H         1 RES1    0.0000
     13 H6         3.6922    0.0065    4.0481 H         1 RES1    0.0000
     14 C2         2.0864    1.1791    3.5565 C.3       1 RES1    0.0000
     15 H7         1.7991    1.6748    2.7617 H         1 RES1    0.0000
     16 H8         1.4553    0.4404    3.6904 H         1 RES1    0.0000
     17 C3         4.5985    1.6116    3.1437 C.3       1 RES1    0.0000
     18 H9         4.7970    2.0154    4.0143 H         1 RES1    0.0000
     19 H10        5.4045    1.1467    2.8373 H         1 RES1    0.0000
     20 C4         1.5587    3.3367    4.6900 C.2       1 RES1    0.0000
     21 C5         0.8830    3.8605    3.4710 C.ar      1 RES1    0.0000
     22 C6         1.4997    4.8355    2.6998 C.ar      1 RES1    0.0000
     23 H11        2.3406    5.1689    2.9574 H         1 RES1    0.0000
     24 C7         0.8919    5.3219    1.5551 C.ar      1 RES1    0.0000
     25 H12        1.3327    5.9722    1.0394 H         1 RES1    0.0000
     26 C8        -0.3528    4.8686    1.1575 C.ar      1 RES1    0.0000
     27 C9        -0.9611    3.8821    1.9264 C.ar      1 RES1    0.0000
     28 H13       -1.8003    3.5487    1.6643 H         1 RES1    0.0000
     29 C10       -0.3637    3.3834    3.0623 C.ar      1 RES1    0.0000
     30 H14       -0.7974    2.7181    3.5648 H         1 RES1    0.0000
     31 C11       -1.0485    5.4275   -0.0540 C.3       1 RES1    0.0000
     32 H15       -1.6966    6.0929    0.2241 H         1 RES1    0.0000
     33 H16       -1.5017    4.7112   -0.5251 H         1 RES1    0.0000
     34 H17       -0.3942    5.8378   -0.6412 H         1 RES1    0.0000
     35 C12        4.8196    3.9072    2.1404 C.2       1 RES1    0.0000
     36 C13        5.5557    4.4655    3.3018 C.ar      1 RES1    0.0000
     37 C14        5.0792    4.4181    4.6032 C.ar      1 RES1    0.0000
     38 H18        4.2249    4.0660    4.7743 H         1 RES1    0.0000
     39 C15        5.8510    4.8858    5.6514 C.ar      1 RES1    0.0000
     40 H19        5.5120    4.8369    6.5263 H         1 RES1    0.0000
     41 C16        7.1093    5.4232    5.4447 C.ar      1 RES1    0.0000
     42 C17        7.5475    5.5267    4.1407 C.ar      1 RES1    0.0000
     43 H20        8.3797    5.9283    3.9698 H         1 RES1    0.0000
     44 C18        6.8004    5.0582    3.0815 C.ar      1 RES1    0.0000
     45 H21        7.1314    5.1387    2.2056 H         1 RES1    0.0000
     46 C19        7.9938    5.8450    6.5972 C.3       1 RES1    0.0000
     47 H22        8.6797    5.1739    6.7409 H         1 RES1    0.0000
     48 H23        7.4573    5.9362    7.3996 H         1 RES1    0.0000
     49 H24        8.4119    6.6950    6.3900 H         1 RES1    0.0000
@<TRIPOS>BOND
     1    1    2 1
     2    3    4 1
     3    5    6 1
     4    7    1 1
     5    8    9 1
     6   10    3 1
     7   11   12 1
     8   13   11 1
     9   14    5 1
    10   15   14 1
    11   16   14 1
    12   17    8 1
    13   18   17 1
    14   19   17 1
    15   20    5 1
    16   21   20 1
    17   22   21 ar
    18   23   22 1
    19   24   22 ar
    20   25   24 1
    21   26   24 ar
    22   27   26 ar
    23   28   27 1
    24   29   21 ar
    25   30   29 1
    26   31   26 1
    27   32   31 1
    28   33   31 1
    29   34   31 1
    30   35    8 1
    31   36   35 1
    32   37   36 ar
    33   38   37 1
    34   39   37 ar
    35   40   39 1
    36   41   39 ar
    37   42   41 ar
    38   43   42 1
    39   44   36 ar
    40   45   44 1
    41   46   41 1
    42   47   46 1
    43   48   46 1
    44   49   46 1
    45    7   20 2
    46   10   35 2
    47   11   14 1
    48   11   17 1
    49   27   29 ar
    50   42   44 ar
@<TRIPOS>SUBSTRUCTURE
     1 RES1 1

@<TRIPOS>CRYSIN
  18.2200    7.1850   14.2690  90.0000 108.9200  90.0000  14 1

