# MOL2 file generated by ConQuest
# Please check atom types

@<TRIPOS>MOLECULE
LIPKOL
    46    47     1
SMALL
NO_CHARGES
****
Generated from CSD

@<TRIPOS>ATOM
      1 O1         4.2572    1.4847    8.2652 O.3       1 RES1    0.0000
      2 H1         4.6585    0.6689    8.0953 H         1 RES1    0.0000
      3 N1         3.0065    3.4144    9.3958 N.pl3     1 RES1    0.0000
      4 H2         3.5038    3.4450    8.6475 H         1 RES1    0.0000
      5 N2         3.4388    1.1081    9.3756 N.2       1 RES1    0.0000
      6 C1         1.9352    4.4121    9.4039 C.3       1 RES1    0.0000
      7 H3         2.3284    5.3128    9.2882 H         1 RES1    0.0000
      8 H4         1.4773    4.3909   10.2811 H         1 RES1    0.0000
      9 C2         2.8153    2.1333    9.8558 C.2       1 RES1    0.0000
     10 C3         1.9175    1.8632   11.0104 C.ar      1 RES1    0.0000
     11 C4         2.0879    2.5319   12.2265 C.ar      1 RES1    0.0000
     12 H5         2.7685    3.1886   12.3146 H         1 RES1    0.0000
     13 C5         1.2630    2.2376   13.3070 C.ar      1 RES1    0.0000
     14 H6         1.3977    2.6869   14.1323 H         1 RES1    0.0000
     15 C6         0.2418    1.2938   13.1982 C.ar      1 RES1    0.0000
     16 C7         0.0879    0.6351   11.9842 C.ar      1 RES1    0.0000
     17 H7        -0.5988   -0.0146   11.8916 H         1 RES1    0.0000
     18 C8         0.9184    0.9054   10.9007 C.ar      1 RES1    0.0000
     19 H8         0.8008    0.4339   10.0846 H         1 RES1    0.0000
     20 C9        -0.6772    0.9897   14.3556 C.3       1 RES1    0.0000
     21 H9        -1.6089    1.0574   14.0597 H         1 RES1    0.0000
     22 H10       -0.5159    1.6320   15.0774 H         1 RES1    0.0000
     23 H11       -0.5034    0.0815   14.6809 H         1 RES1    0.0000
     24 O1B       -1.4128    7.0913    9.4333 O.3       1 RES1    0.0000
     25 H1B       -1.8141    7.9071    9.6032 H         1 RES1    0.0000
     26 N1B       -0.1621    5.1616    8.3027 N.3       1 RES1    0.0000
     27 H2B       -0.6595    5.1310    9.0510 H         1 RES1    0.0000
     28 N2B       -0.5944    7.4679    8.3229 N.2       1 RES1    0.0000
     29 C1B        0.9092    4.1639    8.2946 C.3       1 RES1    0.0000
     30 H3B        0.5160    3.2632    8.4103 H         1 RES1    0.0000
     31 H4B        1.3671    4.1851    7.4175 H         1 RES1    0.0000
     32 C2B        0.0291    6.4427    7.8428 C.2       1 RES1    0.0000
     33 C3B        0.9269    6.7128    6.6881 C.ar      1 RES1    0.0000
     34 C4B        0.7564    6.0441    5.4720 C.ar      1 RES1    0.0000
     35 H5B        0.0759    5.3874    5.3839 H         1 RES1    0.0000
     36 C5B        1.5814    6.3384    4.3915 C.ar      1 RES1    0.0000
     37 H6B        1.4467    5.8891    3.5663 H         1 RES1    0.0000
     38 C6B        2.6026    7.2822    4.5004 C.ar      1 RES1    0.0000
     39 C7B        2.7565    7.9409    5.7143 C.ar      1 RES1    0.0000
     40 H7B        3.4432    8.5906    5.8069 H         1 RES1    0.0000
     41 C8B        1.9260    7.6706    6.7978 C.ar      1 RES1    0.0000
     42 H8B        2.0435    8.1421    7.6139 H         1 RES1    0.0000
     43 C9B        3.5216    7.5863    3.3429 C.3       1 RES1    0.0000
     44 H9B        4.4533    7.5186    3.6388 H         1 RES1    0.0000
     45 H10B       3.3603    6.9440    2.6212 H         1 RES1    0.0000
     46 H11B       3.3478    8.4945    3.0176 H         1 RES1    0.0000
@<TRIPOS>BOND
     1    1    2 1
     2    3    4 1
     3    5    1 1
     4    6    3 1
     5    7    6 1
     6    8    6 1
     7    9    3 1
     8   10    9 1
     9   11   10 ar
    10   12   11 1
    11   13   11 ar
    12   14   13 1
    13   15   13 ar
    14   16   15 ar
    15   17   16 1
    16   18   10 ar
    17   19   18 1
    18   20   15 1
    19   21   20 1
    20   22   20 1
    21   23   20 1
    22   24   25 1
    23   26   27 1
    24   28   24 1
    25   29    6 1
    26   30   29 1
    27   31   29 1
    28   32   26 1
    29   33   32 1
    30   34   33 ar
    31   35   34 1
    32   36   34 ar
    33   37   36 1
    34   38   36 ar
    35   39   38 ar
    36   40   39 1
    37   41   33 ar
    38   42   41 1
    39   43   38 1
    40   44   43 1
    41   45   43 1
    42   46   43 1
    43    5    9 2
    44   16   18 ar
    45   26   29 1
    46   28   32 2
    47   39   41 ar
@<TRIPOS>SUBSTRUCTURE
     1 RES1 1

@<TRIPOS>CRYSIN
   5.6466    8.5760   17.9190  90.0000  98.9970  90.0000 231 1

