# MOL2 file generated by ConQuest
# Please check atom types

@<TRIPOS>MOLECULE
LIPLUT
    48    49     1
SMALL
NO_CHARGES
****
Generated from CSD

@<TRIPOS>ATOM
      1 C1         0.6941    2.7189   12.9329 C.3       1 RES1    0.0000
      2 H1         0.0021    2.6140   13.6197 H         1 RES1    0.0000
      3 H2         1.3916    3.3231   13.2627 H         1 RES1    0.0000
      4 H3         1.0875    1.8446   12.7302 H         1 RES1    0.0000
      5 C2         0.0905    3.2857   11.7068 C.2       1 RES1    0.0000
      6 C3         0.6005    4.4254    9.6602 C.3       1 RES1    0.0000
      7 H4        -0.1861    5.0081    9.8648 H         1 RES1    0.0000
      8 C4         0.1993    3.3830    8.6766 C.2       1 RES1    0.0000
      9 H5        -0.6002    2.8881    8.8124 H         1 RES1    0.0000
     10 C5         0.9466    3.1437    7.6203 C.2       1 RES1    0.0000
     11 C6         2.2536    3.8318    7.3283 C.3       1 RES1    0.0000
     12 H6         2.9245    3.1509    7.0334 H         1 RES1    0.0000
     13 C7         1.7415    5.2851    9.1461 C.3       1 RES1    0.0000
     14 H7         1.3831    5.9588    8.5000 H         1 RES1    0.0000
     15 N1         0.5773    2.0844    6.6716 N.pl3     1 RES1    0.0000
     16 O1        -0.5547    1.6063    6.7395 O.2       1 RES1    0.0000
     17 C8         2.4317    6.0006   10.2848 C.3       1 RES1    0.0000
     18 H8         1.7718    6.5414   10.7863 H         1 RES1    0.0000
     19 H9         2.8242    5.3371   10.9056 H         1 RES1    0.0000
     20 C9         3.2991    8.1938    9.9356 C.2       1 RES1    0.0000
     21 C10        4.5059    8.9443    9.4700 C.3       1 RES1    0.0000
     22 H10        4.3829    9.9015    9.6437 H         1 RES1    0.0000
     23 H11        4.6303    8.7995    8.5088 H         1 RES1    0.0000
     24 H12        5.2965    8.6248    9.9541 H         1 RES1    0.0000
     25 O2         2.3171    8.6809   10.4100 O.2       1 RES1    0.0000
     26 C11        3.1699    5.2013    5.5522 C.3       1 RES1    0.0000
     27 H13        3.9214    4.5617    5.7133 H         1 RES1    0.0000
     28 C12        2.8513    5.2028    4.0827 C.3       1 RES1    0.0000
     29 H14        2.0650    5.7803    3.9149 H         1 RES1    0.0000
     30 H15        2.6251    4.2837    3.7917 H         1 RES1    0.0000
     31 C13        4.0463    5.7154    3.2766 C.3       1 RES1    0.0000
     32 H16        4.8011    5.0808    3.3659 H         1 RES1    0.0000
     33 H17        3.8007    5.7659    2.3193 H         1 RES1    0.0000
     34 C14        4.4831    7.0950    3.7616 C.3       1 RES1    0.0000
     35 H18        5.2940    7.3769    3.2689 H         1 RES1    0.0000
     36 H19        3.7668    7.7523    3.5764 H         1 RES1    0.0000
     37 C15        4.7771    7.0726    5.2467 C.3       1 RES1    0.0000
     38 H20        5.0107    7.9867    5.5464 H         1 RES1    0.0000
     39 H21        5.5577    6.4879    5.4164 H         1 RES1    0.0000
     40 C16        3.5850    6.5676    6.0557 C.3       1 RES1    0.0000
     41 H22        3.8309    6.5105    7.0130 H         1 RES1    0.0000
     42 H23        2.8288    7.2006    5.9664 H         1 RES1    0.0000
     43 O3         3.4758    6.8617    9.7678 O.3       1 RES1    0.0000
     44 O4         1.0433    3.7741   10.8746 O.3       1 RES1    0.0000
     45 O5         1.4120    1.7259    5.8568 O.2       1 RES1    0.0000
     46 O6         1.9898    4.7177    6.2594 O.3       1 RES1    0.0000
     47 O7         2.7225    4.4711    8.4884 O.3       1 RES1    0.0000
     48 O8        -1.0812    3.3505   11.4508 O.2       1 RES1    0.0000
@<TRIPOS>BOND
     1    1    2 1
     2    3    1 1
     3    4    1 1
     4    5    1 1
     5    6    7 1
     6    8    6 1
     7    9    8 1
     8   10    8 2
     9   11   10 1
    10   12   11 1
    11   13    6 1
    12   14   13 1
    13   15   10 1
    14   16   15 2
    15   17   13 1
    16   18   17 1
    17   19   17 1
    18   20   21 1
    19   21   22 1
    20   23   21 1
    21   24   21 1
    22   25   20 2
    23   26   27 1
    24   28   26 1
    25   29   28 1
    26   30   28 1
    27   31   28 1
    28   32   31 1
    29   33   31 1
    30   34   31 1
    31   35   34 1
    32   36   34 1
    33   37   34 1
    34   38   37 1
    35   39   37 1
    36   40   26 1
    37   41   40 1
    38   42   40 1
    39   43   17 1
    40   44    5 1
    41   45   15 2
    42   46   11 1
    43   47   11 1
    44   48    5 2
    45    6   44 1
    46   13   47 1
    47   20   43 1
    48   26   46 1
    49   37   40 1
@<TRIPOS>SUBSTRUCTURE
     1 RES1 1

@<TRIPOS>CRYSIN
   5.4454    8.3720    9.7930  84.2380  83.5400  78.2330   1 1

