# MOL2 file generated by ConQuest
# Please check atom types

@<TRIPOS>MOLECULE
LIPWEN
    44    47     1
SMALL
NO_CHARGES
****
Generated from CSD

@<TRIPOS>ATOM
      1 O1         1.8650    7.6544    1.1379 O.2       1 RES1    0.0000
      2 O2         4.3161   10.3573   -1.5394 O.2       1 RES1    0.0000
      3 O3        -1.9269   12.9147   -2.0066 O.2       1 RES1    0.0000
      4 O4        -2.6989   11.0719   -2.7506 O.2       1 RES1    0.0000
      5 N1         2.7631    9.1215   -0.3703 N.am      1 RES1    0.0000
      6 N2        -1.8441   11.7167   -2.1707 N.pl3     1 RES1    0.0000
      7 C1         4.0556    9.5144   -0.7310 C.2       1 RES1    0.0000
      8 C2         4.9885    8.7065    0.0949 C.2       1 RES1    0.0000
      9 C3         4.2712    7.9045    0.8789 C.2       1 RES1    0.0000
     10 C4         2.8192    8.1525    0.6130 C.2       1 RES1    0.0000
     11 C5         6.4330    8.8969    0.0176 C.ar      1 RES1    0.0000
     12 C6         7.0830    9.0524   -1.1725 C.ar      1 RES1    0.0000
     13 H1         6.5916    9.0941   -1.9605 H         1 RES1    0.0000
     14 C7         8.4774    9.1503   -1.2268 C.ar      1 RES1    0.0000
     15 H2         8.9106    9.1877   -2.0487 H         1 RES1    0.0000
     16 C8         9.1963    9.1877   -0.0793 C.ar      1 RES1    0.0000
     17 H3        10.1158    9.3187   -0.1092 H         1 RES1    0.0000
     18 C9         8.5740    9.0366    1.1040 C.ar      1 RES1    0.0000
     19 H4         9.0775    9.0063    1.8839 H         1 RES1    0.0000
     20 C10        7.1953    8.9272    1.1827 C.ar      1 RES1    0.0000
     21 H5         6.7795    8.8739    2.0127 H         1 RES1    0.0000
     22 C11        4.7063    6.9060    1.8561 C.2       1 RES1    0.0000
     23 C12        4.1409    6.8271    3.0279 C.2       1 RES1    0.0000
     24 H6         3.4319    7.3985    3.2137 H         1 RES1    0.0000
     25 C13        4.5679    5.8742    4.0804 C.3       1 RES1    0.0000
     26 H7         3.8037    5.3474    4.3598 H         1 RES1    0.0000
     27 H8         4.8816    6.3737    4.8508 H         1 RES1    0.0000
     28 C14        5.6526    4.9544    3.6227 C.2       1 RES1    0.0000
     29 H9         5.8002    4.1555    4.0763 H         1 RES1    0.0000
     30 C15        6.4062    5.2624    2.5790 C.2       1 RES1    0.0000
     31 H10        7.3081    5.0336    2.5641 H         1 RES1    0.0000
     32 C16        5.7970    5.9678    1.4465 C.3       1 RES1    0.0000
     33 H11        5.4348    5.3157    0.8267 H         1 RES1    0.0000
     34 H12        6.4854    6.4687    0.9806 H         1 RES1    0.0000
     35 C17        1.5747    9.7571   -0.8117 C.ar      1 RES1    0.0000
     36 C18        0.4905    9.0141   -1.2274 C.ar      1 RES1    0.0000
     37 H13        0.5285    8.0851   -1.2051 H         1 RES1    0.0000
     38 C19       -0.6423    9.6397   -1.6730 C.ar      1 RES1    0.0000
     39 H14       -1.3785    9.1474   -1.9578 H         1 RES1    0.0000
     40 C20       -0.6634   11.0225   -1.6886 C.ar      1 RES1    0.0000
     41 C21        0.4031   11.7726   -1.2634 C.ar      1 RES1    0.0000
     42 H15        0.3625   12.7013   -1.2756 H         1 RES1    0.0000
     43 C22        1.5212   11.1384   -0.8233 C.ar      1 RES1    0.0000
     44 H16        2.2519   11.6347   -0.5303 H         1 RES1    0.0000
@<TRIPOS>BOND
     1    1   10 2
     2    2    7 2
     3    3    6 2
     4    4    6 2
     5    5    7 1
     6    6   40 1
     7    7    8 1
     8    8    9 2
     9    9   10 1
    10   10    5 1
    11   11    8 1
    12   12   11 ar
    13   13   12 1
    14   14   12 ar
    15   15   14 1
    16   16   14 ar
    17   17   16 1
    18   18   16 ar
    19   19   18 1
    20   20   11 ar
    21   21   20 1
    22   22    9 1
    23   23   22 2
    24   24   23 1
    25   25   23 1
    26   26   25 1
    27   27   25 1
    28   28   25 1
    29   29   28 1
    30   30   28 2
    31   31   30 1
    32   32   22 1
    33   33   32 1
    34   34   32 1
    35   35    5 1
    36   36   35 ar
    37   37   36 1
    38   38   36 ar
    39   39   38 1
    40   40   38 ar
    41   41   40 ar
    42   42   41 1
    43   43   35 ar
    44   44   43 1
    45   18   20 ar
    46   30   32 1
    47   41   43 ar
@<TRIPOS>SUBSTRUCTURE
     1 RES1 1

@<TRIPOS>CRYSIN
  18.7740   14.3940    6.8848  90.0000  99.9400  90.0000  14 1

