# MOL2 file generated by ConQuest
# Please check atom types

@<TRIPOS>MOLECULE
LIPXIT
    48    51     1
SMALL
NO_CHARGES
****
Generated from CSD

@<TRIPOS>ATOM
      1 O1        14.2640    6.2471   -0.5153 O.3       1 RES1    0.0000
      2 O2         9.9749    8.2768   -3.3815 O.2       1 RES1    0.0000
      3 O3         8.5401    6.8847    4.9454 O.2       1 RES1    0.0000
      4 O4         8.0209    5.9872    3.0483 O.2       1 RES1    0.0000
      5 N1         9.7944    8.3264    2.1129 N.3       1 RES1    0.0000
      6 H1        10.0153    8.9540    2.5799 H         1 RES1    0.0000
      7 N2         9.2710    6.7421   -1.8317 N.am      1 RES1    0.0000
      8 N3         7.9851    6.9178    3.8546 N.pl3     1 RES1    0.0000
      9 C1        10.8911    7.8332    1.3731 C.ar      1 RES1    0.0000
     10 C2        12.1395    7.7655    2.0042 C.ar      1 RES1    0.0000
     11 H2        12.2325    8.0821    2.8739 H         1 RES1    0.0000
     12 C3        13.2345    7.2360    1.3509 C.ar      1 RES1    0.0000
     13 H3        14.0586    7.2038    1.7809 H         1 RES1    0.0000
     14 C4        13.1128    6.7499    0.0538 C.ar      1 RES1    0.0000
     15 C5        11.8870    6.8314   -0.5997 C.ar      1 RES1    0.0000
     16 H4        11.8029    6.5129   -1.4699 H         1 RES1    0.0000
     17 C6        10.7768    7.3921    0.0507 C.ar      1 RES1    0.0000
     18 C7         9.4612    7.6225   -0.6828 C.3       1 RES1    0.0000
     19 H5         9.4892    8.5385   -1.0310 H         1 RES1    0.0000
     20 C8         8.2965    7.5653    0.3133 C.3       1 RES1    0.0000
     21 H6         8.2420    6.6831    0.7140 H         1 RES1    0.0000
     22 H7         7.4591    7.7502   -0.1390 H         1 RES1    0.0000
     23 C9         8.5597    8.6218    1.3934 C.3       1 RES1    0.0000
     24 H8         8.6917    9.4762    0.9340 H         1 RES1    0.0000
     25 C10        7.4078    8.8117    2.3687 C.ar      1 RES1    0.0000
     26 C11        6.5161    9.8664    2.1299 C.ar      1 RES1    0.0000
     27 H9         6.6265   10.3779    1.3609 H         1 RES1    0.0000
     28 C12        5.4862   10.1740    2.9829 C.ar      1 RES1    0.0000
     29 H10        4.9133   10.8784    2.7849 H         1 RES1    0.0000
     30 C13        5.2998    9.4327    4.1448 C.ar      1 RES1    0.0000
     31 H11        4.6070    9.6428    4.7288 H         1 RES1    0.0000
     32 C14        6.1422    8.3943    4.4198 C.ar      1 RES1    0.0000
     33 H12        6.0290    7.8928    5.1947 H         1 RES1    0.0000
     34 C15        7.1748    8.0903    3.5292 C.ar      1 RES1    0.0000
     35 C16       14.1341    5.5883   -1.7699 C.3       1 RES1    0.0000
     36 H13       13.4720    4.8962   -1.7009 H         1 RES1    0.0000
     37 H14       14.9777    5.2001   -2.0159 H         1 RES1    0.0000
     38 H15       13.8663    6.2224   -2.4389 H         1 RES1    0.0000
     39 C17        8.9976    5.3142   -1.7407 C.3       1 RES1    0.0000
     40 H16        8.2218    5.1427   -1.1839 H         1 RES1    0.0000
     41 H17        9.7592    4.8360   -1.3779 H         1 RES1    0.0000
     42 C18        8.7320    4.9063   -3.1994 C.3       1 RES1    0.0000
     43 H18        9.1126    4.0347   -3.3878 H         1 RES1    0.0000
     44 H19        7.7800    4.8807   -3.3828 H         1 RES1    0.0000
     45 C19        9.4150    5.9876   -4.0297 C.3       1 RES1    0.0000
     46 H20       10.2738    5.6774   -4.3578 H         1 RES1    0.0000
     47 H21        8.8631    6.2398   -4.7868 H         1 RES1    0.0000
     48 C20        9.5924    7.1520   -3.0856 C.2       1 RES1    0.0000
@<TRIPOS>BOND
     1    1   14 1
     2    2   48 2
     3    3    8 2
     4    4    8 2
     5    5    6 1
     6    7   18 1
     7    8   34 1
     8    9    5 1
     9   10    9 ar
    10   11   10 1
    11   12   10 ar
    12   13   12 1
    13   14   12 ar
    14   15   14 ar
    15   16   15 1
    16   17    9 ar
    17   18   17 1
    18   19   18 1
    19   20   18 1
    20   21   20 1
    21   22   20 1
    22   23    5 1
    23   24   23 1
    24   25   23 1
    25   26   25 ar
    26   27   26 1
    27   28   26 ar
    28   29   28 1
    29   30   28 ar
    30   31   30 1
    31   32   30 ar
    32   33   32 1
    33   34   25 ar
    34   35    1 1
    35   36   35 1
    36   37   35 1
    37   38   35 1
    38   39    7 1
    39   40   39 1
    40   41   39 1
    41   42   39 1
    42   43   42 1
    43   44   42 1
    44   45   42 1
    45   46   45 1
    46   47   45 1
    47   48    7 1
    48   15   17 ar
    49   20   23 1
    50   32   34 ar
    51   45   48 1
@<TRIPOS>SUBSTRUCTURE
     1 RES1 1

@<TRIPOS>CRYSIN
   9.2372    9.6199   10.3333  83.6240  76.1610  82.2850   2 1

