# MOL2 file generated by ConQuest
# Please check atom types

@<TRIPOS>MOLECULE
LIQDEW
    27    28     1
SMALL
NO_CHARGES
****
Generated from CSD

@<TRIPOS>ATOM
      1 N1         1.3299    3.2433   -0.1086 N.ar      1 RES1    0.0000
      2 N2         1.4628    1.1552    0.8157 N.3       1 RES1    0.0000
      3 C1         1.9553    2.0418   -0.0263 C.ar      1 RES1    0.0000
      4 N3         3.0520    1.6661   -0.7388 N.ar      1 RES1    0.0000
      5 C2         3.0152    3.8406   -1.6513 C.ar      1 RES1    0.0000
      6 O1         3.1194    5.9531   -2.5197 O.2       1 RES1    0.0000
      7 C3         1.8817    4.1172   -0.9316 C.ar      1 RES1    0.0000
      8 H1         1.4853    4.9536   -1.0268 H         1 RES1    0.0000
      9 C4         3.5617    2.5775   -1.5414 C.ar      1 RES1    0.0000
     10 H2         4.3114    2.3633   -2.0484 H         1 RES1    0.0000
     11 C5         0.3793    0.3885    2.8505 C.ar      1 RES1    0.0000
     12 N4         3.6130    4.8373   -2.4930 N.pl3     1 RES1    0.0000
     13 C6         0.3732    1.4156    1.7562 C.3       1 RES1    0.0000
     14 H3        -0.4753    1.3872    1.2876 H         1 RES1    0.0000
     15 H4         0.4778    2.2998    2.1388 H         1 RES1    0.0000
     16 O2         4.6284    4.5419   -3.0950 O.2       1 RES1    0.0000
     17 C7         1.4415    0.3040    3.7211 C.ar      1 RES1    0.0000
     18 H5         2.1517    0.8975    3.6348 H         1 RES1    0.0000
     19 C8        -0.6431   -1.4313    4.0137 C.ar      1 RES1    0.0000
     20 H6        -1.3565   -2.0188    4.1133 H         1 RES1    0.0000
     21 C9         1.4697   -0.6421    4.7191 C.ar      1 RES1    0.0000
     22 H7         2.1999   -0.6908    5.2931 H         1 RES1    0.0000
     23 C10        0.4313   -1.5075    4.8649 C.ar      1 RES1    0.0000
     24 H8         0.4483   -2.1474    5.5385 H         1 RES1    0.0000
     25 C11       -0.6663   -0.4860    3.0167 C.ar      1 RES1    0.0000
     26 H9        -1.3993   -0.4387    2.4458 H         1 RES1    0.0000
     27 H10        1.8185    0.4034    0.8040 H         1 RES1    0.0000
@<TRIPOS>BOND
     1    1    3 ar
     2    2    3 1
     3    3    4 ar
     4    4    9 ar
     5    5    7 ar
     6    6   12 2
     7    7    1 ar
     8    8    7 1
     9    9    5 ar
    10   10    9 1
    11   11   13 1
    12   12    5 1
    13   13    2 1
    14   14   13 1
    15   15   13 1
    16   16   12 2
    17   17   11 ar
    18   18   17 1
    19   19   20 1
    20   21   17 ar
    21   22   21 1
    22   23   19 ar
    23   24   23 1
    24   25   11 ar
    25   26   25 1
    26   27    2 1
    27   19   25 ar
    28   21   23 ar
@<TRIPOS>SUBSTRUCTURE
     1 RES1 1

@<TRIPOS>CRYSIN
   5.6633    9.4701   10.4272  80.0400  87.9930  85.0290   2 1

