# MOL2 file generated by ConQuest
# Please check atom types

@<TRIPOS>MOLECULE
LIQKEC
    27    28     1
SMALL
NO_CHARGES
****
Generated from CSD

@<TRIPOS>ATOM
      1 O1        -1.5743    3.7877    3.4138 O.2       1 RES1    0.0000
      2 O2         3.9147    1.8272    1.8804 O.2       1 RES1    0.0000
      3 O3         5.6486    0.7507    2.5126 O.2       1 RES1    0.0000
      4 N1        -0.9429    3.3850    5.5509 N.am      1 RES1    0.0000
      5 N2         0.2533    2.8591    5.1111 N.2       1 RES1    0.0000
      6 N3        -3.8671    5.1014    4.2251 N.2       1 RES1    0.0000
      7 N4        -3.5259    4.3515    6.3205 N.2       1 RES1    0.0000
      8 N5        -4.6965    5.0069    6.2230 N.3       1 RES1    0.0000
      9 N6         4.5756    1.2870    2.7425 N.pl3     1 RES1    0.0000
     10 C1        -1.7868    3.8492    4.6248 C.2       1 RES1    0.0000
     11 C2        -3.0590    4.4406    5.0911 C.2       1 RES1    0.0000
     12 C3        -4.8857    5.4299    4.9894 C.2       1 RES1    0.0000
     13 C4         0.9876    2.3254    5.9990 C.2       1 RES1    0.0000
     14 C5         2.3013    1.7634    5.6638 C.ar      1 RES1    0.0000
     15 C6         3.0525    1.1430    6.6572 C.ar      1 RES1    0.0000
     16 C7         4.2852    0.5788    6.3697 C.ar      1 RES1    0.0000
     17 C8         4.7934    0.6278    5.0981 C.ar      1 RES1    0.0000
     18 C9         4.0449    1.2558    4.1167 C.ar      1 RES1    0.0000
     19 C10        2.8220    1.8251    4.3686 C.ar      1 RES1    0.0000
     20 H1        -1.0694    3.4529    6.3705 H         1 RES1    0.0000
     21 H2        -5.6601    5.9144    4.7249 H         1 RES1    0.0000
     22 H3         0.7385    2.2101    6.8371 H         1 RES1    0.0000
     23 H4        -5.3019    5.0789    6.8880 H         1 RES1    0.0000
     24 H5         2.7270    1.1007    7.5157 H         1 RES1    0.0000
     25 H6         4.8520    0.1595    7.1170 H         1 RES1    0.0000
     26 H7         5.6175    0.2548    4.8267 H         1 RES1    0.0000
     27 H8         2.3640    2.2604    3.6645 H         1 RES1    0.0000
@<TRIPOS>BOND
     1    1   10 2
     2    2    9 2
     3    3    9 2
     4    4    5 1
     5    5   13 2
     6    6   11 1
     7    7    8 1
     8    8   12 1
     9    9   18 1
    10   10    4 1
    11   11    7 2
    12   12    6 2
    13   13   14 1
    14   14   15 ar
    15   15   16 ar
    16   16   17 ar
    17   17   18 ar
    18   18   19 ar
    19   19   14 ar
    20   20    4 1
    21   21   12 1
    22   22   13 1
    23   23    8 1
    24   24   15 1
    25   25   16 1
    26   26   17 1
    27   27   19 1
    28   10   11 1
@<TRIPOS>SUBSTRUCTURE
     1 RES1 1

@<TRIPOS>CRYSIN
   8.0214   17.3340    8.9070  90.0000 107.7560  90.0000 231 1

