# MOL2 file generated by ConQuest
# Please check atom types

@<TRIPOS>MOLECULE
LITPOU
    58    62     1
SMALL
NO_CHARGES
****
Generated from CSD

@<TRIPOS>ATOM
      1 O1         2.6782   10.1045    8.0807 O.2       1 RES1    0.0000
      2 O2         1.2278   11.1334    9.3041 O.2       1 RES1    0.0000
      3 O3         1.1775   10.5858   14.0040 O.2       1 RES1    0.0000
      4 O4         2.1799    8.9084   14.9280 O.2       1 RES1    0.0000
      5 N1         4.2758    6.6013    8.8419 N.2       1 RES1    0.0000
      6 N2         3.7690    7.8931    8.9594 N.pl3     1 RES1    0.0000
      7 H1         3.7880    8.4452    8.2743 H         1 RES1    0.0000
      8 N3         2.0948   10.2780    9.1568 N.pl3     1 RES1    0.0000
      9 N4         1.8448    9.5523   13.9416 N.pl3     1 RES1    0.0000
     10 C1         4.6806    6.3174    7.6659 C.2       1 RES1    0.0000
     11 C2         4.7738    7.0537    6.3507 C.3       1 RES1    0.0000
     12 H2         5.4150    7.8076    6.3557 H         1 RES1    0.0000
     13 H3         3.8981    7.3322    5.9825 H         1 RES1    0.0000
     14 C3         5.3366    5.7482    5.7255 C.3       1 RES1    0.0000
     15 H4         6.2843    5.8183    5.4484 H         1 RES1    0.0000
     16 H5         4.7810    5.3902    4.9880 H         1 RES1    0.0000
     17 C4         5.1363    4.9954    7.0813 C.3       1 RES1    0.0000
     18 C5         6.2520    4.1735    7.7743 C.3       1 RES1    0.0000
     19 C6         7.5520    4.8688    8.2847 C.3       1 RES1    0.0000
     20 C7         7.4924    5.6343    9.6141 C.3       1 RES1    0.0000
     21 H6         7.4189    5.0082   10.3772 H         1 RES1    0.0000
     22 H7         6.7186    6.2520    9.6308 H         1 RES1    0.0000
     23 C8         8.8135    6.4138    9.6708 C.3       1 RES1    0.0000
     24 H8         9.5037    5.8939   10.1549 H         1 RES1    0.0000
     25 H9         8.6873    7.2812   10.1325 H         1 RES1    0.0000
     26 C9         9.2321    6.6359    8.2069 C.3       1 RES1    0.0000
     27 H10        9.2742    7.6032    7.9983 H         1 RES1    0.0000
     28 H11       10.1191    6.2334    8.0318 H         1 RES1    0.0000
     29 C10        8.1471    5.9462    7.3635 C.3       1 RES1    0.0000
     30 H12        8.5417    5.5361    6.5535 H         1 RES1    0.0000
     31 H13        7.4521    6.5954    7.0876 H         1 RES1    0.0000
     32 C11        8.5143    3.6668    8.3780 C.3       1 RES1    0.0000
     33 H14        9.4556    3.9727    8.4017 H         1 RES1    0.0000
     34 H15        8.3315    3.1351    9.1928 H         1 RES1    0.0000
     35 C12        8.2466    2.8361    7.1160 C.3       1 RES1    0.0000
     36 H16        8.8305    3.1286    6.3714 H         1 RES1    0.0000
     37 H17        8.4052    1.8738    7.2876 H         1 RES1    0.0000
     38 C13        6.7749    3.0952    6.7863 C.3       1 RES1    0.0000
     39 H18        6.2513    2.2606    6.8831 H         1 RES1    0.0000
     40 H19        6.6855    3.4147    5.8540 H         1 RES1    0.0000
     41 C14        5.4590    3.5175    8.9225 C.3       1 RES1    0.0000
     42 H20        5.9219    2.7044    9.2464 H         1 RES1    0.0000
     43 H21        5.3540    4.1472    9.6789 H         1 RES1    0.0000
     44 C15        4.0887    3.1587    8.3209 C.3       1 RES1    0.0000
     45 H22        4.0444    2.1924    8.1078 H         1 RES1    0.0000
     46 H23        3.3621    3.3776    8.9559 H         1 RES1    0.0000
     47 C16        3.9602    3.9936    7.0503 C.3       1 RES1    0.0000
     48 H24        3.0947    4.4740    7.0362 H         1 RES1    0.0000
     49 H25        4.0158    3.4158    6.2473 H         1 RES1    0.0000
     50 C17        3.2493    8.2841   10.1402 C.ar      1 RES1    0.0000
     51 C18        2.4494    9.4459   10.2918 C.ar      1 RES1    0.0000
     52 C19        1.9678    9.8402   11.5309 C.ar      1 RES1    0.0000
     53 H26        1.4304   10.6192   11.6142 H         1 RES1    0.0000
     54 C20        2.2768    9.0905   12.6319 C.ar      1 RES1    0.0000
     55 C21        3.0366    7.9256   12.5353 C.ar      1 RES1    0.0000
     56 H27        3.2296    7.4130   13.3115 H         1 RES1    0.0000
     57 C22        3.5004    7.5279   11.3139 C.ar      1 RES1    0.0000
     58 H28        4.0038    6.7251   11.2488 H         1 RES1    0.0000
@<TRIPOS>BOND
     1    1    8 2
     2    2    8 2
     3    3    9 2
     4    4    9 2
     5    5    6 1
     6    6    7 1
     7    8   51 1
     8    9   54 1
     9   10    5 2
    10   11   10 1
    11   12   11 1
    12   13   11 1
    13   14   11 1
    14   15   14 1
    15   16   14 1
    16   17   10 1
    17   18   17 1
    18   19   18 1
    19   20   19 1
    20   21   20 1
    21   22   20 1
    22   23   20 1
    23   24   23 1
    24   25   23 1
    25   26   23 1
    26   27   26 1
    27   28   26 1
    28   29   19 1
    29   30   29 1
    30   31   29 1
    31   32   19 1
    32   33   32 1
    33   34   32 1
    34   35   32 1
    35   36   35 1
    36   37   35 1
    37   38   18 1
    38   39   38 1
    39   40   38 1
    40   41   18 1
    41   42   41 1
    42   43   41 1
    43   44   41 1
    44   45   44 1
    45   46   44 1
    46   47   17 1
    47   48   47 1
    48   49   47 1
    49   50    6 1
    50   51   50 ar
    51   52   51 ar
    52   53   52 1
    53   54   52 ar
    54   55   54 ar
    55   56   55 1
    56   57   50 ar
    57   58   57 1
    58   14   17 1
    59   26   29 1
    60   35   38 1
    61   44   47 1
    62   55   57 ar
@<TRIPOS>SUBSTRUCTURE
     1 RES1 1

@<TRIPOS>CRYSIN
   8.4638   11.4380   12.2320  66.6400  78.4000  73.3200   2 1

