# MOL2 file generated by ConQuest
# Please check atom types

@<TRIPOS>MOLECULE
LITSIR
    66    70     1
SMALL
USER_CHARGES
****
Generated from CSD

@<TRIPOS>ATOM
      1 O1        -2.5953    6.4724   13.3256 O.2       1 RES1   -1.0000
      2 O2        -1.5757    3.0260    9.8133 O.2       1 RES1    0.0000
      3 O3        -2.9451    2.8038   12.7041 O.2       1 RES1    0.0000
      4 N1        -1.4664    5.8629   13.4533 N.pl3     1 RES1    1.0000
      5 N2        -0.5764    5.0597    9.5966 N.am      1 RES1    0.0000
      6 N3        -4.3204    3.6533   11.1225 N.am      1 RES1    0.0000
      7 C1        -0.6219    6.2109   14.4708 C.ar      1 RES1    0.0000
      8 C2         0.5467    5.5231   14.6277 C.ar      1 RES1    0.0000
      9 H1         1.0484    5.7695   15.3809 H         1 RES1    0.0000
     10 C3         0.8899    4.5089   13.7789 C.ar      1 RES1    0.0000
     11 H2         1.7144    4.0311   13.9206 H         1 RES1    0.0000
     12 C4         0.0377    4.1967   12.7342 C.ar      1 RES1    0.0000
     13 H3         0.2579    3.4567   12.1109 H         1 RES1    0.0000
     14 C5        -1.1333    4.8869   12.5699 C.ar      1 RES1    0.0000
     15 C6        -2.1169    4.6700   11.4656 C.3       1 RES1    0.0000
     16 H4        -2.5573    5.5293   11.3049 H         1 RES1    0.0000
     17 C7        -1.4174    4.1660   10.2018 C.2       1 RES1    0.0000
     18 C8        -3.1647    3.6325   11.8488 C.2       1 RES1    0.0000
     19 C9        -1.0734    7.3268   15.3369 C.3       1 RES1    0.0000
     20 H5        -1.0943    8.1126   14.8106 H         1 RES1    0.0000
     21 H6        -1.9515    7.0830   15.7402 H         1 RES1    0.0000
     22 H7        -0.5286    7.3954   16.1044 H         1 RES1    0.0000
     23 C10       -0.5868    6.4471    9.9844 C.ar      1 RES1    0.0000
     24 C11       -1.6944    7.2227    9.7050 C.ar      1 RES1    0.0000
     25 H8        -2.4586    6.8327    9.2233 H         1 RES1    0.0000
     26 C12       -1.7374    8.5291   10.1664 C.ar      1 RES1    0.0000
     27 H9        -2.5671    9.0783   10.0160 H         1 RES1    0.0000
     28 C13       -0.6719    9.0501   10.8616 C.ar      1 RES1    0.0000
     29 H10       -0.6968    9.9753   11.2077 H         1 RES1    0.0000
     30 C14        0.4440    8.2864   11.0954 C.ar      1 RES1    0.0000
     31 H11        1.2295    8.6685   11.5456 H         1 RES1    0.0000
     32 C15        0.5007    6.9721   10.6631 C.ar      1 RES1    0.0000
     33 H12        1.2753    6.3792   10.8220 H         1 RES1    0.0000
     34 C16        0.3555    4.6495    8.5884 C.ar      1 RES1    0.0000
     35 C17        0.6881    5.5411    7.5807 C.ar      1 RES1    0.0000
     36 H13        0.2874    6.3859    7.6113 H         1 RES1    0.0000
     37 C18        1.6219    5.1591    6.6203 C.ar      1 RES1    0.0000
     38 H14        1.8503    5.8165    5.9813 H         1 RES1    0.0000
     39 C19        2.2020    3.9229    6.6582 C.ar      1 RES1    0.0000
     40 H15        2.8335    3.6431    5.9730 H         1 RES1    0.0000
     41 C20        1.8758    3.0541    7.6631 C.ar      1 RES1    0.0000
     42 H16        2.2704    2.2053    7.7086 H         1 RES1    0.0000
     43 C21        0.9586    3.4096    8.6357 C.ar      1 RES1    0.0000
     44 H17        0.7112    2.8083    9.3172 H         1 RES1    0.0000
     45 C22       -4.7207    4.7820   10.3249 C.ar      1 RES1    0.0000
     46 C23       -4.7357    4.6806    8.9490 C.ar      1 RES1    0.0000
     47 H18       -4.4257    3.8262    8.5689 H         1 RES1    0.0000
     48 C24       -5.1257    5.7787    8.1938 C.ar      1 RES1    0.0000
     49 H19       -5.1016    5.6973    7.2141 H         1 RES1    0.0000
     50 C25       -5.4864    6.9504    8.8028 C.ar      1 RES1    0.0000
     51 H20       -5.7620    7.7531    8.2475 H         1 RES1    0.0000
     52 C26       -5.4765    7.0479   10.1721 C.ar      1 RES1    0.0000
     53 H21       -5.7713    7.8825   10.6325 H         1 RES1    0.0000
     54 C27       -5.1010    5.9541   10.9474 C.ar      1 RES1    0.0000
     55 H22       -5.0703    6.0164   11.9263 H         1 RES1    0.0000
     56 C28       -5.1350    2.4749   11.0888 C.ar      1 RES1    0.0000
     57 C29       -6.4803    2.5520   11.3507 C.ar      1 RES1    0.0000
     58 H23       -6.8953    3.4483   11.6131 H         1 RES1    0.0000
     59 C30       -7.2452    1.3899   11.3081 C.ar      1 RES1    0.0000
     60 H24       -8.2131    1.4579   11.5044 H         1 RES1    0.0000
     61 C31       -6.6722    0.1881   10.9970 C.ar      1 RES1    0.0000
     62 H25       -7.2121   -0.6131   10.9539 H         1 RES1    0.0000
     63 C32       -5.3283    0.1191   10.7417 C.ar      1 RES1    0.0000
     64 H26       -4.8849   -0.7877   10.5204 H         1 RES1    0.0000
     65 C33       -4.5507    1.2611   10.7836 C.ar      1 RES1    0.0000
     66 H27       -3.6005    1.2446   10.5632 H         1 RES1    0.0000
@<TRIPOS>BOND
     1    1    4 1
     2    2   17 2
     3    3   18 2
     4    4    7 ar
     5    5   17 1
     6    6   18 1
     7    7    8 ar
     8    8    9 1
     9   10    8 ar
    10   11   10 1
    11   12   10 ar
    12   13   12 1
    13   14    4 ar
    14   15   14 1
    15   16   15 1
    16   17   15 1
    17   18   15 1
    18   19    7 1
    19   20   19 1
    20   21   19 1
    21   22   19 1
    22   23    5 1
    23   24   23 ar
    24   25   24 1
    25   26   24 ar
    26   27   26 1
    27   28   26 ar
    28   29   28 1
    29   30   28 ar
    30   31   30 1
    31   32   23 ar
    32   33   32 1
    33   34    5 1
    34   35   34 ar
    35   36   35 1
    36   37   35 ar
    37   38   37 1
    38   39   37 ar
    39   40   39 1
    40   41   39 ar
    41   42   41 1
    42   43   34 ar
    43   44   43 1
    44   45    6 1
    45   46   45 ar
    46   47   46 1
    47   48   46 ar
    48   49   48 1
    49   50   48 ar
    50   51   50 1
    51   52   50 ar
    52   53   52 1
    53   54   45 ar
    54   55   54 1
    55   56    6 1
    56   57   56 ar
    57   58   57 1
    58   59   57 ar
    59   60   59 1
    60   61   59 ar
    61   62   61 1
    62   63   61 ar
    63   64   63 1
    64   65   56 ar
    65   66   65 1
    66   12   14 ar
    67   30   32 ar
    68   41   43 ar
    69   52   54 ar
    70   63   65 ar
@<TRIPOS>SUBSTRUCTURE
     1 RES1 1

@<TRIPOS>CRYSIN
   9.8097   16.7962   17.0633  90.0000 105.0000  90.0000 231 1

