# MOL2 file generated by ConQuest
# Please check atom types

@<TRIPOS>MOLECULE
LIVJEF
    17    18     1
SMALL
NO_CHARGES
****
Generated from CSD

@<TRIPOS>ATOM
      1 O1         0.0434    5.9002    5.1021 O.2       1 RES1    0.0000
      2 O2         1.3202    7.7928    1.4211 O.3       1 RES1    0.0000
      3 N1         1.0113    7.8133    5.8870 N.am      1 RES1    0.0000
      4 N2         1.8707    8.9368    2.0864 N.2       1 RES1    0.0000
      5 C1         1.6740    9.0193    5.6984 C.2       1 RES1    0.0000
      6 C2         2.0338    9.4914    4.4966 C.2       1 RES1    0.0000
      7 C3         1.6710    8.6823    3.3668 C.2       1 RES1    0.0000
      8 C4         1.0225    7.4386    3.5685 C.2       1 RES1    0.0000
      9 C5         0.6418    6.9626    4.8811 C.2       1 RES1    0.0000
     10 C6         0.8325    6.9248    2.3244 C.2       1 RES1    0.0000
     11 C7         0.2401    5.6638    1.8330 C.3       1 RES1    0.0000
     12 H1         0.7787    7.6006    6.6766 H         1 RES1    0.0000
     13 H2         1.8655    9.5020    6.5183 H         1 RES1    0.0000
     14 H3         2.5484   10.3579    4.4213 H         1 RES1    0.0000
     15 H4         0.9687    4.9978    1.6384 H         1 RES1    0.0000
     16 H5        -0.2214    5.7952    1.0296 H         1 RES1    0.0000
     17 H6        -0.3830    5.2861    2.5651 H         1 RES1    0.0000
@<TRIPOS>BOND
     1    1    9 2
     2    2    4 1
     3    3    5 1
     4    4    7 2
     5    5    6 2
     6    6    7 1
     7    7    8 1
     8    8    9 1
     9    9    3 1
    10   10    2 1
    11   11   10 1
    12   12    3 1
    13   13    5 1
    14   14    6 1
    15   15   11 1
    16   16   11 1
    17   17   11 1
    18    8   10 2
@<TRIPOS>SUBSTRUCTURE
     1 RES1 1

@<TRIPOS>CRYSIN
   7.4800   12.9880   13.5290  90.0000  90.0000  90.0000  61 1

