# MOL2 file generated by ConQuest
# Please check atom types

@<TRIPOS>MOLECULE
LIVPEN
    63    68     1
SMALL
NO_CHARGES
****
Generated from CSD

@<TRIPOS>ATOM
      1 O1         5.5940    4.9078    1.4232 O.2       1 RES1    0.0000
      2 O2         2.7884    3.7296    0.6289 O.3       1 RES1    0.0000
      3 O3         3.5561    6.8594    3.2315 O.2       1 RES1    0.0000
      4 N1         1.4285    3.3818    1.1691 N.3       1 RES1    0.0000
      5 C1         4.2637    8.3139   -2.0000 C.ar      1 RES1    0.0000
      6 H1         4.2058    8.9682   -2.6576 H         1 RES1    0.0000
      7 C2         5.4836    7.7406   -1.7181 C.ar      1 RES1    0.0000
      8 H2         6.2418    8.0032   -2.1874 H         1 RES1    0.0000
      9 C3         5.5784    6.7745   -0.7363 C.ar      1 RES1    0.0000
     10 H3         6.4030    6.3982   -0.5312 H         1 RES1    0.0000
     11 C4         4.4396    6.3663   -0.0570 C.ar      1 RES1    0.0000
     12 C5         4.5430    5.3223    0.9782 C.2       1 RES1    0.0000
     13 C6         3.2614    4.6754    1.4630 C.2       1 RES1    0.0000
     14 C7         2.5792    4.8411    2.5936 C.2       1 RES1    0.0000
     15 C8         1.4714    3.8000    2.6111 C.3       1 RES1    0.0000
     16 H4         1.7184    3.0426    3.1824 H         1 RES1    0.0000
     17 C9         0.0892    4.3332    2.9934 C.ar      1 RES1    0.0000
     18 C10       -0.7243    3.6794    3.9551 C.ar      1 RES1    0.0000
     19 C11       -0.3586    2.4967    4.6460 C.ar      1 RES1    0.0000
     20 H5         0.4759    2.1160    4.4904 H         1 RES1    0.0000
     21 C12       -1.2055    1.9070    5.5321 C.ar      1 RES1    0.0000
     22 H6        -0.9410    1.1324    5.9748 H         1 RES1    0.0000
     23 C13       -2.4693    2.4496    5.7871 C.ar      1 RES1    0.0000
     24 H7        -3.0437    2.0284    6.3857 H         1 RES1    0.0000
     25 C14        3.2170    6.9463   -0.3621 C.ar      1 RES1    0.0000
     26 H8         2.4494    6.6695    0.0835 H         1 RES1    0.0000
     27 C15        3.1356    7.9321   -1.3218 C.ar      1 RES1    0.0000
     28 H9         2.3194    8.3369   -1.5086 H         1 RES1    0.0000
     29 C16        1.2957    1.9316    0.9955 C.3       1 RES1    0.0000
     30 H10        0.5963    1.6017    1.5808 H         1 RES1    0.0000
     31 H11        2.1266    1.5011    1.2502 H         1 RES1    0.0000
     32 C17        0.9648    1.5723   -0.4267 C.ar      1 RES1    0.0000
     33 C18        1.7477    0.7133   -1.1613 C.ar      1 RES1    0.0000
     34 H12        2.5164    0.3512   -0.7832 H         1 RES1    0.0000
     35 C19        1.3964    0.3829   -2.4665 C.ar      1 RES1    0.0000
     36 H13        1.9363   -0.1991   -2.9513 H         1 RES1    0.0000
     37 C20        0.2772    0.8950   -3.0433 C.ar      1 RES1    0.0000
     38 H14        0.0583    0.6772   -3.9206 H         1 RES1    0.0000
     39 C21       -0.5244    1.7385   -2.3171 C.ar      1 RES1    0.0000
     40 H15       -1.3005    2.0842   -2.6961 H         1 RES1    0.0000
     41 C22       -0.1802    2.0733   -1.0213 C.ar      1 RES1    0.0000
     42 H16       -0.7297    2.6466   -0.5376 H         1 RES1    0.0000
     43 C23        2.8551    5.9044    3.5595 C.2       1 RES1    0.0000
     44 C24        2.2620    5.8291    4.9182 C.ar      1 RES1    0.0000
     45 C25        1.7745    6.9759    5.5224 C.ar      1 RES1    0.0000
     46 H17        1.8162    7.7898    5.0729 H         1 RES1    0.0000
     47 C26        1.2302    6.9168    6.7829 C.ar      1 RES1    0.0000
     48 H18        0.8963    7.6870    7.1817 H         1 RES1    0.0000
     49 C27        1.1800    5.7177    7.4521 C.ar      1 RES1    0.0000
     50 H19        0.8089    5.6805    8.3035 H         1 RES1    0.0000
     51 C28        1.6729    4.5765    6.8721 C.ar      1 RES1    0.0000
     52 H20        1.6486    3.7702    7.3358 H         1 RES1    0.0000
     53 C29        2.2054    4.6258    5.6009 C.ar      1 RES1    0.0000
     54 H21        2.5272    3.8501    5.2013 H         1 RES1    0.0000
     55 C30       -2.8553    3.5831    5.1663 C.ar      1 RES1    0.0000
     56 H22       -3.6932    3.9420    5.3490 H         1 RES1    0.0000
     57 C31       -2.0044    4.2374    4.2410 C.ar      1 RES1    0.0000
     58 C32       -2.4185    5.4135    3.5687 C.ar      1 RES1    0.0000
     59 H23       -3.2552    5.7746    3.7537 H         1 RES1    0.0000
     60 C33       -1.6128    6.0240    2.6546 C.ar      1 RES1    0.0000
     61 H24       -1.8899    6.8019    2.2275 H         1 RES1    0.0000
     62 C34       -0.3629    5.4616    2.3683 C.ar      1 RES1    0.0000
     63 H25        0.1787    5.8697    1.7316 H         1 RES1    0.0000
@<TRIPOS>BOND
     1    1   12 2
     2    2    4 1
     3    3   43 2
     4    4   15 1
     5    5    6 1
     6    7    5 ar
     7    8    7 1
     8    9    7 ar
     9   10    9 1
    10   11    9 ar
    11   12   11 1
    12   13    2 1
    13   14   13 2
    14   15   14 1
    15   16   15 1
    16   17   15 1
    17   18   17 ar
    18   19   18 ar
    19   20   19 1
    20   21   19 ar
    21   22   21 1
    22   23   21 ar
    23   24   23 1
    24   25   11 ar
    25   26   25 1
    26   27    5 ar
    27   28   27 1
    28   29    4 1
    29   30   29 1
    30   31   29 1
    31   32   29 1
    32   33   32 ar
    33   34   33 1
    34   35   33 ar
    35   36   35 1
    36   37   35 ar
    37   38   37 1
    38   39   37 ar
    39   40   39 1
    40   41   32 ar
    41   42   41 1
    42   43   14 1
    43   44   43 1
    44   45   44 ar
    45   46   45 1
    46   47   45 ar
    47   48   47 1
    48   49   47 ar
    49   50   49 1
    50   51   49 ar
    51   52   51 1
    52   53   44 ar
    53   54   53 1
    54   55   23 ar
    55   56   55 1
    56   57   18 ar
    57   58   57 ar
    58   59   58 1
    59   60   58 ar
    60   61   60 1
    61   62   17 ar
    62   63   62 1
    63   12   13 1
    64   25   27 ar
    65   39   41 ar
    66   51   53 ar
    67   55   57 ar
    68   60   62 ar
@<TRIPOS>SUBSTRUCTURE
     1 RES1 1

@<TRIPOS>CRYSIN
  14.4105   10.9408   16.0924  90.0000  94.2350  90.0000 231 1

