# MOL2 file generated by ConQuest
# Please check atom types

@<TRIPOS>MOLECULE
LIVQEO
    53    56     1
SMALL
NO_CHARGES
****
Generated from CSD

@<TRIPOS>ATOM
      1 O1         5.6838    7.0626    1.9526 O.3       1 RES1    0.0000
      2 O2         2.1517    6.4163    3.8984 O.3       1 RES1    0.0000
      3 N1         3.2941    6.7183    3.1642 N.2       1 RES1    0.0000
      4 O3         5.2164    4.6898    5.2393 O.3       1 RES1    0.0000
      5 N2         6.7431    5.6507    0.6197 N.2       1 RES1    0.0000
      6 C1         3.3525    4.2511    2.9449 C.ar      1 RES1    0.0000
      7 C2         4.0421    3.3065    3.7100 C.ar      1 RES1    0.0000
      8 C3         5.0566    5.8373    1.9452 C.2       1 RES1    0.0000
      9 N3         5.6420    4.9828    1.1868 N.2       1 RES1    0.0000
     10 C4         5.3702    3.6005    4.3445 C.3       1 RES1    0.0000
     11 H1         5.6871    2.8201    4.8255 H         1 RES1    0.0000
     12 H2         6.0213    3.8238    3.6611 H         1 RES1    0.0000
     13 N4         7.6670    7.7878    0.9285 N.3       1 RES1    0.0000
     14 C5         3.8537    5.6390    2.7425 C.2       1 RES1    0.0000
     15 C6         6.7296    6.8506    1.1193 C.2       1 RES1    0.0000
     16 C7         6.3014    5.0471    6.0063 C.ar      1 RES1    0.0000
     17 C8         7.5320    4.4164    5.9362 C.ar      1 RES1    0.0000
     18 H3         7.6723    3.7209    5.3345 H         1 RES1    0.0000
     19 C9         8.5546    4.8379    6.7767 C.ar      1 RES1    0.0000
     20 H4         9.3890    4.4300    6.7275 H         1 RES1    0.0000
     21 C10        1.5898    7.6135    4.4218 C.3       1 RES1    0.0000
     22 H5         2.1847    7.9872    5.0763 H         1 RES1    0.0000
     23 H6         0.7442    7.4168    4.8330 H         1 RES1    0.0000
     24 H7         1.4605    8.2442    3.7095 H         1 RES1    0.0000
     25 C11        3.4751    2.0572    3.8798 C.ar      1 RES1    0.0000
     26 H8         3.9204    1.4259    4.3972 H         1 RES1    0.0000
     27 C12        2.1308    3.9048    2.3881 C.ar      1 RES1    0.0000
     28 H9         1.6602    4.5355    1.8932 H         1 RES1    0.0000
     29 C13        6.0795    6.0982    6.8912 C.ar      1 RES1    0.0000
     30 C14        8.3449    5.8454    7.6749 C.ar      1 RES1    0.0000
     31 H10        9.0272    6.1083    8.2507 H         1 RES1    0.0000
     32 C15        7.1169    6.4718    7.7246 C.ar      1 RES1    0.0000
     33 H11        6.9837    7.1627    8.3339 H         1 RES1    0.0000
     34 C16        7.5898    9.1760    1.1382 C.ar      1 RES1    0.0000
     35 C17        1.6024    2.6443    2.5543 C.ar      1 RES1    0.0000
     36 H12        0.7921    2.4209    2.1564 H         1 RES1    0.0000
     37 C18        2.2744    1.7242    3.3061 C.ar      1 RES1    0.0000
     38 H13        1.9190    0.8739    3.4289 H         1 RES1    0.0000
     39 C19        8.7756    9.8796    1.1122 C.ar      1 RES1    0.0000
     40 H14        9.5799    9.4283    0.9907 H         1 RES1    0.0000
     41 C20        7.6144   11.9187    1.4537 C.ar      1 RES1    0.0000
     42 H15        7.6206   12.8423    1.5618 H         1 RES1    0.0000
     43 C21        8.7744   11.2424    1.2650 C.ar      1 RES1    0.0000
     44 H16        9.5787   11.7082    1.2377 H         1 RES1    0.0000
     45 C22        6.4109    9.8519    1.3135 C.ar      1 RES1    0.0000
     46 H17        5.6020    9.3923    1.3184 H         1 RES1    0.0000
     47 C23        4.7579    6.8091    6.9311 C.3       1 RES1    0.0000
     48 H18        4.5710    7.1859    6.0682 H         1 RES1    0.0000
     49 H19        4.7912    7.5098    7.5866 H         1 RES1    0.0000
     50 H20        4.0663    6.1844    7.1645 H         1 RES1    0.0000
     51 C24        6.4355   11.2245    1.4823 C.ar      1 RES1    0.0000
     52 H21        5.6385   11.6840    1.6189 H         1 RES1    0.0000
     53 H22        8.4109    7.4394    0.4842 H         1 RES1    0.0000
@<TRIPOS>BOND
     1    1    8 1
     2    2    3 1
     3    3   14 2
     4    4   10 1
     5    5    9 1
     6    6    7 ar
     7    7   10 1
     8    8    9 2
     9   10   11 1
    10   12   10 1
    11   13   15 1
    12   14    6 1
    13   15    1 1
    14   16    4 1
    15   17   16 ar
    16   18   17 1
    17   19   17 ar
    18   20   19 1
    19   21    2 1
    20   22   21 1
    21   23   21 1
    22   24   21 1
    23   25    7 ar
    24   26   25 1
    25   27    6 ar
    26   28   27 1
    27   29   16 ar
    28   30   19 ar
    29   31   30 1
    30   32   29 ar
    31   33   32 1
    32   34   13 1
    33   35   27 ar
    34   36   35 1
    35   37   25 ar
    36   38   37 1
    37   39   34 ar
    38   40   39 1
    39   41   42 1
    40   43   39 ar
    41   44   43 1
    42   45   34 ar
    43   46   45 1
    44   47   29 1
    45   48   47 1
    46   49   47 1
    47   50   47 1
    48   51   41 ar
    49   52   51 1
    50   53   13 1
    51    5   15 2
    52    8   14 1
    53   30   32 ar
    54   35   37 ar
    55   41   43 ar
    56   45   51 ar
@<TRIPOS>SUBSTRUCTURE
     1 RES1 1

@<TRIPOS>CRYSIN
   7.0629   12.5553   13.3705  68.3210  83.6780  78.5670   2 1

