# MOL2 file generated by ConQuest
# Please check atom types

@<TRIPOS>MOLECULE
LIVWET
    31    32     1
SMALL
NO_CHARGES
****
Generated from CSD

@<TRIPOS>ATOM
      1 C1         1.8517    4.4282    1.0207 C.ar      1 RES1    0.0000
      2 C2         1.3003    4.6214   -0.2377 C.ar      1 RES1    0.0000
      3 H1         1.5769    5.3629   -0.7637 H         1 RES1    0.0000
      4 C3         0.3461    3.7415   -0.7386 C.ar      1 RES1    0.0000
      5 H2        -0.0260    3.8822   -1.6015 H         1 RES1    0.0000
      6 C4        -0.0589    2.6616    0.0241 C.ar      1 RES1    0.0000
      7 H3        -0.7222    2.0688   -0.3095 H         1 RES1    0.0000
      8 C5         0.4978    2.4404    1.2719 C.ar      1 RES1    0.0000
      9 H4         0.2287    1.6891    1.7863 H         1 RES1    0.0000
     10 C6         1.4515    3.3215    1.7707 C.ar      1 RES1    0.0000
     11 H5         1.8330    3.1686    2.6276 H         1 RES1    0.0000
     12 C7         2.8720    5.3938    1.5616 C.3       1 RES1    0.0000
     13 H6         3.7017    4.9035    1.7898 H         1 RES1    0.0000
     14 H7         3.0924    6.0645    0.8673 H         1 RES1    0.0000
     15 N1         2.3632    6.0763    2.7568 N.am      1 RES1    0.0000
     16 H8         1.5400    6.1311    2.8853 H         1 RES1    0.0000
     17 C8         3.1702    6.7867    3.5373 C.2       1 RES1    0.0000
     18 O1         4.3765    6.9207    3.3505 O.2       1 RES1    0.0000
     19 C9         2.5002    7.3629    4.7835 C.3       1 RES1    0.0000
     20 H9         1.6133    7.7307    4.5410 H         1 RES1    0.0000
     21 H10        2.3625    6.6417    5.4471 H         1 RES1    0.0000
     22 N2         3.3215    8.4195    5.3739 N.pl3     1 RES1    0.0000
     23 C10        3.5103    9.7141    4.9943 C.2       1 RES1    0.0000
     24 N3         4.3919   10.3584    5.7256 N.2       1 RES1    0.0000
     25 C11        4.8088    9.4257    6.6265 C.2       1 RES1    0.0000
     26 H11        5.4555    9.5812    7.3051 H         1 RES1    0.0000
     27 C12        4.1678    8.2332    6.4199 C.2       1 RES1    0.0000
     28 H12        4.2910    7.4306    6.9133 H         1 RES1    0.0000
     29 N4         2.7858   10.3374    3.9242 N.pl3     1 RES1    0.0000
     30 O2         2.0226    9.6460    3.2590 O.2       1 RES1    0.0000
     31 O3         2.9602   11.5430    3.7429 O.2       1 RES1    0.0000
@<TRIPOS>BOND
     1    1    2 ar
     2    2    3 1
     3    4    2 ar
     4    5    4 1
     5    6    4 ar
     6    7    6 1
     7    8    6 ar
     8    9    8 1
     9   10    1 ar
    10   11   10 1
    11   12    1 1
    12   13   12 1
    13   14   12 1
    14   15   12 1
    15   16   15 1
    16   17   15 1
    17   18   17 2
    18   19   17 1
    19   20   19 1
    20   21   19 1
    21   22   19 1
    22   23   22 1
    23   24   23 2
    24   25   24 1
    25   26   25 1
    26   27   22 1
    27   28   27 1
    28   29   23 1
    29   30   29 2
    30   31   29 2
    31    8   10 ar
    32   25   27 2
@<TRIPOS>SUBSTRUCTURE
     1 RES1 1

@<TRIPOS>CRYSIN
   4.6556   10.9113   11.7681  90.0000  90.6680  90.0000   4 1

