# MOL2 file generated by ConQuest
# Please check atom types

@<TRIPOS>MOLECULE
LIVZOG
    32    33     1
SMALL
NO_CHARGES
****
Generated from CSD

@<TRIPOS>ATOM
      1 C1         5.3833    4.1585    9.7212 C.2       1 RES1    0.0000
      2 N1         5.3030    4.6466    8.4726 N.am      1 RES1    0.0000
      3 H1         4.7257    4.4573    7.9199 H         1 RES1    0.0000
      4 N2         5.8115    1.4348   10.6317 N.pl3     1 RES1    0.0000
      5 O1         6.2971    4.4165   10.5256 O.2       1 RES1    0.0000
      6 O2         6.4615    1.6070    9.6032 O.2       1 RES1    0.0000
      7 O3         6.2045    0.7857   11.6072 O.2       1 RES1    0.0000
      8 O4         4.3984    6.2066    6.5579 O.3       1 RES1    0.0000
      9 C2         4.2340    3.2829   10.1508 C.ar      1 RES1    0.0000
     10 C3         4.4603    2.0152   10.7056 C.ar      1 RES1    0.0000
     11 C4         3.4395    1.2518   11.2644 C.ar      1 RES1    0.0000
     12 H2         3.6276    0.4011   11.6430 H         1 RES1    0.0000
     13 C5         2.1373    1.7512   11.2611 C.ar      1 RES1    0.0000
     14 H3         1.4292    1.2389   11.6331 H         1 RES1    0.0000
     15 C6         1.8780    3.0060   10.7091 C.ar      1 RES1    0.0000
     16 H4         0.9895    3.3435   10.6990 H         1 RES1    0.0000
     17 C7         2.9218    3.7723   10.1684 C.ar      1 RES1    0.0000
     18 H5         2.7368    4.6330    9.8112 H         1 RES1    0.0000
     19 C8         6.2321    5.5195    7.8380 C.ar      1 RES1    0.0000
     20 C9         5.7388    6.3385    6.8097 C.ar      1 RES1    0.0000
     21 C10        6.6029    7.2012    6.1278 C.ar      1 RES1    0.0000
     22 H6         6.2695    7.7680    5.4411 H         1 RES1    0.0000
     23 C11        7.9602    7.2240    6.4631 C.ar      1 RES1    0.0000
     24 H7         8.5467    7.8147    6.0039 H         1 RES1    0.0000
     25 C12        8.4634    6.3931    7.4613 C.ar      1 RES1    0.0000
     26 H8         9.3901    6.4050    7.6723 H         1 RES1    0.0000
     27 C13        7.5955    5.5384    8.1524 C.ar      1 RES1    0.0000
     28 H9         7.9327    4.9705    8.8358 H         1 RES1    0.0000
     29 C14        3.8799    6.9312    5.4324 C.3       1 RES1    0.0000
     30 H10        3.9847    7.8931    5.5863 H         1 RES1    0.0000
     31 H11        2.9295    6.7197    5.3173 H         1 RES1    0.0000
     32 H12        4.3716    6.6750    4.6242 H         1 RES1    0.0000
@<TRIPOS>BOND
     1    1    2 1
     2    2    3 1
     3    4    6 2
     4    5    1 2
     5    7    4 2
     6    8   20 1
     7    9    1 1
     8   10    4 1
     9   11   10 ar
    10   12   11 1
    11   13   11 ar
    12   14   13 1
    13   15   13 ar
    14   16   15 1
    15   17    9 ar
    16   18   17 1
    17   19    2 1
    18   20   19 ar
    19   21   20 ar
    20   22   21 1
    21   23   21 ar
    22   24   23 1
    23   25   23 ar
    24   26   25 1
    25   27   19 ar
    26   28   27 1
    27   29    8 1
    28   30   29 1
    29   31   29 1
    30   32   29 1
    31    9   10 ar
    32   15   17 ar
    33   25   27 ar
@<TRIPOS>SUBSTRUCTURE
     1 RES1 1

@<TRIPOS>CRYSIN
   7.6467    9.9272   16.5032  90.0000  90.0000  90.0000  19 1

