# MOL2 file generated by ConQuest
# Please check atom types

@<TRIPOS>MOLECULE
LIXKEI
    42    44     1
SMALL
NO_CHARGES
****
Generated from CSD

@<TRIPOS>ATOM
      1 O1         3.5062    2.0748    4.8895 O.3       1 RES1    0.0000
      2 O2         1.6757    4.5066    5.3647 O.3       1 RES1    0.0000
      3 O3         0.7580    6.3400    6.3110 O.2       1 RES1    0.0000
      4 O4        -3.0826    1.9222   10.0665 O.2       1 RES1    0.0000
      5 O5        -2.9391    0.4884    8.4601 O.2       1 RES1    0.0000
      6 O6         3.6949    1.3681    7.0183 O.2       1 RES1    0.0000
      7 N1        -2.6536    1.5586    8.9757 N.pl3     1 RES1    0.0000
      8 C1         4.1777    3.3171    5.2472 C.3       1 RES1    0.0000
      9 C2         5.6738    3.2135    5.1824 C.2       1 RES1    0.0000
     10 C3         6.1951    4.2698    4.5803 C.2       1 RES1    0.0000
     11 C4         5.1503    5.2410    4.1241 C.3       1 RES1    0.0000
     12 C5         3.8217    4.4308    4.2361 C.3       1 RES1    0.0000
     13 C6         2.6734    5.3493    4.6681 C.3       1 RES1    0.0000
     14 C7         2.1086    5.8423    3.3708 C.2       1 RES1    0.0000
     15 C8         2.5146    5.0857    2.3624 C.2       1 RES1    0.0000
     16 C9         3.4082    3.9581    2.8187 C.3       1 RES1    0.0000
     17 C10        0.8131    5.1421    6.1692 C.2       1 RES1    0.0000
     18 C11       -0.0711    4.1718    6.8955 C.ar      1 RES1    0.0000
     19 C12       -0.2416    2.8610    6.4446 C.ar      1 RES1    0.0000
     20 C13       -1.1063    2.0036    7.1142 C.ar      1 RES1    0.0000
     21 C14       -1.7440    2.4707    8.2522 C.ar      1 RES1    0.0000
     22 C15       -1.5804    3.7601    8.7355 C.ar      1 RES1    0.0000
     23 C16       -0.7464    4.6213    8.0321 C.ar      1 RES1    0.0000
     24 C17        3.3103    1.1933    5.8857 C.2       1 RES1    0.0000
     25 C18        2.5875   -0.0277    5.3944 C.3       1 RES1    0.0000
     26 H1         3.8536    3.5788    6.1301 H         1 RES1    0.0000
     27 H2         6.1394    2.4577    5.6049 H         1 RES1    0.0000
     28 H3         7.1584    4.4215    4.4494 H         1 RES1    0.0000
     29 H4         5.3213    5.5324    3.1940 H         1 RES1    0.0000
     30 H5         5.1110    6.0236    4.7018 H         1 RES1    0.0000
     31 H6         2.9565    6.0338    5.3120 H         1 RES1    0.0000
     32 H7         1.5070    6.5518    3.3506 H         1 RES1    0.0000
     33 H8         2.2861    5.1976    1.4539 H         1 RES1    0.0000
     34 H9         4.1998    3.7897    2.2719 H         1 RES1    0.0000
     35 H10        2.8822    3.0923    2.8362 H         1 RES1    0.0000
     36 H11        0.1971    2.5632    5.6549 H         1 RES1    0.0000
     37 H12       -1.2495    1.1304    6.8199 H         1 RES1    0.0000
     38 H13       -2.0222    4.0275    9.5090 H         1 RES1    0.0000
     39 H14       -0.6375    5.5287    8.3399 H         1 RES1    0.0000
     40 H15        1.9889    0.1674    4.7099 H         1 RES1    0.0000
     41 H16        2.2482   -0.5161    6.0882 H         1 RES1    0.0000
     42 H17        3.2337   -0.6271    5.0326 H         1 RES1    0.0000
@<TRIPOS>BOND
     1    1    8 1
     2    2   13 1
     3    3   17 2
     4    4    7 2
     5    5    7 2
     6    6   24 2
     7    7   21 1
     8    8    9 1
     9    9   10 2
    10   10   11 1
    11   11   12 1
    12   12    8 1
    13   13   12 1
    14   14   13 1
    15   15   14 2
    16   16   12 1
    17   17    2 1
    18   18   17 1
    19   19   18 ar
    20   20   19 ar
    21   21   20 ar
    22   22   21 ar
    23   23   18 ar
    24   24    1 1
    25   25   24 1
    26   26    8 1
    27   27    9 1
    28   28   10 1
    29   29   11 1
    30   30   11 1
    31   31   13 1
    32   32   14 1
    33   33   15 1
    34   34   16 1
    35   35   16 1
    36   36   19 1
    37   37   20 1
    38   38   22 1
    39   39   23 1
    40   40   25 1
    41   41   25 1
    42   42   25 1
    43   15   16 1
    44   22   23 ar
@<TRIPOS>SUBSTRUCTURE
     1 RES1 1

@<TRIPOS>CRYSIN
  13.1520    9.2500   14.0770  90.0000 106.4700  90.0000  14 1

