# MOL2 file generated by ConQuest
# Please check atom types

@<TRIPOS>MOLECULE
LIXRIT02
    29    29     2
SMALL
NO_CHARGES
****
Generated from CSD

@<TRIPOS>ATOM
      1 N1         8.2213    0.7002    2.2180 N.pl3     1 RES1    0.0000
      2 H1         7.7881    0.4728    1.4343 H         1 RES1    0.0000
      3 N2         3.4698   -0.7095    0.6688 N.pl3     1 RES1    0.0000
      4 O1         2.5779   -1.5576    0.6381 O.2       1 RES1    0.0000
      5 O2         6.2423    0.0108    0.8090 O.2       1 RES1    0.0000
      6 O3         3.7506   -0.0007   -0.2851 O.2       1 RES1    0.0000
      7 C1         6.1438    0.0776    3.1920 C.2       1 RES1    0.0000
      8 C2         5.5542   -0.1244    1.9107 C.2       1 RES1    0.0000
      9 C3         4.1899   -0.5227    1.9225 C.2       1 RES1    0.0000
     10 C4         3.4904   -0.7379    3.0907 C.2       1 RES1    0.0000
     11 H2         2.5637   -1.0071    3.0386 H         1 RES1    0.0000
     12 C5         4.0886   -0.5259    4.3187 C.2       1 RES1    0.0000
     13 H3         3.6408   -0.6924    5.0936 H         1 RES1    0.0000
     14 C6         5.4126   -0.1182    4.3640 C.2       1 RES1    0.0000
     15 H4         5.8115    0.0560    5.2016 H         1 RES1    0.0000
     16 C7         7.5215    0.4945    3.2793 C.2       1 RES1    0.0000
     17 H5         7.8591    0.6155    4.1558 H         1 RES1    0.0000
     18 C8         9.5701    1.1463    2.2037 C.ar      1 RES1    0.0000
     19 C9        10.2599    1.5632    3.3371 C.ar      1 RES1    0.0000
     20 H6         9.8854    1.5457    4.2125 H         1 RES1    0.0000
     21 C10       11.5616    2.0262    3.2146 C.ar      1 RES1    0.0000
     22 H7        12.0206    2.3570    4.0290 H         1 RES1    0.0000
     23 C11       12.1750    2.0723    1.9794 C.ar      1 RES1    0.0000
     24 H8        13.0314    2.3710    1.8890 H         1 RES1    0.0000
     25 C12       11.4961    1.6541    0.8526 C.ar      1 RES1    0.0000
     26 H9        11.9165    1.7065    0.0324 H         1 RES1    0.0000
     27 C13       10.1946    1.1918    0.9672 C.ar      1 RES1    0.0000
     28 H10        9.7174    0.9022    0.2483 H         1 RES1    0.0000
     29 H11        7.1063    0.2693    1.0255 Du        2 SUP2    0.0000
@<TRIPOS>BOND
     1    1    2 1
     2    3    4 2
     3    5    8 2
     4    6    3 2
     5    7    8 1
     6    8    9 1
     7    9    3 1
     8   10    9 2
     9   11   10 1
    10   12   10 1
    11   13   12 1
    12   14    7 1
    13   15   14 1
    14   16    1 1
    15   17   16 1
    16   18    1 1
    17   19   18 ar
    18   20   19 1
    19   21   19 ar
    20   22   21 1
    21   23   21 ar
    22   24   23 1
    23   25   23 ar
    24   26   25 1
    25   27   18 ar
    26   28   27 1
    27    7   16 2
    28   12   14 2
    29   25   27 ar
@<TRIPOS>SUBSTRUCTURE
     1 RES1 1
     2 SUP2 29

@<TRIPOS>CRYSIN
  23.6720    6.9940   13.4930  90.0000  90.0000  90.0000  56 1

