# MOL2 file generated by ConQuest
# Please check atom types

@<TRIPOS>MOLECULE
LIXRIT03
    29    29     2
SMALL
NO_CHARGES
****
Generated from CSD

@<TRIPOS>ATOM
      1 N1         8.2360    0.6940    2.2052 N.pl3     1 RES1    0.0000
      2 H1         7.6986    0.4576    1.4591 H         1 RES1    0.0000
      3 N2         3.4785   -0.7061    0.6510 N.pl3     1 RES1    0.0000
      4 O1         2.5878   -1.5473    0.6236 O.2       1 RES1    0.0000
      5 O2         6.2505    0.0125    0.7943 O.2       1 RES1    0.0000
      6 O3         3.7626   -0.0084   -0.3001 O.2       1 RES1    0.0000
      7 C1         6.1577    0.0760    3.1728 C.2       1 RES1    0.0000
      8 C2         5.5618   -0.1253    1.8930 C.2       1 RES1    0.0000
      9 C3         4.1956   -0.5202    1.9050 C.2       1 RES1    0.0000
     10 C4         3.5013   -0.7328    3.0703 C.2       1 RES1    0.0000
     11 H2         2.5923   -1.0066    3.0195 H         1 RES1    0.0000
     12 C5         4.0983   -0.5287    4.2956 C.2       1 RES1    0.0000
     13 H3         3.6344   -0.6828    5.0811 H         1 RES1    0.0000
     14 C6         5.4184   -0.1225    4.3435 C.2       1 RES1    0.0000
     15 H4         5.8256    0.0563    5.1433 H         1 RES1    0.0000
     16 C7         7.5319    0.4907    3.2651 C.2       1 RES1    0.0000
     17 H5         7.8885    0.5984    4.1354 H         1 RES1    0.0000
     18 C8         9.5903    1.1397    2.2008 C.ar      1 RES1    0.0000
     19 C9        10.2712    1.5459    3.3337 C.ar      1 RES1    0.0000
     20 H6         9.8897    1.5205    4.1786 H         1 RES1    0.0000
     21 C10       11.5739    2.0119    3.2163 C.ar      1 RES1    0.0000
     22 H7        12.0214    2.3371    4.0544 H         1 RES1    0.0000
     23 C11       12.1881    2.0675    1.9880 C.ar      1 RES1    0.0000
     24 H8        13.0066    2.3230    1.8968 H         1 RES1    0.0000
     25 C12       11.5191    1.6557    0.8665 C.ar      1 RES1    0.0000
     26 H9        11.9312    1.6895    0.0189 H         1 RES1    0.0000
     27 C13       10.2101    1.1911    0.9649 C.ar      1 RES1    0.0000
     28 H10        9.6879    0.9081    0.2297 H         1 RES1    0.0000
     29 H11        6.9555    0.3731    1.0538 Du        2 SUP2    0.0000
@<TRIPOS>BOND
     1    1    2 1
     2    3    4 2
     3    5    8 2
     4    6    3 2
     5    7    8 1
     6    8    9 1
     7    9    3 1
     8   10    9 2
     9   11   10 1
    10   12   10 1
    11   13   12 1
    12   14    7 1
    13   15   14 1
    14   16    1 1
    15   17   16 1
    16   18    1 1
    17   19   18 ar
    18   20   19 1
    19   21   19 ar
    20   22   21 1
    21   23   21 ar
    22   24   23 1
    23   25   23 ar
    24   26   25 1
    25   27   18 ar
    26   28   27 1
    27    7   16 2
    28   12   14 2
    29   25   27 ar
@<TRIPOS>SUBSTRUCTURE
     1 RES1 1
     2 SUP2 29

@<TRIPOS>CRYSIN
  23.7390    7.0395   13.5100  90.0000  90.0000  90.0000  56 1

