# MOL2 file generated by ConQuest
# Please check atom types

@<TRIPOS>MOLECULE
LIYNUC
    38    40     1
SMALL
NO_CHARGES
****
Generated from CSD

@<TRIPOS>ATOM
      1 O1         2.6643    1.2199    2.8971 O.3       1 RES1    0.0000
      2 N1         1.4267    1.8441    2.4843 N.3       1 RES1    0.0000
      3 C1         1.4712    2.2269    1.0490 C.3       1 RES1    0.0000
      4 H1         0.5321    2.5450    0.8523 H         1 RES1    0.0000
      5 C2         0.3225    0.9734    2.7822 C.ar      1 RES1    0.0000
      6 C3         1.8062    1.0221    0.2280 C.2       1 RES1    0.0000
      7 H2         1.2342    0.7602   -0.5391 H         1 RES1    0.0000
      8 C4         0.4584   -0.3495    3.1632 C.ar      1 RES1    0.0000
      9 H3         1.2948   -0.7519    3.1933 H         1 RES1    0.0000
     10 C5         3.7757    3.2804    1.4849 C.3       1 RES1    0.0000
     11 H4         4.3862    3.9497    1.0716 H         1 RES1    0.0000
     12 H5         3.6636    3.4787    2.4548 H         1 RES1    0.0000
     13 C6        -0.9489    1.5320    2.7199 C.ar      1 RES1    0.0000
     14 H6        -1.0540    2.4458    2.4943 H         1 RES1    0.0000
     15 C7         2.3859    3.4548    0.8248 C.3       1 RES1    0.0000
     16 C8         4.4026    1.9253    1.3819 C.2       1 RES1    0.0000
     17 O2         5.5296    1.7642    0.9643 O.2       1 RES1    0.0000
     18 C9         3.5628    0.7280    1.8473 C.3       1 RES1    0.0000
     19 C10        2.8001    0.2694    0.6387 C.2       1 RES1    0.0000
     20 H7         3.0840   -0.4875    0.2061 H         1 RES1    0.0000
     21 C11       -1.9330   -0.5544    3.3590 C.ar      1 RES1    0.0000
     22 H8        -2.7638   -1.0411    3.5428 H         1 RES1    0.0000
     23 C12       -0.6799   -1.0998    3.4464 C.ar      1 RES1    0.0000
     24 H9        -0.5739   -2.0327    3.7126 H         1 RES1    0.0000
     25 C13       -2.0675    0.7676    2.9818 C.ar      1 RES1    0.0000
     26 H10       -2.9850    1.2064    2.9427 H         1 RES1    0.0000
     27 C14        4.4022   -0.3470    2.4973 C.3       1 RES1    0.0000
     28 H11        3.8379   -1.0825    2.7301 H         1 RES1    0.0000
     29 H12        4.8621    0.0083    3.3120 H         1 RES1    0.0000
     30 H13        5.1489   -0.6363    1.8942 H         1 RES1    0.0000
     31 C15        1.7348    4.6917    1.4473 C.3       1 RES1    0.0000
     32 H14        1.5401    4.5612    2.4234 H         1 RES1    0.0000
     33 H15        2.3521    5.4701    1.3469 H         1 RES1    0.0000
     34 H16        0.8681    4.8669    1.0139 H         1 RES1    0.0000
     35 C16        2.5608    3.6597   -0.6796 C.3       1 RES1    0.0000
     36 H17        1.6588    3.7349   -1.1375 H         1 RES1    0.0000
     37 H18        2.9663    4.5033   -0.8161 H         1 RES1    0.0000
     38 H19        3.1349    2.8838   -1.0732 H         1 RES1    0.0000
@<TRIPOS>BOND
     1    1    2 1
     2    2    3 1
     3    3    4 1
     4    5    2 1
     5    6    3 1
     6    7    6 1
     7    8    5 ar
     8    9    8 1
     9   10   11 1
    10   12   10 1
    11   13    5 ar
    12   14   13 1
    13   15    3 1
    14   16   10 1
    15   17   16 2
    16   18    1 1
    17   19    6 2
    18   20   19 1
    19   21   22 1
    20   23    8 ar
    21   24   23 1
    22   25   13 ar
    23   26   25 1
    24   27   18 1
    25   28   27 1
    26   29   27 1
    27   30   27 1
    28   31   15 1
    29   32   31 1
    30   33   31 1
    31   34   31 1
    32   35   15 1
    33   36   35 1
    34   37   35 1
    35   38   35 1
    36   10   15 1
    37   16   18 1
    38   18   19 1
    39   21   23 ar
    40   21   25 ar
@<TRIPOS>SUBSTRUCTURE
     1 RES1 1

@<TRIPOS>CRYSIN
  10.4170    8.2630   16.5049  90.0000  92.7460  90.0000 231 1

