# MOL2 file generated by ConQuest
# Please check atom types

@<TRIPOS>MOLECULE
LIYNUE
    30    32     1
SMALL
NO_CHARGES
****
Generated from CSD

@<TRIPOS>ATOM
      1 O1         1.2720    4.6632   10.1861 O.3       1 RES1    0.0000
      2 O2         2.9051    6.2566   17.0750 O.2       1 RES1    0.0000
      3 O3         4.5767    6.8974   15.8527 O.2       1 RES1    0.0000
      4 N1        -0.4779    3.9394   11.3756 N.2       1 RES1    0.0000
      5 N2         3.4638    6.3876   15.9894 N.pl3     1 RES1    0.0000
      6 C1         1.9340    4.6080    7.4260 C.ar      1 RES1    0.0000
      7 C2         2.2063    4.6117    6.0719 C.ar      1 RES1    0.0000
      8 C3         1.2853    4.1137    5.1703 C.ar      1 RES1    0.0000
      9 C4         0.0810    3.5988    5.6258 C.ar      1 RES1    0.0000
     10 C5        -0.1897    3.5745    6.9633 C.ar      1 RES1    0.0000
     11 C6         0.7122    4.0894    7.8874 C.ar      1 RES1    0.0000
     12 C7         0.3652    4.0916    9.3022 C.2       1 RES1    0.0000
     13 C8        -0.6680    3.6679   10.0368 C.2       1 RES1    0.0000
     14 C9         0.6700    4.5352   11.4073 C.2       1 RES1    0.0000
     15 C10        1.4023    5.0421   12.5683 C.ar      1 RES1    0.0000
     16 C11        0.8188    4.9141   13.8330 C.ar      1 RES1    0.0000
     17 H1        -0.0249    4.5337   13.9182 H         1 RES1    0.0000
     18 C12        1.4963    5.3525   14.9544 C.ar      1 RES1    0.0000
     19 C13        2.7442    5.9138   14.7949 C.ar      1 RES1    0.0000
     20 C14        3.3470    6.0602   13.5603 C.ar      1 RES1    0.0000
     21 H2         4.1897    6.4449   13.4827 H         1 RES1    0.0000
     22 C15        2.6613    5.6181   12.4476 C.ar      1 RES1    0.0000
     23 H3         3.0470    5.7071   11.6073 H         1 RES1    0.0000
     24 H4         2.5177    4.9729    8.0424 H         1 RES1    0.0000
     25 H5         2.9616    4.8994    5.7565 H         1 RES1    0.0000
     26 H6         1.4187    4.1343    4.2529 H         1 RES1    0.0000
     27 H7        -0.4845    3.2662    5.0213 H         1 RES1    0.0000
     28 H8        -0.8788    3.2662    7.2684 H         1 RES1    0.0000
     29 H9        -1.2621    3.2295    9.8152 H         1 RES1    0.0000
     30 H10        1.1695    5.2745   15.8269 H         1 RES1    0.0000
@<TRIPOS>BOND
     1    1   12 1
     2    2    5 2
     3    3    5 2
     4    4   13 1
     5    5   19 1
     6    6    7 ar
     7    7    8 ar
     8    8    9 ar
     9    9   10 ar
    10   10   11 ar
    11   11    6 ar
    12   12   11 1
    13   13   12 2
    14   14    1 1
    15   15   14 1
    16   16   15 ar
    17   17   16 1
    18   18   16 ar
    19   19   18 ar
    20   20   19 ar
    21   21   20 1
    22   22   15 ar
    23   23   22 1
    24   24    6 1
    25   25    7 1
    26   26    8 1
    27   27    9 1
    28   28   10 1
    29   29   13 1
    30   30   18 1
    31    4   14 2
    32   20   22 ar
@<TRIPOS>SUBSTRUCTURE
     1 RES1 1

@<TRIPOS>CRYSIN
   5.9087    7.3564   27.7960  90.0000  93.5690  90.0000  14 1

