# MOL2 file generated by ConQuest
# Please check atom types

@<TRIPOS>MOLECULE
LIZBUS
    37    41     1
SMALL
NO_CHARGES
****
Generated from CSD

@<TRIPOS>ATOM
      1 N1         2.9897    6.9472    6.9445 N.pl3     1 RES1    0.0000
      2 O1         2.3733    6.1861    6.1938 O.2       1 RES1    0.0000
      3 O2         3.3283    8.0825    6.6290 O.2       1 RES1    0.0000
      4 C1         3.3060    6.4985    8.3045 C.ar      1 RES1    0.0000
      5 C2         3.5973    5.1273    8.5864 C.ar      1 RES1    0.0000
      6 C3         3.7983    4.1389    7.5915 C.ar      1 RES1    0.0000
      7 H1         3.6016    4.3438    6.6852 H         1 RES1    0.0000
      8 C4         4.2715    2.8936    7.9107 C.ar      1 RES1    0.0000
      9 H2         4.3912    2.2417    7.2291 H         1 RES1    0.0000
     10 C5         4.5795    2.5788    9.2465 C.ar      1 RES1    0.0000
     11 H3         4.9443    1.7274    9.4602 H         1 RES1    0.0000
     12 C6         4.3581    3.4876   10.2357 C.ar      1 RES1    0.0000
     13 H4         4.5584    3.2515   11.1335 H         1 RES1    0.0000
     14 C7         3.8358    4.7803    9.9611 C.ar      1 RES1    0.0000
     15 C8         3.6860    5.7903   10.9668 C.ar      1 RES1    0.0000
     16 C9         3.7690    5.7604   12.4470 C.ar      1 RES1    0.0000
     17 C10        3.6171    4.6998   13.4063 C.ar      1 RES1    0.0000
     18 C11        3.0748    3.4175   13.1269 C.ar      1 RES1    0.0000
     19 H5         2.8218    3.2021   12.2375 H         1 RES1    0.0000
     20 C12        2.9104    2.4873   14.1137 C.ar      1 RES1    0.0000
     21 H6         2.5230    1.6454   13.9050 H         1 RES1    0.0000
     22 C13        3.3069    2.7603   15.4318 C.ar      1 RES1    0.0000
     23 H7         3.2500    2.0849   16.0966 H         1 RES1    0.0000
     24 C14        3.7730    3.9974   15.7529 C.ar      1 RES1    0.0000
     25 H8         4.0202    4.1826   16.6509 H         1 RES1    0.0000
     26 C15        3.8981    5.0171   14.7750 C.ar      1 RES1    0.0000
     27 C16        4.1976    6.3515   15.1495 C.ar      1 RES1    0.0000
     28 H9         4.4338    6.5389   16.0501 H         1 RES1    0.0000
     29 C17        4.1554    7.3709   14.2465 C.ar      1 RES1    0.0000
     30 H10        4.2857    8.2704   14.5243 H         1 RES1    0.0000
     31 C18        3.9144    7.0655   12.8942 C.ar      1 RES1    0.0000
     32 C19        3.7475    8.0312   11.7564 C.3       1 RES1    0.0000
     33 H11        2.9497    8.6027   11.8854 H         1 RES1    0.0000
     34 H12        4.5464    8.6061   11.6541 H         1 RES1    0.0000
     35 C20        3.5789    7.1229   10.5820 C.ar      1 RES1    0.0000
     36 C21        3.3656    7.4825    9.2508 C.ar      1 RES1    0.0000
     37 H13        3.2638    8.3949    9.0070 H         1 RES1    0.0000
@<TRIPOS>BOND
     1    1    2 2
     2    3    1 2
     3    4    1 1
     4    5    4 ar
     5    6    5 ar
     6    7    6 1
     7    8    6 ar
     8    9    8 1
     9   10    8 ar
    10   11   10 1
    11   12   10 ar
    12   13   12 1
    13   14    5 ar
    14   15   14 ar
    15   16   15 1
    16   17   16 ar
    17   18   17 ar
    18   19   18 1
    19   20   18 ar
    20   21   20 1
    21   22   20 ar
    22   23   22 1
    23   24   22 ar
    24   25   24 1
    25   26   17 ar
    26   27   26 ar
    27   28   27 1
    28   29   27 ar
    29   30   29 1
    30   31   16 ar
    31   32   31 1
    32   33   32 1
    33   34   32 1
    34   35   15 ar
    35   36    4 ar
    36   37   36 1
    37   12   14 ar
    38   24   26 ar
    39   29   31 ar
    40   32   35 1
    41   35   36 ar
@<TRIPOS>SUBSTRUCTURE
     1 RES1 1

@<TRIPOS>CRYSIN
   7.1666    8.4255   12.0347  78.2420  80.6870  89.9570   2 1

