# MOL2 file generated by ConQuest
# Please check atom types

@<TRIPOS>MOLECULE
LIZWIB
    55    55     1
SMALL
NO_CHARGES
****
Generated from CSD

@<TRIPOS>ATOM
      1 O1         0.4999    5.2632    8.5093 O.3       1 RES1    0.0000
      2 O2         3.6986    2.2296    7.0851 O.3       1 RES1    0.0000
      3 O3         2.4579   -0.2563    6.7314 O.2       1 RES1    0.0000
      4 O4         0.7109    4.1184    6.5365 O.2       1 RES1    0.0000
      5 O5         4.2806    2.4730    9.2619 O.2       1 RES1    0.0000
      6 O6         3.0695   -1.1373    8.6029 O.2       1 RES1    0.0000
      7 N1         0.9025    3.0848    8.5705 N.am      1 RES1    0.0000
      8 N2         2.6441   -0.2088    7.9379 N.pl3     1 RES1    0.0000
      9 C1         0.6909    4.1628    7.7503 C.2       1 RES1    0.0000
     10 C2        -0.1532    0.8564    8.0920 C.ar      1 RES1    0.0000
     11 C3         3.5809    2.0328    8.3810 C.2       1 RES1    0.0000
     12 C4         2.2149    0.8571   10.1555 C.3       1 RES1    0.0000
     13 C5        -0.9741    0.8132    9.2272 C.ar      1 RES1    0.0000
     14 C6         1.0792    1.7496    7.9995 C.3       1 RES1    0.0000
     15 C7        -1.1624    6.4710    7.1720 C.3       1 RES1    0.0000
     16 C8         4.3151    4.5672    6.7793 C.3       1 RES1    0.0000
     17 C9         1.3097    7.0223    6.9623 C.3       1 RES1    0.0000
     18 C10        0.0932    7.5095    9.0809 C.3       1 RES1    0.0000
     19 C11        2.3460    1.1254    8.6664 C.3       1 RES1    0.0000
     20 C12       -0.5037    0.0760    6.9829 C.ar      1 RES1    0.0000
     21 C13        6.1256    2.8083    6.9368 C.3       1 RES1    0.0000
     22 C14        4.7193    3.1412    6.4669 C.3       1 RES1    0.0000
     23 C15       -2.1079    0.0047    9.2463 C.ar      1 RES1    0.0000
     24 C16       -2.4443   -0.7706    8.1391 C.ar      1 RES1    0.0000
     25 C17        4.5521    2.8033    4.9894 C.3       1 RES1    0.0000
     26 C18        0.1802    6.5765    7.8830 C.3       1 RES1    0.0000
     27 C19       -1.6369   -0.7279    7.0060 C.ar      1 RES1    0.0000
     28 H1        -1.8343   -1.2095    6.2154 H         1 RES1    0.0000
     29 H2        -3.2371   -1.3560    8.1499 H         1 RES1    0.0000
     30 H3        -2.6454   -0.0132   10.0511 H         1 RES1    0.0000
     31 H4        -0.7877    1.3516   10.0012 H         1 RES1    0.0000
     32 H5         0.0333    0.1102    6.1654 H         1 RES1    0.0000
     33 H6         1.2436    1.8979    7.0620 H         1 RES1    0.0000
     34 H7         0.7005    3.1834    9.3480 H         1 RES1    0.0000
     35 H8         1.9881    1.7117   10.6190 H         1 RES1    0.0000
     36 H9         3.0563    0.5419   10.5025 H         1 RES1    0.0000
     37 H10        1.5160    0.1906   10.3756 H         1 RES1    0.0000
     38 H11        6.2674    3.1129    7.8961 H         1 RES1    0.0000
     39 H12        6.7709    3.2913    6.3111 H         1 RES1    0.0000
     40 H13        6.2763    1.8660    6.8311 H         1 RES1    0.0000
     41 H14        4.3710    4.7651    7.7006 H         1 RES1    0.0000
     42 H15        4.9366    5.1551    6.3152 H         1 RES1    0.0000
     43 H16        3.3810    4.7376    6.4463 H         1 RES1    0.0000
     44 H17        3.6147    2.9300    4.7614 H         1 RES1    0.0000
     45 H18        4.8376    1.8483    4.8238 H         1 RES1    0.0000
     46 H19        5.0894    3.4323    4.4868 H         1 RES1    0.0000
     47 H20        2.1850    7.0133    7.4156 H         1 RES1    0.0000
     48 H21        1.1240    7.9617    6.6834 H         1 RES1    0.0000
     49 H22        1.3848    6.4593    6.1530 H         1 RES1    0.0000
     50 H23       -1.8973    6.2235    7.8046 H         1 RES1    0.0000
     51 H24       -1.1060    5.7862    6.4733 H         1 RES1    0.0000
     52 H25       -1.4477    7.3548    6.8228 H         1 RES1    0.0000
     53 H26       -0.5395    7.2006    9.7432 H         1 RES1    0.0000
     54 H27       -0.1619    8.4144    8.7344 H         1 RES1    0.0000
     55 H28        0.9477    7.5497    9.5685 H         1 RES1    0.0000
@<TRIPOS>BOND
     1    1    9 1
     2    2   11 1
     3    3    8 2
     4    4    9 2
     5    5   11 2
     6    6    8 2
     7    7    9 1
     8    8   19 1
     9   10   13 ar
    10   11   19 1
    11   12   19 1
    12   13   23 ar
    13   14    7 1
    14   15   26 1
    15   16   22 1
    16   17   26 1
    17   18   26 1
    18   19   14 1
    19   20   10 ar
    20   21   22 1
    21   22    2 1
    22   23   24 ar
    23   24   27 ar
    24   25   22 1
    25   26    1 1
    26   27   20 ar
    27   28   27 1
    28   29   24 1
    29   30   23 1
    30   31   13 1
    31   32   20 1
    32   33   14 1
    33   34    7 1
    34   35   12 1
    35   36   12 1
    36   37   12 1
    37   38   21 1
    38   39   21 1
    39   40   21 1
    40   41   16 1
    41   42   16 1
    42   43   16 1
    43   44   25 1
    44   45   25 1
    45   46   25 1
    46   47   17 1
    47   48   17 1
    48   49   17 1
    49   50   15 1
    50   51   15 1
    51   52   15 1
    52   53   18 1
    53   54   18 1
    54   55   18 1
    55   10   14 1
@<TRIPOS>SUBSTRUCTURE
     1 RES1 1

@<TRIPOS>CRYSIN
   8.9919   11.0151   20.8011  90.0000  90.0000  90.0000  19 1

