# MOL2 file generated by ConQuest
# Please check atom types

@<TRIPOS>MOLECULE
LOBDIR
    51    52     1
SMALL
NO_CHARGES
****
Generated from CSD

@<TRIPOS>ATOM
      1 N1        17.9549   -1.4225    4.6548 N.am      1 RES1    0.0000
      2 O1        17.1124    0.7307    6.4135 O.2       1 RES1    0.0000
      3 O2        18.1620   -0.3020    8.1069 O.3       1 RES1    0.0000
      4 O3        15.9819   -0.9819    3.5905 O.2       1 RES1    0.0000
      5 O4        20.5577   -0.5352    6.4452 O.3       1 RES1    0.0000
      6 N2        16.3936    3.5286    1.3393 N.pl3     1 RES1    0.0000
      7 O5        16.8862    4.5055    0.7893 O.2       1 RES1    0.0000
      8 C1        19.8464   -1.6155    6.2355 C.2       1 RES1    0.0000
      9 C2        18.3939   -1.2514    6.0297 C.3       1 RES1    0.0000
     10 C3        17.0660   -0.6009    3.9229 C.2       1 RES1    0.0000
     11 N3        20.8669    2.5066    2.9971 N.pl3     1 RES1    0.0000
     12 O6        20.2348   -2.7284    6.1306 O.2       1 RES1    0.0000
     13 C4        19.0015    0.9976    3.4956 C.ar      1 RES1    0.0000
     14 C5        17.6490    0.6711    3.3967 C.ar      1 RES1    0.0000
     15 C6        17.8173   -0.1341    6.8566 C.2       1 RES1    0.0000
     16 C7        16.7748    1.5102    2.7082 C.ar      1 RES1    0.0000
     17 C8        19.4390    2.1550    2.9041 C.ar      1 RES1    0.0000
     18 O7        15.2329    3.2134    1.2463 O.2       1 RES1    0.0000
     19 C9        18.6212    3.0110    2.2137 C.ar      1 RES1    0.0000
     20 C10       17.4065   -2.3555    5.6459 C.3       1 RES1    0.0000
     21 C11       17.6832    0.6686    9.1039 C.3       1 RES1    0.0000
     22 C12       17.2983    2.6557    2.1266 C.ar      1 RES1    0.0000
     23 O8        21.6211    1.6900    3.4798 O.2       1 RES1    0.0000
     24 C13       22.3657    0.8359    6.9635 C.3       1 RES1    0.0000
     25 C14       22.0191   -0.6078    6.7360 C.3       1 RES1    0.0000
     26 O9        21.2188    3.5988    2.6054 O.2       1 RES1    0.0000
     27 C15       22.7018   -1.1217    5.4996 C.3       1 RES1    0.0000
     28 C16       17.1121    0.0063   10.1445 C.3       1 RES1    0.0000
     29 C17       22.2556   -1.4037    7.9486 C.3       1 RES1    0.0000
     30 C18       18.6366    1.6857    9.2919 C.3       1 RES1    0.0000
     31 H1        17.5081   -3.2521    5.6838 H         1 RES1    0.0000
     32 H2        16.4070   -2.2623    5.7342 H         1 RES1    0.0000
     33 H3        19.5887    0.4102    3.9755 H         1 RES1    0.0000
     34 H4        18.9939    3.8082    1.8297 H         1 RES1    0.0000
     35 H5        15.8454    1.2694    2.6544 H         1 RES1    0.0000
     36 H6        23.6457   -1.1807    5.6595 H         1 RES1    0.0000
     37 H7        22.5357   -0.5145    4.7753 H         1 RES1    0.0000
     38 H8        22.3595   -1.9902    5.2745 H         1 RES1    0.0000
     39 H9        23.1947   -1.4661    8.1374 H         1 RES1    0.0000
     40 H10       21.8960   -2.2824    7.8138 H         1 RES1    0.0000
     41 H11       21.8085   -0.9848    8.6893 H         1 RES1    0.0000
     42 H12       23.3020    0.9281    7.1548 H         1 RES1    0.0000
     43 H13       21.8538    1.1555    7.7102 H         1 RES1    0.0000
     44 H14       22.1465    1.3483    6.1822 H         1 RES1    0.0000
     45 H15       17.0229    1.2129    8.6670 H         1 RES1    0.0000
     46 H16       16.7751    0.6248   10.7976 H         1 RES1    0.0000
     47 H17       17.7603   -0.5702   10.5545 H         1 RES1    0.0000
     48 H18       16.3861   -0.5218    9.8017 H         1 RES1    0.0000
     49 H19       18.3364    2.3442    9.9235 H         1 RES1    0.0000
     50 H20       18.8513    2.1137    8.4608 H         1 RES1    0.0000
     51 H21       19.4164    1.2446    9.6369 H         1 RES1    0.0000
@<TRIPOS>BOND
     1    1    9 1
     2    2   15 2
     3    3   15 1
     4    4   10 2
     5    5    8 1
     6    6    7 2
     7    8    9 1
     8    9   15 1
     9   10    1 1
    10   11   17 1
    11   12    8 2
    12   13   14 ar
    13   14   10 1
    14   16   14 ar
    15   17   13 ar
    16   18    6 2
    17   19   17 ar
    18   20    1 1
    19   21    3 1
    20   22    6 1
    21   23   11 2
    22   24   25 1
    23   25    5 1
    24   26   11 2
    25   27   25 1
    26   28   21 1
    27   29   25 1
    28   30   21 1
    29   31   20 1
    30   32   20 1
    31   33   13 1
    32   34   19 1
    33   35   16 1
    34   36   27 1
    35   37   27 1
    36   38   27 1
    37   39   29 1
    38   40   29 1
    39   41   29 1
    40   42   24 1
    41   43   24 1
    42   44   24 1
    43   45   21 1
    44   46   28 1
    45   47   28 1
    46   48   28 1
    47   49   30 1
    48   50   30 1
    49   51   30 1
    50    9   20 1
    51   16   22 ar
    52   19   22 ar
@<TRIPOS>SUBSTRUCTURE
     1 RES1 1

@<TRIPOS>CRYSIN
  34.6990    6.2664   21.5240  90.0000 113.2060  90.0000  15 1

