# MOL2 file generated by ConQuest
# Please check atom types

@<TRIPOS>MOLECULE
LOBGOA01
    51    54     1
SMALL
NO_CHARGES
****
Generated from CSD

@<TRIPOS>ATOM
      1 O1         5.4304    9.7592    5.8718 O.3       1 RES1    0.0000
      2 O2         7.2506   10.4903    4.0739 O.3       1 RES1    0.0000
      3 O3         7.9920    4.6450    9.9170 O.2       1 RES1    0.0000
      4 O4         7.8555    6.0837   11.5220 O.2       1 RES1    0.0000
      5 O5         4.7325    7.7412   12.0031 O.2       1 RES1    0.0000
      6 O6         4.8300   10.1567   10.9285 O.3       1 RES1    0.0000
      7 O7         3.8355    8.3526    4.9283 O.3       1 RES1    0.0000
      8 N1         7.8556    5.7865   10.3356 N.pl3     1 RES1    0.0000
      9 C1         6.6839    9.2035    5.9652 C.ar      1 RES1    0.0000
     10 C2         7.6570    9.6099    5.0410 C.ar      1 RES1    0.0000
     11 C3         8.9487    9.1128    5.1831 C.ar      1 RES1    0.0000
     12 H1         9.6270    9.3833    4.5756 H         1 RES1    0.0000
     13 C4         9.2538    8.2215    6.2082 C.ar      1 RES1    0.0000
     14 H2        10.1390    7.8847    6.2833 H         1 RES1    0.0000
     15 C5         8.2886    7.8139    7.1256 C.ar      1 RES1    0.0000
     16 C6         8.6301    6.8087    8.2048 C.3       1 RES1    0.0000
     17 H3         9.5350    6.9957    8.5602 H         1 RES1    0.0000
     18 H4         8.6316    5.8955    7.8213 H         1 RES1    0.0000
     19 C7         7.6113    6.8894    9.3308 C.3       1 RES1    0.0000
     20 H5         7.7046    7.7730    9.7895 H         1 RES1    0.0000
     21 C8         6.1668    6.7457    8.8103 C.3       1 RES1    0.0000
     22 H6         6.1217    5.9372    8.2230 H         1 RES1    0.0000
     23 C9         5.1380    6.5814    9.9406 C.3       1 RES1    0.0000
     24 H7         4.2551    6.3769    9.5432 H         1 RES1    0.0000
     25 H8         5.4006    5.8101   10.5032 H         1 RES1    0.0000
     26 C10        5.0076    7.8036   10.8173 C.2       1 RES1    0.0000
     27 C11        5.1529    9.1075   10.1160 C.2       1 RES1    0.0000
     28 C12        5.5355    9.1905    8.8337 C.2       1 RES1    0.0000
     29 H9         5.6208   10.0557    8.4507 H         1 RES1    0.0000
     30 C13        5.8413    7.9899    7.9529 C.3       1 RES1    0.0000
     31 C14        4.6194    7.7136    7.0413 C.3       1 RES1    0.0000
     32 H10        4.8007    6.9132    6.4869 H         1 RES1    0.0000
     33 H11        3.8289    7.5196    7.6056 H         1 RES1    0.0000
     34 C15        4.3055    8.8992    6.1261 C.3       1 RES1    0.0000
     35 H12        3.5739    9.4408    6.5405 H         1 RES1    0.0000
     36 C16        6.9913    8.3322    7.0094 C.ar      1 RES1    0.0000
     37 C17        8.2154   10.8356    3.0684 C.3       1 RES1    0.0000
     38 H13        8.9950   11.2503    3.4930 H         1 RES1    0.0000
     39 H14        7.8145   11.4658    2.4345 H         1 RES1    0.0000
     40 H15        8.4953   10.0264    2.5921 H         1 RES1    0.0000
     41 C18        4.6114   11.4012   10.2594 C.3       1 RES1    0.0000
     42 H16        5.4633   11.7396    9.9132 H         1 RES1    0.0000
     43 H17        4.2345   12.0494   10.8907 H         1 RES1    0.0000
     44 H18        3.9868   11.2673    9.5158 H         1 RES1    0.0000
     45 C19        3.3679    9.3468    3.9990 C.3       1 RES1    0.0000
     46 H19        4.1309    9.8576    3.6288 H         1 RES1    0.0000
     47 H20        2.7541    9.9787    4.4509 H         1 RES1    0.0000
     48 C20        2.6454    8.6114    2.8984 C.3       1 RES1    0.0000
     49 H21        3.2847    8.0620    2.3984 H         1 RES1    0.0000
     50 H22        2.2272    9.2591    2.2933 H         1 RES1    0.0000
     51 H23        1.9552    8.0353    3.2883 H         1 RES1    0.0000
@<TRIPOS>BOND
     1    1    9 1
     2    2   10 1
     3    3    8 2
     4    4    8 2
     5    5   26 2
     6    6   27 1
     7    7   34 1
     8    8   19 1
     9    9   10 ar
    10   10   11 ar
    11   11   12 1
    12   13   11 ar
    13   14   13 1
    14   15   13 ar
    15   16   15 1
    16   17   16 1
    17   18   16 1
    18   19   16 1
    19   20   19 1
    20   21   19 1
    21   22   21 1
    22   23   21 1
    23   24   23 1
    24   25   23 1
    25   26   23 1
    26   27   26 1
    27   28   27 2
    28   29   28 1
    29   30   21 1
    30   31   30 1
    31   32   31 1
    32   33   31 1
    33   34    1 1
    34   35   34 1
    35   36    9 ar
    36   37    2 1
    37   38   37 1
    38   39   37 1
    39   40   37 1
    40   41    6 1
    41   42   41 1
    42   43   41 1
    43   44   41 1
    44   45    7 1
    45   46   45 1
    46   47   45 1
    47   48   45 1
    48   49   48 1
    49   50   48 1
    50   51   48 1
    51   15   36 ar
    52   28   30 1
    53   30   36 1
    54   31   34 1
@<TRIPOS>SUBSTRUCTURE
     1 RES1 1

@<TRIPOS>CRYSIN
   9.0867   10.1010   11.6280  70.2910  82.8610  67.2160   2 1

