# MOL2 file generated by ConQuest
# Please check atom types

@<TRIPOS>MOLECULE
LOCCEN
    57    60     1
SMALL
NO_CHARGES
****
Generated from CSD

@<TRIPOS>ATOM
      1 O1         5.4243    6.4376   16.5530 O.3       1 RES1    0.0000
      2 O2         1.3544    4.7563   14.3552 O.2       1 RES1    0.0000
      3 O3         3.1136    6.0568   13.9181 O.3       1 RES1    0.0000
      4 O4         4.1536   10.4000   17.5917 O.2       1 RES1    0.0000
      5 O5         3.4049    8.3987   16.9392 O.3       1 RES1    0.0000
      6 O6         6.4693    4.1113   21.7563 O.2       1 RES1    0.0000
      7 O7         4.5421    4.6372   22.5249 O.2       1 RES1    0.0000
      8 N1         4.7406    4.9014   18.1659 N.pl3     1 RES1    0.0000
      9 N2         3.5033    5.2149   18.5908 N.2       1 RES1    0.0000
     10 N3         5.3151    4.4597   21.6273 N.pl3     1 RES1    0.0000
     11 C1         5.1195    5.0698   16.7511 C.3       1 RES1    0.0000
     12 H1         5.9180    4.5323   16.5656 H         1 RES1    0.0000
     13 C2         4.0298    4.6993   15.7624 C.3       1 RES1    0.0000
     14 H2         3.3461    4.1579   16.1857 H         1 RES1    0.0000
     15 H3         4.3968    4.2097   15.0082 H         1 RES1    0.0000
     16 C3         3.4637    6.0426   15.3163 C.3       1 RES1    0.0000
     17 H4         2.7065    6.3146   15.8748 H         1 RES1    0.0000
     18 C4         4.6371    6.9752   15.4905 C.3       1 RES1    0.0000
     19 H5         5.1709    6.9648   14.6691 H         1 RES1    0.0000
     20 C5         4.3012    8.4026   15.8290 C.3       1 RES1    0.0000
     21 H6         5.1087    8.8896   16.0569 H         1 RES1    0.0000
     22 H7         3.8856    8.8352   15.0679 H         1 RES1    0.0000
     23 C6         3.5632    5.0957   19.8985 C.2       1 RES1    0.0000
     24 H8         2.8546    5.2486   20.4809 H         1 RES1    0.0000
     25 C7         4.8362    4.7071   20.2822 C.2       1 RES1    0.0000
     26 C8         5.5640    4.5931   19.1371 C.2       1 RES1    0.0000
     27 H9         6.4574    4.3483   19.0617 H         1 RES1    0.0000
     28 C9         1.9900    5.4144   13.5759 C.2       1 RES1    0.0000
     29 C10        1.6467    5.5840   12.1416 C.ar      1 RES1    0.0000
     30 C11        2.4175    6.3224   11.2703 C.ar      1 RES1    0.0000
     31 H10        3.1821    6.7550   11.5764 H         1 RES1    0.0000
     32 C12        2.0528    6.4169    9.9412 C.ar      1 RES1    0.0000
     33 H11        2.5962    6.8923    9.3566 H         1 RES1    0.0000
     34 C13        0.9172    5.8327    9.4662 C.ar      1 RES1    0.0000
     35 C14        0.1402    5.1125   10.3368 C.ar      1 RES1    0.0000
     36 H12       -0.6368    4.7058   10.0285 H         1 RES1    0.0000
     37 C15        0.4965    4.9817   11.6700 C.ar      1 RES1    0.0000
     38 H13       -0.0390    4.4882   12.2484 H         1 RES1    0.0000
     39 C16        0.5140    5.9817    8.0096 C.3       1 RES1    0.0000
     40 H14        1.1525    6.5374    7.5575 H         1 RES1    0.0000
     41 H15       -0.3551    6.3858    7.9594 H         1 RES1    0.0000
     42 H16        0.4909    5.1164    7.5952 H         1 RES1    0.0000
     43 C17        3.4332    9.4648   17.7659 C.2       1 RES1    0.0000
     44 C18        2.4447    9.3197   18.8526 C.ar      1 RES1    0.0000
     45 C19        1.4652    8.3378   18.8441 C.ar      1 RES1    0.0000
     46 H17        1.4301    7.7278   18.1449 H         1 RES1    0.0000
     47 C20        0.5502    8.2601   19.8567 C.ar      1 RES1    0.0000
     48 H18       -0.1131    7.6099   19.8247 H         1 RES1    0.0000
     49 C21        0.5932    9.1370   20.9387 C.ar      1 RES1    0.0000
     50 C22        1.5727   10.0943   20.9453 C.ar      1 RES1    0.0000
     51 H19        1.6281   10.6836   21.6615 H         1 RES1    0.0000
     52 C23        2.4707   10.2044   19.9201 C.ar      1 RES1    0.0000
     53 H20        3.1074   10.8805   19.9377 H         1 RES1    0.0000
     54 C24       -0.4247    9.0179   22.0511 C.3       1 RES1    0.0000
     55 H21       -0.0119    9.2446   22.8891 H         1 RES1    0.0000
     56 H22       -0.7521    8.1163   22.0885 H         1 RES1    0.0000
     57 H23       -1.1553    9.6176   21.8813 H         1 RES1    0.0000
@<TRIPOS>BOND
     1    1   11 1
     2    2   28 2
     3    3   16 1
     4    4   43 2
     5    5   20 1
     6    6   10 2
     7    7   10 2
     8    8    9 1
     9    9   23 2
    10   10   25 1
    11   11    8 1
    12   12   11 1
    13   13   11 1
    14   14   13 1
    15   15   13 1
    16   16   13 1
    17   17   16 1
    18   18    1 1
    19   19   18 1
    20   20   18 1
    21   21   20 1
    22   22   20 1
    23   23   24 1
    24   25   23 1
    25   26    8 1
    26   27   26 1
    27   28    3 1
    28   29   28 1
    29   30   29 ar
    30   31   30 1
    31   32   30 ar
    32   33   32 1
    33   34   32 ar
    34   35   34 ar
    35   36   35 1
    36   37   29 ar
    37   38   37 1
    38   39   34 1
    39   40   39 1
    40   41   39 1
    41   42   39 1
    42   43    5 1
    43   44   43 1
    44   45   44 ar
    45   46   45 1
    46   47   45 ar
    47   48   47 1
    48   49   47 ar
    49   50   49 ar
    50   51   50 1
    51   52   44 ar
    52   53   52 1
    53   54   49 1
    54   55   54 1
    55   56   54 1
    56   57   54 1
    57   16   18 1
    58   25   26 2
    59   35   37 ar
    60   50   52 ar
@<TRIPOS>SUBSTRUCTURE
     1 RES1 1

@<TRIPOS>CRYSIN
   5.6550   12.9530   31.3980  90.0000  90.0000  90.0000  19 1

