# MOL2 file generated by ConQuest
# Please check atom types

@<TRIPOS>MOLECULE
LOCTUT
    16    16     1
SMALL
NO_CHARGES
****
Generated from CSD

@<TRIPOS>ATOM
      1 C1        -0.3319   10.7418    7.7434 C.1       1 RES1    0.0000
      2 C2        -0.8928    9.7257    6.9140 C.2       1 RES1    0.0000
      3 C3        -1.3077    7.7483    6.2318 C.2       1 RES1    0.0000
      4 C4        -1.7177    9.8611    5.8223 C.2       1 RES1    0.0000
      5 C5        -2.3282   11.0180    5.1666 C.2       1 RES1    0.0000
      6 N1         0.1198   11.5548    8.4104 N.1       1 RES1    0.0000
      7 N2        -0.6433    8.3903    7.1714 N.2       1 RES1    0.0000
      8 N3        -1.9605    8.5831    5.4045 N.pl3     1 RES1    0.0000
      9 N4        -3.2820   10.7433    4.3351 N.2       1 RES1    0.0000
     10 N5        -1.9070   12.2571    5.4929 N.3       1 RES1    0.0000
     11 O1        -3.7370   11.9459    3.7100 O.3       1 RES1    0.0000
     12 H1        -1.3229    6.7827    6.1360 H         1 RES1    0.0000
     13 H2        -2.4195    8.2993    4.6445 H         1 RES1    0.0000
     14 H3        -2.2346   12.9427    5.0733 H         1 RES1    0.0000
     15 H4        -1.2016   12.3520    5.9928 H         1 RES1    0.0000
     16 H5        -4.6030   11.6560    3.4723 H         1 RES1    0.0000
@<TRIPOS>BOND
     1    1    2 1
     2    2    4 2
     3    3    7 2
     4    4    5 1
     5    5    9 2
     6    6    1 3
     7    7    2 1
     8    8    3 1
     9    9   11 1
    10   10    5 1
    11   11   16 1
    12   12    3 1
    13   13    8 1
    14   14   10 1
    15   15   10 1
    16    4    8 1
@<TRIPOS>SUBSTRUCTURE
     1 RES1 1

@<TRIPOS>CRYSIN
   7.4524   10.6428    8.3312  90.0000 105.0580  90.0000 231 1

