# MOL2 file generated by ConQuest
# Please check atom types

@<TRIPOS>MOLECULE
LODCOW
    55    56     1
SMALL
NO_CHARGES
****
Generated from CSD

@<TRIPOS>ATOM
      1 O1         0.9542    8.2446    5.8885 O.3       1 RES1    0.0000
      2 O2         1.0800    9.5090    7.7383 O.2       1 RES1    0.0000
      3 O3        -0.1868   12.5940    1.5577 O.2       1 RES1    0.0000
      4 O4        -1.8348   11.9038    0.2913 O.3       1 RES1    0.0000
      5 O5         6.0119    4.2273    8.0719 O.2       1 RES1    0.0000
      6 O6         6.3100    5.4839    9.7656 O.2       1 RES1    0.0000
      7 N1         5.7294    5.1924    8.7507 N.pl3     1 RES1    0.0000
      8 C1        -0.1536    9.0768    5.3723 C.3       1 RES1    0.0000
      9 C2        -0.8645    8.1912    4.3920 C.2       1 RES1    0.0000
     10 C3        -0.9558    8.3925    3.0923 C.2       1 RES1    0.0000
     11 C4        -0.3026    9.6064    2.4212 C.3       1 RES1    0.0000
     12 C5         0.8114   10.1322    3.3348 C.3       1 RES1    0.0000
     13 C6         0.3567   10.3549    4.7577 C.3       1 RES1    0.0000
     14 C7         1.4501    8.5702    7.0865 C.2       1 RES1    0.0000
     15 C8         2.5454    7.6536    7.5048 C.ar      1 RES1    0.0000
     16 C9         3.3420    8.0171    8.5723 C.ar      1 RES1    0.0000
     17 C10        4.3819    7.2202    8.9765 C.ar      1 RES1    0.0000
     18 C11        4.6070    6.0494    8.3196 C.ar      1 RES1    0.0000
     19 C12        3.8247    5.6304    7.2674 C.ar      1 RES1    0.0000
     20 C13        2.7854    6.4468    6.8671 C.ar      1 RES1    0.0000
     21 C14       -1.7228    7.4305    2.2005 C.3       1 RES1    0.0000
     22 C15       -2.6728    6.4684    2.9049 C.3       1 RES1    0.0000
     23 C16       -3.4559    5.5917    1.9490 C.3       1 RES1    0.0000
     24 C17       -4.4844    4.7463    2.6727 C.3       1 RES1    0.0000
     25 C18       -1.4291   10.6421    2.1941 C.3       1 RES1    0.0000
     26 C19       -1.0537   11.8136    1.3395 C.2       1 RES1    0.0000
     27 C20       -1.5583   13.0188   -0.6069 C.3       1 RES1    0.0000
     28 C21        0.3227    9.2253    1.0701 C.3       1 RES1    0.0000
     29 H1        -0.7627    9.2946    6.1088 H         1 RES1    0.0000
     30 H2        -1.2785    7.4322    4.7320 H         1 RES1    0.0000
     31 H3         3.1710    8.8132    9.0227 H         1 RES1    0.0000
     32 H4         4.9241    7.4744    9.6874 H         1 RES1    0.0000
     33 H5         3.9908    4.8214    6.8389 H         1 RES1    0.0000
     34 H6         2.2406    6.1842    6.1614 H         1 RES1    0.0000
     35 H7         1.5453    9.4979    3.3335 H         1 RES1    0.0000
     36 H8         1.1443   10.9697    2.9742 H         1 RES1    0.0000
     37 H9         1.0989   10.6926    5.2838 H         1 RES1    0.0000
     38 H10       -0.3474   11.0229    4.7718 H         1 RES1    0.0000
     39 H11       -1.0809    6.9064    1.6950 H         1 RES1    0.0000
     40 H12       -2.2357    7.9517    1.5628 H         1 RES1    0.0000
     41 H13       -2.1606    5.9031    3.5028 H         1 RES1    0.0000
     42 H14       -3.2961    6.9808    3.4438 H         1 RES1    0.0000
     43 H15       -3.9042    6.1512    1.2959 H         1 RES1    0.0000
     44 H16       -2.8423    5.0105    1.4730 H         1 RES1    0.0000
     45 H17       -4.9995    4.2514    2.0311 H         1 RES1    0.0000
     46 H18       -5.0673    5.3158    3.1795 H         1 RES1    0.0000
     47 H19       -4.0383    4.1361    3.2629 H         1 RES1    0.0000
     48 H20       -2.1829   10.1910    1.7835 H         1 RES1    0.0000
     49 H21       -1.7221   10.9723    3.0576 H         1 RES1    0.0000
     50 H22       -2.0942   12.9255   -1.3973 H         1 RES1    0.0000
     51 H23       -0.6282   13.0128   -0.8468 H         1 RES1    0.0000
     52 H24       -1.7673   13.8441   -0.1655 H         1 RES1    0.0000
     53 H25        0.8091    9.9760    0.7185 H         1 RES1    0.0000
     54 H26       -0.3710    8.9770    0.4555 H         1 RES1    0.0000
     55 H27        0.9246    8.4849    1.1920 H         1 RES1    0.0000
@<TRIPOS>BOND
     1    1    8 1
     2    2   14 2
     3    3   26 2
     4    4   26 1
     5    5    7 2
     6    6    7 2
     7    7   18 1
     8    8    9 1
     9    9   10 2
    10   10   11 1
    11   11   12 1
    12   12   13 1
    13   13    8 1
    14   14    1 1
    15   15   14 1
    16   16   15 ar
    17   17   16 ar
    18   18   17 ar
    19   19   18 ar
    20   20   15 ar
    21   21   10 1
    22   22   21 1
    23   23   22 1
    24   24   23 1
    25   25   11 1
    26   26   25 1
    27   27    4 1
    28   28   11 1
    29   29    8 1
    30   30    9 1
    31   31   16 1
    32   32   17 1
    33   33   19 1
    34   34   20 1
    35   35   12 1
    36   36   12 1
    37   37   13 1
    38   38   13 1
    39   39   21 1
    40   40   21 1
    41   41   22 1
    42   42   22 1
    43   43   23 1
    44   44   23 1
    45   45   24 1
    46   46   24 1
    47   47   24 1
    48   48   25 1
    49   49   25 1
    50   50   27 1
    51   51   27 1
    52   52   27 1
    53   53   28 1
    54   54   28 1
    55   55   28 1
    56   19   20 ar
@<TRIPOS>SUBSTRUCTURE
     1 RES1 1

@<TRIPOS>CRYSIN
   5.7034   14.4016   14.5006 117.4170  93.6620  90.8540   2 1

