# MOL2 file generated by ConQuest
# Please check atom types

@<TRIPOS>MOLECULE
LOFCEQ
    38    41     1
SMALL
NO_CHARGES
****
Generated from CSD

@<TRIPOS>ATOM
      1 O1         5.8459    5.3699    2.8798 O.2       1 RES1    0.0000
      2 O2         6.7344    6.9372    4.0569 O.2       1 RES1    0.0000
      3 O3         6.3902    1.7618   10.6220 O.2       1 RES1    0.0000
      4 O4         8.4915    2.1474   10.4597 O.2       1 RES1    0.0000
      5 N1         6.0006    5.9697    3.9337 N.pl3     1 RES1    0.0000
      6 N2         2.3746    3.0283    7.5845 N.2       1 RES1    0.0000
      7 N3         2.9015    2.9878    6.3311 N.3       1 RES1    0.0000
      8 N4         5.0917    1.0975    5.6895 N.pl3     1 RES1    0.0000
      9 N5         5.5012    1.2062    4.3991 N.2       1 RES1    0.0000
     10 N6         7.3950    1.9452    9.9621 N.pl3     1 RES1    0.0000
     11 C1         5.2309    5.5280    5.1109 C.ar      1 RES1    0.0000
     12 C2         5.2964    6.3008    6.2807 C.ar      1 RES1    0.0000
     13 H1         5.8542    7.0442    6.3195 H         1 RES1    0.0000
     14 C3         4.5385    5.9574    7.3579 C.ar      1 RES1    0.0000
     15 H2         4.5546    6.4747    8.1306 H         1 RES1    0.0000
     16 C4         3.7354    4.8135    7.2834 C.ar      1 RES1    0.0000
     17 C5         3.7381    4.0420    6.1083 C.ar      1 RES1    0.0000
     18 C6         4.4718    4.3979    4.9814 C.ar      1 RES1    0.0000
     19 H3         4.4483    3.9015    4.1948 H         1 RES1    0.0000
     20 C7         2.8493    4.1147    8.1393 C.2       1 RES1    0.0000
     21 H4         2.6305    4.3961    8.9984 H         1 RES1    0.0000
     22 C8         2.7425    1.7887    5.5408 C.3       1 RES1    0.0000
     23 H5         2.8804    2.0014    4.6049 H         1 RES1    0.0000
     24 H6         1.8367    1.4573    5.6406 H         1 RES1    0.0000
     25 C9         3.7227    0.7044    5.9581 C.3       1 RES1    0.0000
     26 H7         3.6196    0.5260    6.9059 H         1 RES1    0.0000
     27 H8         3.5224   -0.1134    5.4755 H         1 RES1    0.0000
     28 C10        6.7397    1.6483    4.4406 C.2       1 RES1    0.0000
     29 H9         7.2614    1.8108    3.6881 H         1 RES1    0.0000
     30 C11        7.1793    1.8456    5.7667 C.ar      1 RES1    0.0000
     31 C12        8.3703    2.2507    6.3860 C.ar      1 RES1    0.0000
     32 H10        9.1072    2.5021    5.8772 H         1 RES1    0.0000
     33 C13        8.4282    2.2698    7.7445 C.ar      1 RES1    0.0000
     34 H11        9.2141    2.5178    8.1754 H         1 RES1    0.0000
     35 C14        7.2985    1.9146    8.4938 C.ar      1 RES1    0.0000
     36 C15        6.1008    1.5214    7.9497 C.ar      1 RES1    0.0000
     37 H12        5.3643    1.2981    8.4708 H         1 RES1    0.0000
     38 C16        6.0728    1.4811    6.5576 C.ar      1 RES1    0.0000
@<TRIPOS>BOND
     1    1    5 2
     2    2    5 2
     3    3   10 2
     4    4   10 2
     5    5   11 1
     6    6    7 1
     7    7   17 1
     8    8    9 1
     9    9   28 2
    10   10   35 1
    11   11   12 ar
    12   12   13 1
    13   14   12 ar
    14   15   14 1
    15   16   14 ar
    16   17   16 ar
    17   18   11 ar
    18   19   18 1
    19   20    6 2
    20   21   20 1
    21   22    7 1
    22   23   22 1
    23   24   22 1
    24   25    8 1
    25   26   25 1
    26   27   25 1
    27   28   29 1
    28   30   28 1
    29   31   30 ar
    30   32   31 1
    31   33   31 ar
    32   34   33 1
    33   35   33 ar
    34   36   35 ar
    35   37   36 1
    36   38    8 1
    37   16   20 1
    38   17   18 ar
    39   22   25 1
    40   30   38 ar
    41   36   38 ar
@<TRIPOS>SUBSTRUCTURE
     1 RES1 1

@<TRIPOS>CRYSIN
   9.4100   12.0640   14.8040  90.0000 109.0100  90.0000  14 1

