# MOL2 file generated by ConQuest
# Please check atom types

@<TRIPOS>MOLECULE
LOFMUO
    43    44     1
SMALL
NO_CHARGES
****
Generated from CSD

@<TRIPOS>ATOM
      1 O1        10.6071    3.0150    2.6858 O.2       1 RES1    0.0000
      2 O2        11.8752    1.7001    3.8110 O.2       1 RES1    0.0000
      3 O3        15.2133    4.6625    4.2752 O.2       1 RES1    0.0000
      4 O4        16.0220    5.6412    6.0817 O.3       1 RES1    0.0000
      5 O5        14.1501    1.2108   10.4019 O.2       1 RES1    0.0000
      6 O6        14.1364    3.4254   10.4318 O.3       1 RES1    0.0000
      7 N1        13.3538    1.6933    6.2572 N.3       1 RES1    0.0000
      8 N2        11.2274    2.7097    3.7019 N.pl3     1 RES1    0.0000
      9 C1        13.4762    3.0367    5.6764 C.3       1 RES1    0.0000
     10 C2        14.6122    3.7650    6.3759 C.2       1 RES1    0.0000
     11 C3        14.9025    3.4872    7.6690 C.2       1 RES1    0.0000
     12 C4        14.1721    2.4147    8.3333 C.2       1 RES1    0.0000
     13 C5        13.5064    1.4738    7.5653 C.2       1 RES1    0.0000
     14 C6        12.1379    3.7742    5.7694 C.ar      1 RES1    0.0000
     15 C7        11.9096    4.6785    6.7994 C.ar      1 RES1    0.0000
     16 C8        10.7488    5.3771    6.9085 C.ar      1 RES1    0.0000
     17 C9         9.7103    5.2102    5.9876 C.ar      1 RES1    0.0000
     18 C10        9.9153    4.3058    4.9544 C.ar      1 RES1    0.0000
     19 C11       11.0926    3.6210    4.8592 C.ar      1 RES1    0.0000
     20 C12       15.3082    4.7060    5.4796 C.2       1 RES1    0.0000
     21 C13       16.6657    6.6257    5.2400 C.3       1 RES1    0.0000
     22 C14       16.0633    4.0989    8.4060 C.3       1 RES1    0.0000
     23 C15       14.1735    2.2547    9.7997 C.2       1 RES1    0.0000
     24 C16       14.1666    3.3751   11.8833 C.3       1 RES1    0.0000
     25 C17       12.9384    0.1955    8.0455 C.3       1 RES1    0.0000
     26 H1        13.0113    1.0747    5.7331 H         1 RES1    0.0000
     27 H2        13.8090    2.8584    4.8025 H         1 RES1    0.0000
     28 H3        12.6262    4.8363    7.3161 H         1 RES1    0.0000
     29 H4        10.6318    5.9797    7.5086 H         1 RES1    0.0000
     30 H5         8.8026    5.5109    6.0325 H         1 RES1    0.0000
     31 H6         9.1602    4.1846    4.2891 H         1 RES1    0.0000
     32 H7        17.1361    7.2431    5.7865 H         1 RES1    0.0000
     33 H8        17.2613    6.1946    4.6496 H         1 RES1    0.0000
     34 H9        15.9987    7.0899    4.7437 H         1 RES1    0.0000
     35 H10       16.0867    3.7604    9.2948 H         1 RES1    0.0000
     36 H11       16.8762    3.8599    7.9621 H         1 RES1    0.0000
     37 H12       15.9753    5.0376    8.4199 H         1 RES1    0.0000
     38 H13       14.1254    4.2544   12.2309 H         1 RES1    0.0000
     39 H14       13.4060    2.8801   12.1913 H         1 RES1    0.0000
     40 H15       14.9561    2.9452   12.1688 H         1 RES1    0.0000
     41 H16       12.5340   -0.2721    7.3300 H         1 RES1    0.0000
     42 H17       13.6330   -0.3464    8.4231 H         1 RES1    0.0000
     43 H18       12.2864    0.3659    8.7215 H         1 RES1    0.0000
@<TRIPOS>BOND
     1    1    8 2
     2    2    8 2
     3    3   20 2
     4    4   20 1
     5    5   23 2
     6    6   23 1
     7    7    9 1
     8    8   19 1
     9    9   10 1
    10   10   11 2
    11   11   12 1
    12   12   13 2
    13   13    7 1
    14   14    9 1
    15   15   14 ar
    16   16   15 ar
    17   17   16 ar
    18   18   17 ar
    19   19   14 ar
    20   20   10 1
    21   21    4 1
    22   22   11 1
    23   23   12 1
    24   24    6 1
    25   25   13 1
    26   26    7 1
    27   27    9 1
    28   28   15 1
    29   29   16 1
    30   30   17 1
    31   31   18 1
    32   32   21 1
    33   33   21 1
    34   34   21 1
    35   35   22 1
    36   36   22 1
    37   37   22 1
    38   38   24 1
    39   39   24 1
    40   40   24 1
    41   41   25 1
    42   42   25 1
    43   43   25 1
    44   18   19 ar
@<TRIPOS>SUBSTRUCTURE
     1 RES1 1

@<TRIPOS>CRYSIN
  13.7540   11.4334   10.6960  90.0000  90.0000  90.0000  33 1

