# MOL2 file generated by ConQuest
# Please check atom types

@<TRIPOS>MOLECULE
LOFSII
    29    30     1
SMALL
NO_CHARGES
****
Generated from CSD

@<TRIPOS>ATOM
      1 O1        -1.5696   -1.9177    0.3194 O.2       1 RES1    0.0000
      2 O2         0.2854    4.6973    5.6062 O.2       1 RES1    0.0000
      3 O3        -2.5131   -3.5588   -1.6550 O.3       1 RES1    0.0000
      4 O4         0.8635    2.8341    6.6319 O.2       1 RES1    0.0000
      5 N1         0.3921    3.4703    5.6644 N.pl3     1 RES1    0.0000
      6 C1        -2.0715    0.0344   -0.9881 C.2       1 RES1    0.0000
      7 N2        -1.2448    0.4570    1.2046 N.3       1 RES1    0.0000
      8 C2        -0.1132    1.3139    4.5991 C.ar      1 RES1    0.0000
      9 C3        -2.0291   -1.3716   -0.7867 C.2       1 RES1    0.0000
     10 C4        -2.5079   -2.2080   -1.8420 C.2       1 RES1    0.0000
     11 C5        -2.9849   -1.6491   -3.0127 C.2       1 RES1    0.0000
     12 C6        -3.0019   -0.2610   -3.2047 C.2       1 RES1    0.0000
     13 C7        -0.3696    3.3702    3.3448 C.ar      1 RES1    0.0000
     14 C8        -0.7694    2.6450    2.2295 C.ar      1 RES1    0.0000
     15 C9        -0.0422    2.6750    4.4955 C.ar      1 RES1    0.0000
     16 C10       -0.5271    0.5632    3.4932 C.ar      1 RES1    0.0000
     17 C11       -2.5585    0.5710   -2.2260 C.2       1 RES1    0.0000
     18 C12       -1.6831    0.9121    0.0400 C.2       1 RES1    0.0000
     19 C13       -0.8527    1.2605    2.3119 C.ar      1 RES1    0.0000
     20 H1        -0.4876   -0.5273    3.5375 H         1 RES1    0.0000
     21 H2        -2.4799    1.6701   -2.3128 H         1 RES1    0.0000
     22 H3        -1.7299    1.9962   -0.1134 H         1 RES1    0.0000
     23 H4        -0.3524    4.4343    3.2313 H         1 RES1    0.0000
     24 H5        -1.1028    3.1307    1.3762 H         1 RES1    0.0000
     25 H6         0.0063    0.7223    5.4607 H         1 RES1    0.0000
     26 H7        -3.3108   -0.0243   -4.0357 H         1 RES1    0.0000
     27 H8        -3.3368   -2.2899   -3.7562 H         1 RES1    0.0000
     28 H9        -1.6941   -3.7870   -1.2769 H         1 RES1    0.0000
     29 H10       -1.1963   -0.6019    1.3247 H         1 RES1    0.0000
@<TRIPOS>BOND
     1    1    9 2
     2    2    5 2
     3    3   10 1
     4    4    5 2
     5    5   15 1
     6    6    9 1
     7    7   18 1
     8    8   15 ar
     9    9   10 1
    10   10   11 2
    11   11   12 1
    12   12   17 2
    13   13   14 ar
    14   14   19 ar
    15   15   13 ar
    16   16    8 ar
    17   17    6 1
    18   18    6 2
    19   19    7 1
    20   20   16 1
    21   21   17 1
    22   22   18 1
    23   23   13 1
    24   24   14 1
    25   25    8 1
    26   26   12 1
    27   27   11 1
    28   28    3 1
    29   29    7 1
    30   16   19 ar
@<TRIPOS>SUBSTRUCTURE
     1 RES1 1

@<TRIPOS>CRYSIN
   7.0050    7.1800   12.0180  83.2100  79.1600  72.6600   2 1

