# MOL2 file generated by ConQuest
# Please check atom types

@<TRIPOS>MOLECULE
LOFSEF
    45    48     1
SMALL
NO_CHARGES
****
Generated from CSD

@<TRIPOS>ATOM
      1 N1         4.4074    2.1220    1.3522 N.am      1 RES1    0.0000
      2 O1         3.8042    4.1412    0.4582 O.2       1 RES1    0.0000
      3 O2         4.5997    0.1918    2.5636 O.2       1 RES1    0.0000
      4 O3         4.9360    1.6027    0.1841 O.3       1 RES1    0.0000
      5 O4         7.2914    1.9851    2.2753 O.3       1 RES1    0.0000
      6 C1         3.2386    3.5215    2.7593 C.3       1 RES1    0.0000
      7 H1         3.6511    4.2698    3.2388 H         1 RES1    0.0000
      8 C2         3.8252    3.3726    1.3929 C.2       1 RES1    0.0000
      9 C3         4.2450    1.3394    2.4781 C.2       1 RES1    0.0000
     10 C4         3.5253    2.1849    3.4726 C.3       1 RES1    0.0000
     11 H2         4.0748    2.3273    4.2711 H         1 RES1    0.0000
     12 C5         2.0995    1.6826    3.8619 C.3       1 RES1    0.0000
     13 C6         1.4618    3.0414    4.1911 C.3       1 RES1    0.0000
     14 H3         2.0167    3.5187    4.8428 H         1 RES1    0.0000
     15 C7         1.6856    3.6260    2.7972 C.3       1 RES1    0.0000
     16 C8         1.1893    2.5021    1.9135 C.2       1 RES1    0.0000
     17 C9         1.4168    1.3524    2.5358 C.2       1 RES1    0.0000
     18 C10        0.0198    3.0053    4.6705 C.3       1 RES1    0.0000
     19 H4        -0.3565    3.8869    4.6174 H         1 RES1    0.0000
     20 H5        -0.0068    2.7001    5.5805 H         1 RES1    0.0000
     21 H6        -0.4867    2.4069    4.1165 H         1 RES1    0.0000
     22 C11        1.1657    5.0264    2.5253 C.3       1 RES1    0.0000
     23 H7         1.4706    5.3197    1.6637 H         1 RES1    0.0000
     24 H8         1.4932    5.6259    3.2001 H         1 RES1    0.0000
     25 H9         0.2058    5.0209    2.5398 H         1 RES1    0.0000
     26 C12        0.6652    2.7269    0.5218 C.3       1 RES1    0.0000
     27 H10        0.4294    1.8833    0.1288 H         1 RES1    0.0000
     28 H11        1.3428    3.1496   -0.0113 H         1 RES1    0.0000
     29 H12       -0.1111    3.2902    0.5589 H         1 RES1    0.0000
     30 C13        1.2217   -0.0435    2.0244 C.3       1 RES1    0.0000
     31 H13        0.7027   -0.0194    1.2176 H         1 RES1    0.0000
     32 H14        0.7607   -0.5652    2.6847 H         1 RES1    0.0000
     33 H15        2.0763   -0.4403    1.8424 H         1 RES1    0.0000
     34 C14        2.0902    0.5994    4.9266 C.3       1 RES1    0.0000
     35 H16        1.1835    0.3682    5.1392 H         1 RES1    0.0000
     36 H17        2.5320    0.9232    5.7141 H         1 RES1    0.0000
     37 H18        2.5499   -0.1757    4.5964 H         1 RES1    0.0000
     38 C15        6.3069    2.0054    0.0180 C.3       1 RES1    0.0000
     39 H19        6.3631    2.9702    0.1031 H         1 RES1    0.0000
     40 H20        6.5972    1.7705   -0.8777 H         1 RES1    0.0000
     41 C16        7.2179    1.3912    0.9884 C.3       1 RES1    0.0000
     42 H21        7.2804    0.4135    0.9615 H         1 RES1    0.0000
     43 C17        8.4034    2.0877    1.4092 C.3       1 RES1    0.0000
     44 H22        9.1887    1.5586    1.6170 H         1 RES1    0.0000
     45 H23        8.5862    2.9517    1.0082 H         1 RES1    0.0000
@<TRIPOS>BOND
     1    1    4 1
     2    2    8 2
     3    3    9 2
     4    4   38 1
     5    5   41 1
     6    6    7 1
     7    8    1 1
     8    9    1 1
     9   10    6 1
    10   11   10 1
    11   12   10 1
    12   13   12 1
    13   14   13 1
    14   15    6 1
    15   16   15 1
    16   17   12 1
    17   18   13 1
    18   19   18 1
    19   20   18 1
    20   21   18 1
    21   22   15 1
    22   23   22 1
    23   24   22 1
    24   25   22 1
    25   26   16 1
    26   27   26 1
    27   28   26 1
    28   29   26 1
    29   30   17 1
    30   31   30 1
    31   32   30 1
    32   33   30 1
    33   34   12 1
    34   35   34 1
    35   36   34 1
    36   37   34 1
    37   38   39 1
    38   40   38 1
    39   41   38 1
    40   42   41 1
    41   43    5 1
    42   44   43 1
    43   45   43 1
    44    6    8 1
    45    9   10 1
    46   13   15 1
    47   16   17 2
    48   41   43 1
@<TRIPOS>SUBSTRUCTURE
     1 RES1 1

@<TRIPOS>CRYSIN
  11.2870    9.2500   16.6710  90.0000 104.9700  90.0000  14 1

