# MOL2 file generated by ConQuest
# Please check atom types

@<TRIPOS>MOLECULE
LOFSUV
    37    38     1
SMALL
NO_CHARGES
****
Generated from CSD

@<TRIPOS>ATOM
      1 C1         8.9344    4.0440    2.5796 C.2       1 RES1    0.0000
      2 C2         7.7480    3.7328    3.3961 C.2       1 RES1    0.0000
      3 C3         6.3724    4.9258    1.7592 C.2       1 RES1    0.0000
      4 C4         7.5726    5.1466    0.9530 C.2       1 RES1    0.0000
      5 C5         8.8138    4.7543    1.3284 C.2       1 RES1    0.0000
      6 C6         5.3626    4.1001    3.8449 C.3       1 RES1    0.0000
      7 H1         4.8277    4.9083    3.8027 H         1 RES1    0.0000
      8 H2         5.6589    3.9893    4.7621 H         1 RES1    0.0000
      9 C7         4.5009    2.9201    3.4619 C.3       1 RES1    0.0000
     10 H3         4.1692    3.0415    2.5692 H         1 RES1    0.0000
     11 H4         3.7621    2.8518    4.0714 H         1 RES1    0.0000
     12 H5         5.0233    2.1157    3.5017 H         1 RES1    0.0000
     13 C8         7.3347    5.8076   -0.3029 C.1       1 RES1    0.0000
     14 C9        10.0315    5.0168    0.5098 C.3       1 RES1    0.0000
     15 H6        10.3609    4.1897    0.1505 H         1 RES1    0.0000
     16 H7        10.7080    5.4183    1.0615 H         1 RES1    0.0000
     17 H8         9.8110    5.6125   -0.2096 H         1 RES1    0.0000
     18 C10       11.7028    2.9527    4.5293 C.ar      1 RES1    0.0000
     19 C11       12.0209    2.2622    5.7083 C.ar      1 RES1    0.0000
     20 C12       13.3252    2.2083    6.1735 C.ar      1 RES1    0.0000
     21 H9        13.5174    1.7499    6.9604 H         1 RES1    0.0000
     22 C13       14.3334    2.8275    5.4810 C.ar      1 RES1    0.0000
     23 H10       15.2057    2.8146    5.8048 H         1 RES1    0.0000
     24 C14       14.0336    3.4756    4.2883 C.ar      1 RES1    0.0000
     25 H11       14.7158    3.8778    3.8000 H         1 RES1    0.0000
     26 C15       12.7393    3.5317    3.8180 C.ar      1 RES1    0.0000
     27 H12       12.5605    3.9628    3.0126 H         1 RES1    0.0000
     28 N1         6.5440    4.2625    2.9758 N.am      1 RES1    0.0000
     29 N2         7.1298    6.2940   -1.3131 N.1       1 RES1    0.0000
     30 N3        10.1679    3.7427    2.9473 N.2       1 RES1    0.0000
     31 N4        10.3760    3.1015    4.0859 N.pl3     1 RES1    0.0000
     32 H13        9.7196    2.7843    4.5417 H         1 RES1    0.0000
     33 N5        11.0163    1.5549    6.4933 N.pl3     1 RES1    0.0000
     34 O1         7.8177    3.0810    4.4366 O.2       1 RES1    0.0000
     35 O2         5.2673    5.3090    1.4114 O.2       1 RES1    0.0000
     36 O3         9.8174    1.7203    6.2340 O.2       1 RES1    0.0000
     37 O4        11.3881    0.8036    7.3949 O.2       1 RES1    0.0000
@<TRIPOS>BOND
     1    1    2 1
     2    2   28 1
     3    3    4 1
     4    4    5 2
     5    5    1 1
     6    6    7 1
     7    8    6 1
     8    9    6 1
     9   10    9 1
    10   11    9 1
    11   12    9 1
    12   13    4 1
    13   14    5 1
    14   15   14 1
    15   16   14 1
    16   17   14 1
    17   18   19 ar
    18   19   20 ar
    19   20   21 1
    20   22   20 ar
    21   23   22 1
    22   24   22 ar
    23   25   24 1
    24   26   18 ar
    25   27   26 1
    26   28    3 1
    27   29   13 3
    28   30    1 2
    29   31   18 1
    30   32   31 1
    31   33   19 1
    32   34    2 2
    33   35    3 2
    34   36   33 2
    35   37   33 2
    36    6   28 1
    37   24   26 ar
    38   30   31 1
@<TRIPOS>SUBSTRUCTURE
     1 RES1 1

@<TRIPOS>CRYSIN
  14.2830    7.5886   26.8740  90.0000  90.0000  90.0000  61 1

