# MOL2 file generated by ConQuest
# Please check atom types

@<TRIPOS>MOLECULE
LOGFES
    32    33     1
SMALL
NO_CHARGES
****
Generated from CSD

@<TRIPOS>ATOM
      1 N1         0.2343    1.1467    6.5720 N.2       1 RES1    0.0000
      2 O1        -0.2902    0.2385    5.6110 O.3       1 RES1    0.0000
      3 H1        -0.7391   -0.3415    6.1797 H         1 RES1    0.0000
      4 C1         0.8882    2.0866    6.0252 C.2       1 RES1    0.0000
      5 C2         1.1984    2.2789    4.5774 C.3       1 RES1    0.0000
      6 H2         0.3768    2.4162    4.0624 H         1 RES1    0.0000
      7 H3         1.6501    1.4484    4.2229 H         1 RES1    0.0000
      8 C3         2.1222    3.5047    4.5503 C.3       1 RES1    0.0000
      9 H4         1.5702    4.2694    4.4946 H         1 RES1    0.0000
     10 C4         3.1412    3.5154    3.4185 C.3       1 RES1    0.0000
     11 H5         2.6880    3.3965    2.5407 H         1 RES1    0.0000
     12 H6         3.5557    4.3896    3.4266 H         1 RES1    0.0000
     13 C5         4.2343    2.4895    3.6124 C.3       1 RES1    0.0000
     14 H7         3.8230    1.5623    3.5378 H         1 RES1    0.0000
     15 H8         4.9356    2.5680    2.9048 H         1 RES1    0.0000
     16 C6         4.8913    2.6261    4.9588 C.3       1 RES1    0.0000
     17 H9         5.3476    3.4977    5.0105 H         1 RES1    0.0000
     18 H10        5.5777    1.9228    5.1463 H         1 RES1    0.0000
     19 C7         3.8686    2.5351    6.0825 C.3       1 RES1    0.0000
     20 H11        4.2855    2.6059    6.9817 H         1 RES1    0.0000
     21 H12        3.4442    1.6572    6.0727 H         1 RES1    0.0000
     22 C8         2.7404    3.5667    5.9662 C.3       1 RES1    0.0000
     23 C9         1.5388    3.1638    6.8494 C.3       1 RES1    0.0000
     24 H13        0.9156    3.9278    6.7982 H         1 RES1    0.0000
     25 C10        3.2467    4.9664    6.3300 C.3       1 RES1    0.0000
     26 H14        2.5236    5.5913    6.3025 H         1 RES1    0.0000
     27 H15        3.9510    5.2308    5.6912 H         1 RES1    0.0000
     28 H16        3.6543    4.9715    7.2751 H         1 RES1    0.0000
     29 C11        1.8025    2.8045    8.2930 C.3       1 RES1    0.0000
     30 H17        2.3300    3.4851    8.7088 H         1 RES1    0.0000
     31 H18        2.3493    1.9987    8.3359 H         1 RES1    0.0000
     32 H19        0.9693    2.6502    8.7882 H         1 RES1    0.0000
@<TRIPOS>BOND
     1    1    2 1
     2    2    3 1
     3    4    1 2
     4    5    4 1
     5    6    5 1
     6    7    5 1
     7    8    5 1
     8    9    8 1
     9   10    8 1
    10   11   10 1
    11   12   10 1
    12   13   10 1
    13   14   13 1
    14   15   13 1
    15   16   13 1
    16   17   16 1
    17   18   16 1
    18   19   16 1
    19   20   19 1
    20   21   19 1
    21   22    8 1
    22   23    4 1
    23   24   23 1
    24   25   22 1
    25   26   25 1
    26   27   25 1
    27   28   25 1
    28   29   23 1
    29   30   29 1
    30   31   29 1
    31   32   29 1
    32   19   22 1
    33   22   23 1
@<TRIPOS>SUBSTRUCTURE
     1 RES1 1

@<TRIPOS>CRYSIN
  11.8470    6.3250   14.4850  90.0000  93.8700  90.0000  14 1

