# MOL2 file generated by ConQuest
# Please check atom types

@<TRIPOS>MOLECULE
LOHHIB
    35    36     1
SMALL
NO_CHARGES
****
Generated from CSD

@<TRIPOS>ATOM
      1 O1         3.5119    5.2791    9.0024 O.2       1 RES1    0.0000
      2 C1         4.4142    7.0081    7.6755 C.ar      1 RES1    0.0000
      3 C2         5.7666    4.5845   10.4559 C.3       1 RES1    0.0000
      4 H1         4.9410    4.6140   10.9832 H         1 RES1    0.0000
      5 C3         5.7782    5.7930    9.5054 C.3       1 RES1    0.0000
      6 H2         5.9534    6.5963   10.0199 H         1 RES1    0.0000
      7 H3         6.5025    5.6861    8.8689 H         1 RES1    0.0000
      8 N1         6.8633    5.7985   12.3760 N.pl3     1 RES1    0.0000
      9 C4         5.4299    7.9325    7.4641 C.ar      1 RES1    0.0000
     10 H4         6.1811    7.9290    8.0117 H         1 RES1    0.0000
     11 C5         5.8214    3.2473    9.7239 C.ar      1 RES1    0.0000
     12 C6         4.7828    2.3317    9.8471 C.ar      1 RES1    0.0000
     13 H5         4.0340    2.5536   10.3522 H         1 RES1    0.0000
     14 C7         4.4856    5.9680    8.7505 C.2       1 RES1    0.0000
     15 C8         3.2898    7.0316    6.8523 C.ar      1 RES1    0.0000
     16 H6         2.6021    6.4196    6.9890 H         1 RES1    0.0000
     17 C9         4.2136    8.8735    5.6150 C.ar      1 RES1    0.0000
     18 H7         4.1510    9.4887    4.9201 H         1 RES1    0.0000
     19 O2         5.7648    6.1286   12.7754 O.2       1 RES1    0.0000
     20 C10        3.1908    7.9644    5.8291 C.ar      1 RES1    0.0000
     21 H8         2.4358    7.9786    5.2863 H         1 RES1    0.0000
     22 C11        6.9527    4.6419   11.4148 C.3       1 RES1    0.0000
     23 H9         6.9945    3.8137   11.9184 H         1 RES1    0.0000
     24 H10        7.7724    4.7185   10.9015 H         1 RES1    0.0000
     25 C12        6.9895    1.6550    8.3220 C.ar      1 RES1    0.0000
     26 H11        7.7326    1.4328    7.8088 H         1 RES1    0.0000
     27 O3         7.9096    6.3020   12.7363 O.2       1 RES1    0.0000
     28 C13        4.8463    1.0846    9.2252 C.ar      1 RES1    0.0000
     29 H12        4.1467    0.4800    9.3225 H         1 RES1    0.0000
     30 C14        5.9514    0.7475    8.4641 C.ar      1 RES1    0.0000
     31 H13        5.9970   -0.0840    8.0502 H         1 RES1    0.0000
     32 C15        6.9238    2.8987    8.9463 C.ar      1 RES1    0.0000
     33 H14        7.6234    3.5025    8.8432 H         1 RES1    0.0000
     34 C16        5.3264    8.8652    6.4329 C.ar      1 RES1    0.0000
     35 H15        6.0079    9.4835    6.2962 H         1 RES1    0.0000
@<TRIPOS>BOND
     1    1   14 2
     2    2    9 ar
     3    3    4 1
     4    5    3 1
     5    6    5 1
     6    7    5 1
     7    8   19 2
     8    9   10 1
     9   11    3 1
    10   12   11 ar
    11   13   12 1
    12   14    2 1
    13   15    2 ar
    14   16   15 1
    15   17   18 1
    16   20   15 ar
    17   21   20 1
    18   22    3 1
    19   23   22 1
    20   24   22 1
    21   25   26 1
    22   27    8 2
    23   28   12 ar
    24   29   28 1
    25   30   25 ar
    26   31   30 1
    27   32   11 ar
    28   33   32 1
    29   34    9 ar
    30   35   34 1
    31    5   14 1
    32    8   22 1
    33   17   20 ar
    34   17   34 ar
    35   25   32 ar
    36   28   30 ar
@<TRIPOS>SUBSTRUCTURE
     1 RES1 1

@<TRIPOS>CRYSIN
   5.6899   10.1651   11.9516  77.9030  84.1600  79.0410   2 1

