# MOL2 file generated by ConQuest
# Please check atom types

@<TRIPOS>MOLECULE
LOHSIL
    43    47     1
SMALL
NO_CHARGES
****
Generated from CSD

@<TRIPOS>ATOM
      1 C1        -3.6430    0.0437    5.7525 C.2       1 RES1    0.0000
      2 C2        -2.6555    0.0489    6.7836 C.ar      1 RES1    0.0000
      3 C3        -2.2540   -1.2999    6.9190 C.ar      1 RES1    0.0000
      4 C4        -0.7281   -0.9115    8.5389 C.ar      1 RES1    0.0000
      5 H1        -0.0738   -1.1983    9.1351 H         1 RES1    0.0000
      6 C5        -1.0487    0.4468    8.4965 C.ar      1 RES1    0.0000
      7 C6        -0.4722    1.5800    9.2631 C.2       1 RES1    0.0000
      8 C7        -2.1046    2.4078    7.8234 C.2       1 RES1    0.0000
      9 C8        -2.0035    0.9341    7.6289 C.ar      1 RES1    0.0000
     10 C9        -2.9933   -3.4188    5.7519 C.ar      1 RES1    0.0000
     11 C10       -2.9436   -4.3331    6.7848 C.ar      1 RES1    0.0000
     12 H2        -2.8697   -4.0454    7.6667 H         1 RES1    0.0000
     13 C11       -3.0049   -5.6868    6.4888 C.ar      1 RES1    0.0000
     14 H3        -2.9566   -6.3109    7.1762 H         1 RES1    0.0000
     15 C12       -3.1391   -6.1178    5.1840 C.ar      1 RES1    0.0000
     16 H4        -3.2012   -7.0260    4.9942 H         1 RES1    0.0000
     17 C13       -3.1780   -5.1951    4.1682 C.ar      1 RES1    0.0000
     18 H5        -3.2633   -5.4829    3.2875 H         1 RES1    0.0000
     19 C14       -3.0911   -3.8329    4.4392 C.ar      1 RES1    0.0000
     20 H6        -3.0992   -3.2113    3.7476 H         1 RES1    0.0000
     21 C15       -4.3985    1.1947    5.1866 C.3       1 RES1    0.0000
     22 H7        -5.2279    0.8827    4.8166 H         1 RES1    0.0000
     23 H8        -3.8779    1.6135    4.4977 H         1 RES1    0.0000
     24 H9        -4.5795    1.8321    5.8825 H         1 RES1    0.0000
     25 C16       -0.8884    4.0638    9.2102 C.ar      1 RES1    0.0000
     26 C17       -1.9010    4.8418    9.7456 C.ar      1 RES1    0.0000
     27 H10       -2.7400    4.4740    9.9049 H         1 RES1    0.0000
     28 C18       -1.6544    6.1713   10.0423 C.ar      1 RES1    0.0000
     29 H11       -2.3178    6.7079   10.4151 H         1 RES1    0.0000
     30 C19       -0.4046    6.6795    9.7724 C.ar      1 RES1    0.0000
     31 C20        0.6234    5.9090    9.2731 C.ar      1 RES1    0.0000
     32 H12        1.4664    6.2757    9.1290 H         1 RES1    0.0000
     33 C21        0.3721    4.5803    8.9916 C.ar      1 RES1    0.0000
     34 H13        1.0479    4.0369    8.6567 H         1 RES1    0.0000
     35 O1         0.4009    1.5759   10.0888 O.2       1 RES1    0.0000
     36 O2        -2.8117    3.2015    7.2538 O.2       1 RES1    0.0000
     37 O3         0.8556    8.5985    9.4943 O.2       1 RES1    0.0000
     38 N1        -2.9869   -2.0108    6.0234 N.pl3     1 RES1    0.0000
     39 N2        -3.8289   -1.1817    5.3107 N.2       1 RES1    0.0000
     40 N3        -1.3260   -1.8146    7.7555 N.ar      1 RES1    0.0000
     41 N4        -1.1770    2.7212    8.8233 N.am      1 RES1    0.0000
     42 N5        -0.1458    8.1030   10.0030 N.pl3     1 RES1    0.0000
     43 O4        -0.9382    8.7388   10.6728 O.2       1 RES1    0.0000
@<TRIPOS>BOND
     1    1    2 1
     2    2    3 ar
     3    3   38 1
     4    4    5 1
     5    6    4 ar
     6    7    6 1
     7    8    9 1
     8    9    2 ar
     9   10   11 ar
    10   11   12 1
    11   13   11 ar
    12   14   13 1
    13   15   13 ar
    14   16   15 1
    15   17   15 ar
    16   18   17 1
    17   19   10 ar
    18   20   19 1
    19   21    1 1
    20   22   21 1
    21   23   21 1
    22   24   21 1
    23   25   26 ar
    24   26   27 1
    25   28   26 ar
    26   29   28 1
    27   30   28 ar
    28   31   30 ar
    29   32   31 1
    30   33   25 ar
    31   34   33 1
    32   35    7 2
    33   36    8 2
    34   37   42 2
    35   38   10 1
    36   39    1 2
    37   40    3 ar
    38   41    7 1
    39   42   30 1
    40   43   42 2
    41    4   40 ar
    42    6    9 ar
    43    8   41 1
    44   17   19 ar
    45   25   41 1
    46   31   33 ar
    47   38   39 1
@<TRIPOS>SUBSTRUCTURE
     1 RES1 1

@<TRIPOS>CRYSIN
   9.6770   12.1410   17.4380  90.0000 119.4510  90.0000  14 1

