# MOL2 file generated by ConQuest
# Please check atom types

@<TRIPOS>MOLECULE
LOJBIV
    31    31     1
SMALL
NO_CHARGES
****
Generated from CSD

@<TRIPOS>ATOM
      1 C1         0.7242    0.8559    2.4456 C.ar      1 RES1    0.0000
      2 H1         1.2215    1.5907    2.7223 H         1 RES1    0.0000
      3 N1         0.9103   -2.8120    2.6121 N.pl3     1 RES1    0.0000
      4 O1         0.2190   -3.7770    2.3237 O.2       1 RES1    0.0000
      5 C2        -0.4822    1.0602    1.7722 C.ar      1 RES1    0.0000
      6 N2        -0.9075    2.3139    1.5082 N.3       1 RES1    0.0000
      7 H2        -0.4057    2.9628    1.7647 H         1 RES1    0.0000
      8 C3        -2.1334    2.6532    0.8322 C.3       1 RES1    0.0000
      9 H3        -2.8892    2.3540    1.3605 H         1 RES1    0.0000
     10 H4        -2.1677    2.2010   -0.0247 H         1 RES1    0.0000
     11 C4         0.4327   -1.4912    2.3130 C.ar      1 RES1    0.0000
     12 O2         2.0041   -2.9356    3.1586 O.2       1 RES1    0.0000
     13 C5        -1.2323   -0.0707    1.3893 C.ar      1 RES1    0.0000
     14 H5        -2.0450    0.0375    0.9505 H         1 RES1    0.0000
     15 C6        -0.7663   -1.3261    1.6633 C.ar      1 RES1    0.0000
     16 H6        -1.2621   -2.0699    1.4087 H         1 RES1    0.0000
     17 C7        -2.2243    4.1474    0.6200 C.3       1 RES1    0.0000
     18 H7        -1.4519    4.4395    0.1116 H         1 RES1    0.0000
     19 H8        -2.1951    4.5893    1.4827 H         1 RES1    0.0000
     20 C8         1.1872   -0.3970    2.7050 C.ar      1 RES1    0.0000
     21 H9         1.9997   -0.5167    3.1405 H         1 RES1    0.0000
     22 C9        -3.4783    4.5720   -0.1060 C.3       1 RES1    0.0000
     23 H10       -4.2512    4.2350    0.3736 H         1 RES1    0.0000
     24 H11       -3.4823    4.1741   -0.9904 H         1 RES1    0.0000
     25 C10       -3.5956    6.0746   -0.2399 C.3       1 RES1    0.0000
     26 H12       -3.5533    6.4703    0.6450 H         1 RES1    0.0000
     27 H13       -2.8354    6.4032   -0.7449 H         1 RES1    0.0000
     28 C11       -4.8560    6.5333   -0.9128 C.3       1 RES1    0.0000
     29 H14       -4.9169    6.1332   -1.7835 H         1 RES1    0.0000
     30 H15       -4.8427    7.4897   -0.9998 H         1 RES1    0.0000
     31 H16       -5.6136    6.2705   -0.3854 H         1 RES1    0.0000
@<TRIPOS>BOND
     1    1    2 1
     2    3    4 2
     3    5    1 ar
     4    6    5 1
     5    7    6 1
     6    8    6 1
     7    9    8 1
     8   10    8 1
     9   11    3 1
    10   12    3 2
    11   13    5 ar
    12   14   13 1
    13   15   11 ar
    14   16   15 1
    15   17    8 1
    16   18   17 1
    17   19   17 1
    18   20    1 ar
    19   21   20 1
    20   22   17 1
    21   23   22 1
    22   24   22 1
    23   25   22 1
    24   26   25 1
    25   27   25 1
    26   28   25 1
    27   29   28 1
    28   30   28 1
    29   31   28 1
    30   11   20 ar
    31   13   15 ar
@<TRIPOS>SUBSTRUCTURE
     1 RES1 1

@<TRIPOS>CRYSIN
   6.1920   15.6100   11.8510  90.0000  97.5200  90.0000 231 1

