# MOL2 file generated by ConQuest
# Please check atom types

@<TRIPOS>MOLECULE
LOJFUN
    56    61     1
SMALL
NO_CHARGES
****
Generated from CSD

@<TRIPOS>ATOM
      1 C1         2.8882   -1.2395    1.2789 C.ar      1 RES1    0.0000
      2 H1         2.8830   -2.1678    1.3224 H         1 RES1    0.0000
      3 C2         1.5937    1.2947    8.0596 C.ar      1 RES1    0.0000
      4 O1         5.2568    0.7382    8.7102 O.2       1 RES1    0.0000
      5 C3         2.7816    1.5047    3.7222 C.2       1 RES1    0.0000
      6 C4        -0.1822   -0.0336    6.8344 C.3       1 RES1    0.0000
      7 H2        -1.1299    0.1556    6.7461 H         1 RES1    0.0000
      8 H3        -0.0796   -0.9913    6.9472 H         1 RES1    0.0000
      9 N1         1.9574    0.3208    5.8346 N.3       1 RES1    0.0000
     10 C5         2.8961    1.5768    1.1359 C.ar      1 RES1    0.0000
     11 H4         2.8968    2.5049    1.0834 H         1 RES1    0.0000
     12 C6         5.7985    2.1436    4.6207 C.ar      1 RES1    0.0000
     13 H5         5.2629    2.7834    5.0306 H         1 RES1    0.0000
     14 C7         2.4026    1.3307    6.7879 C.3       1 RES1    0.0000
     15 H6         2.2512    2.2060    6.3742 H         1 RES1    0.0000
     16 C8         4.2607    0.3420    5.5292 C.3       1 RES1    0.0000
     17 H7         4.4316   -0.5879    5.7867 H         1 RES1    0.0000
     18 O2         3.7663   -0.7495    8.2631 O.2       1 RES1    0.0000
     19 C9         6.8991    2.5544    3.8835 C.ar      1 RES1    0.0000
     20 H8         7.1019    3.4589    3.8075 H         1 RES1    0.0000
     21 C10        2.0377    1.9767    9.1899 C.ar      1 RES1    0.0000
     22 H9         2.8574    2.4161    9.1654 H         1 RES1    0.0000
     23 C11        0.0807    1.3822   10.3683 C.ar      1 RES1    0.0000
     24 H10       -0.4281    1.3952   11.1479 H         1 RES1    0.0000
     25 C12        3.9217    1.1077    6.8348 C.3       1 RES1    0.0000
     26 H11        4.3844    1.9712    6.8433 H         1 RES1    0.0000
     27 C13        7.6856    1.6137    3.2658 C.ar      1 RES1    0.0000
     28 C14        2.8438    0.9277    2.3617 C.ar      1 RES1    0.0000
     29 C15        2.9057    0.3461    4.7385 C.3       1 RES1    0.0000
     30 C16        2.9463    0.7986    0.0022 C.ar      1 RES1    0.0000
     31 H12        2.9849    1.2100   -0.8310 H         1 RES1    0.0000
     32 O3         8.8086    1.9036    2.5277 O.3       1 RES1    0.0000
     33 C17        2.9426   -0.5826    0.0748 C.ar      1 RES1    0.0000
     34 H13        2.9772   -1.0781   -0.7104 H         1 RES1    0.0000
     35 C18        1.2843    2.0149   10.3415 C.ar      1 RES1    0.0000
     36 H14        1.5959    2.4666   11.0920 H         1 RES1    0.0000
     37 O4         2.6210    2.6747    3.9945 O.2       1 RES1    0.0000
     38 O5         2.6781   -2.0334    4.2424 O.2       1 RES1    0.0000
     39 N2         4.3454    0.2905    8.0253 N.pl3     1 RES1    0.0000
     40 C19        7.3802    0.2718    3.3892 C.ar      1 RES1    0.0000
     41 H15        7.9116   -0.3640    2.9676 H         1 RES1    0.0000
     42 C20        2.7896   -0.9011    3.8357 C.2       1 RES1    0.0000
     43 C21        0.3515    0.6723    8.0663 C.ar      1 RES1    0.0000
     44 C22        9.1279    3.2685    2.3410 C.3       1 RES1    0.0000
     45 H16        9.2745    3.6835    3.1944 H         1 RES1    0.0000
     46 H17        8.4025    3.7085    1.8920 H         1 RES1    0.0000
     47 H18        9.9246    3.3413    1.8094 H         1 RES1    0.0000
     48 C23       -0.3964    0.7239    9.2547 C.ar      1 RES1    0.0000
     49 H19       -1.2273    0.3069    9.2905 H         1 RES1    0.0000
     50 C24        2.8403   -0.4620    2.4335 C.ar      1 RES1    0.0000
     51 C25        5.4765    0.8064    4.7618 C.ar      1 RES1    0.0000
     52 C26        0.5306    0.3980    5.5644 C.3       1 RES1    0.0000
     53 H20        0.2949   -0.1904    4.8295 H         1 RES1    0.0000
     54 H21        0.2811    1.3046    5.3277 H         1 RES1    0.0000
     55 C27        6.2892   -0.1275    4.1340 C.ar      1 RES1    0.0000
     56 H22        6.0973   -1.0331    4.2163 H         1 RES1    0.0000
@<TRIPOS>BOND
     1    1    2 1
     2    3   14 1
     3    4   39 2
     4    5   28 1
     5    6    7 1
     6    8    6 1
     7    9   14 1
     8   10   11 1
     9   12   13 1
    10   14   15 1
    11   16   17 1
    12   18   39 2
    13   19   12 ar
    14   20   19 1
    15   21    3 ar
    16   22   21 1
    17   23   24 1
    18   25   14 1
    19   26   25 1
    20   27   19 ar
    21   28   10 ar
    22   29    5 1
    23   30   10 ar
    24   31   30 1
    25   32   27 1
    26   33    1 ar
    27   34   33 1
    28   35   21 ar
    29   36   35 1
    30   37    5 2
    31   38   42 2
    32   39   25 1
    33   40   27 ar
    34   41   40 1
    35   42   29 1
    36   43    3 ar
    37   44   32 1
    38   45   44 1
    39   46   44 1
    40   47   44 1
    41   48   23 ar
    42   49   48 1
    43   50    1 ar
    44   51   12 ar
    45   52    6 1
    46   53   52 1
    47   54   52 1
    48   55   40 ar
    49   56   55 1
    50    6   43 1
    51    9   29 1
    52    9   52 1
    53   16   25 1
    54   16   29 1
    55   16   51 1
    56   23   35 ar
    57   28   50 ar
    58   30   33 ar
    59   42   50 1
    60   43   48 ar
    61   51   55 ar
@<TRIPOS>SUBSTRUCTURE
     1 RES1 1

@<TRIPOS>CRYSIN
   9.4522   11.2223   11.8315 108.0370  92.3760 102.9720   2 1

