# MOL2 file generated by ConQuest
# Please check atom types

@<TRIPOS>MOLECULE
LOJGUN
    39    40     1
SMALL
NO_CHARGES
****
Generated from CSD

@<TRIPOS>ATOM
      1 O1         3.4940    5.7534    0.4143 O.3       1 RES1    0.0000
      2 O2         1.2205    5.4799    0.8961 O.3       1 RES1    0.0000
      3 N1         3.6748    7.0661    0.9375 N.2       1 RES1    0.0000
      4 N2         1.2472    4.1009    1.2673 N.2       1 RES1    0.0000
      5 C1         5.1192    8.6110    1.9065 C.ar      1 RES1    0.0000
      6 C2         4.1713    9.6260    1.7481 C.ar      1 RES1    0.0000
      7 H1         3.3707    9.4385    1.3131 H         1 RES1    0.0000
      8 C3         4.4008   10.8955    2.2241 C.ar      1 RES1    0.0000
      9 H2         3.7543   11.5551    2.1138 H         1 RES1    0.0000
     10 C4         5.5912   11.1970    2.8677 C.ar      1 RES1    0.0000
     11 H3         5.7492   12.0555    3.1877 H         1 RES1    0.0000
     12 C5         6.5393   10.2068    3.0287 C.ar      1 RES1    0.0000
     13 H4         7.3383   10.4013    3.4625 H         1 RES1    0.0000
     14 C6         6.3129    8.9311    2.5524 C.ar      1 RES1    0.0000
     15 H5         6.9642    8.2769    2.6635 H         1 RES1    0.0000
     16 C7         4.8647    7.2487    1.3843 C.2       1 RES1    0.0000
     17 C8         5.9447    6.2134    1.3933 C.3       1 RES1    0.0000
     18 H6         5.6288    5.4177    0.9585 H         1 RES1    0.0000
     19 H7         6.1844    6.0092    2.3004 H         1 RES1    0.0000
     20 H8         6.7135    6.5493    0.9263 H         1 RES1    0.0000
     21 C9         2.1887    5.6820   -0.1089 C.3       1 RES1    0.0000
     22 H9         2.1419    4.9536   -0.7481 H         1 RES1    0.0000
     23 H10        1.9897    6.5051   -0.5819 H         1 RES1    0.0000
     24 C10        0.4560    3.8732    2.2514 C.2       1 RES1    0.0000
     25 C11       -0.3643    4.9191    2.9502 C.3       1 RES1    0.0000
     26 H11        0.1520    5.3098    3.6593 H         1 RES1    0.0000
     27 H12       -1.1548    4.5150    3.3149 H         1 RES1    0.0000
     28 H13       -0.6139    5.6025    2.3225 H         1 RES1    0.0000
     29 C12        0.3969    2.4675    2.6944 C.ar      1 RES1    0.0000
     30 C13        0.5496    1.4128    1.7928 C.ar      1 RES1    0.0000
     31 H14        0.6895    1.5949    0.8923 H         1 RES1    0.0000
     32 C14        0.4951    0.1026    2.2237 C.ar      1 RES1    0.0000
     33 H15        0.6016   -0.5923    1.6150 H         1 RES1    0.0000
     34 C15        0.2826   -0.1768    3.5619 C.ar      1 RES1    0.0000
     35 H16        0.2401   -1.0600    3.8493 H         1 RES1    0.0000
     36 C16        0.1326    0.8523    4.4734 C.ar      1 RES1    0.0000
     37 H17       -0.0053    0.6640    5.3728 H         1 RES1    0.0000
     38 C17        0.1880    2.1607    4.0407 C.ar      1 RES1    0.0000
     39 H18        0.0845    2.8503    4.6551 H         1 RES1    0.0000
@<TRIPOS>BOND
     1    1    3 1
     2    2    4 1
     3    3   16 2
     4    4   24 2
     5    5    6 ar
     6    6    7 1
     7    8    6 ar
     8    9    8 1
     9   10    8 ar
    10   11   10 1
    11   12   10 ar
    12   13   12 1
    13   14    5 ar
    14   15   14 1
    15   16    5 1
    16   17   16 1
    17   18   17 1
    18   19   17 1
    19   20   17 1
    20   21    1 1
    21   22   21 1
    22   23   21 1
    23   24   25 1
    24   25   26 1
    25   27   25 1
    26   28   25 1
    27   29   24 1
    28   30   29 ar
    29   31   30 1
    30   32   30 ar
    31   33   32 1
    32   34   32 ar
    33   35   34 1
    34   36   34 ar
    35   37   36 1
    36   38   29 ar
    37   39   38 1
    38    2   21 1
    39   12   14 ar
    40   36   38 ar
@<TRIPOS>SUBSTRUCTURE
     1 RES1 1

@<TRIPOS>CRYSIN
   9.8750    8.8409   17.2900  90.0000 101.1300  90.0000 231 1

