# MOL2 file generated by ConQuest
# Please check atom types

@<TRIPOS>MOLECULE
LOJVIR
    78    71     2
SMALL
NO_CHARGES
****
Generated from CSD

@<TRIPOS>ATOM
      1 O1         6.5314    7.7872    2.3898 O.3       1 RES1    0.0000
      2 O2         4.7769    9.3355    4.4738 O.2       1 RES1    0.0000
      3 O3         3.3653    9.9758    5.9291 O.2       1 RES1    0.0000
      4 O4         3.4237    8.5449   10.3873 O.2       1 RES1    0.0000
      5 O5         5.0521    7.3255   11.1028 O.2       1 RES1    0.0000
      6 N1         7.3307    6.3569    4.7601 N.2       1 RES1    0.0000
      7 N2         6.4603    7.3919    4.9970 N.pl3     1 RES1    0.0000
      8 H1         6.0872    7.8265    4.2935 H         1 RES1    0.0000
      9 N3         4.3279    9.3045    5.6079 N.pl3     1 RES1    0.0000
     10 N4         4.4332    7.8764   10.2045 N.pl3     1 RES1    0.0000
     11 C1         7.9285    6.2642    3.6200 C.2       1 RES1    0.0000
     12 C2         7.8516    7.2315    2.4606 C.3       1 RES1    0.0000
     13 H2         8.0109    6.7271    1.6356 H         1 RES1    0.0000
     14 C3         5.9436    7.5128    6.2478 C.ar      1 RES1    0.0000
     15 C4         4.9177    8.4314    6.5797 C.ar      1 RES1    0.0000
     16 C5         4.4188    8.5213    7.8689 C.ar      1 RES1    0.0000
     17 H3         3.7282    9.1143    8.0601 H         1 RES1    0.0000
     18 C6         4.9385    7.7435    8.8515 C.ar      1 RES1    0.0000
     19 C7         5.9406    6.8344    8.5749 C.ar      1 RES1    0.0000
     20 H4         6.2877    6.3053    9.2556 H         1 RES1    0.0000
     21 C8         6.4287    6.7103    7.2905 C.ar      1 RES1    0.0000
     22 H5         7.0922    6.0831    7.1125 H         1 RES1    0.0000
     23 C9         6.2907    8.4946    1.1678 C.3       1 RES1    0.0000
     24 H6         6.3882    7.8906    0.4149 H         1 RES1    0.0000
     25 H7         6.9408    9.2079    1.0692 H         1 RES1    0.0000
     26 C10        4.9264    9.0637    1.1738 C.3       1 RES1    0.0000
     27 H8         4.7728    9.5364    0.3524 H         1 RES1    0.0000
     28 H9         4.8361    9.6705    1.9122 H         1 RES1    0.0000
     29 H10        4.2843    8.3558    1.2604 H         1 RES1    0.0000
     30 C11        8.9179    8.3136    2.5592 C.ar      1 RES1    0.0000
     31 C12        9.1040    9.0338    3.7090 C.ar      1 RES1    0.0000
     32 H11        8.6173    8.8095    4.4690 H         1 RES1    0.0000
     33 C13        9.9976   10.0828    3.7667 C.ar      1 RES1    0.0000
     34 H12       10.0927   10.5479    4.5665 H         1 RES1    0.0000
     35 C14       10.7502   10.4618    2.6867 C.ar      1 RES1    0.0000
     36 C15       10.5927    9.7103    1.5646 C.ar      1 RES1    0.0000
     37 H13       11.1059    9.9142    0.8166 H         1 RES1    0.0000
     38 C16        9.7008    8.6529    1.4865 C.ar      1 RES1    0.0000
     39 H14        9.6336    8.1681    0.6963 H         1 RES1    0.0000
     40 C17       11.7192   11.6428    2.7517 C.3       1 RES1    0.0000
     41 H15       12.6066   11.2535    2.8984 H         1 RES1    0.0000
     42 C18       11.4925   12.5594    3.8773 C.3       1 RES1    0.0000
     43 H16       11.4591   12.0597    4.6963 H         1 RES1    0.0000
     44 H17       10.6619   13.0233    3.7511 H         1 RES1    0.0000
     45 H18       12.2098   13.1960    3.9206 H         1 RES1    0.0000
     46 C19       11.8102   12.3797    1.4973 C.3       1 RES1    0.0000
     47 H19       11.9755   11.7661    0.7781 H         1 RES1    0.0000
     48 H20       12.5291   13.0128    1.5502 H         1 RES1    0.0000
     49 H21       10.9851   12.8440    1.3385 H         1 RES1    0.0000
     50 C20        8.8576    5.1189    3.4985 C.ar      1 RES1    0.0000
     51 C21        9.5924    4.8432    2.3692 C.ar      1 RES1    0.0000
     52 H22        9.4983    5.3906    1.6236 H         1 RES1    0.0000
     53 C22       10.4702    3.7698    2.3115 C.ar      1 RES1    0.0000
     54 H23       10.9380    3.6101    1.5238 H         1 RES1    0.0000
     55 C23       10.6683    2.9396    3.3818 C.ar      1 RES1    0.0000
     56 C24        9.9479    3.2362    4.5208 C.ar      1 RES1    0.0000
     57 H24       10.0669    2.7061    5.2748 H         1 RES1    0.0000
     58 C25        9.0647    4.2799    4.5821 C.ar      1 RES1    0.0000
     59 H25        8.5935    4.4291    5.3698 H         1 RES1    0.0000
     60 C26       11.6313    1.7574    3.3349 C.3       1 RES1    0.0000
     61 H26       12.2660    1.9062    4.0649 H         1 RES1    0.0000
     62 C27       12.4382    1.6475    2.1335 C.3       1 RES1    0.0000
     63 H27       12.8863    2.4815    1.9723 H         1 RES1    0.0000
     64 H28       11.8736    1.4385    1.3855 H         1 RES1    0.0000
     65 H29       13.0899    0.9513    2.2477 H         1 RES1    0.0000
     66 C28       10.8925    0.5096    3.6957 C.3       1 RES1    0.0000
     67 H30       10.3863    0.6573    4.4979 H         1 RES1    0.0000
     68 H31       11.5189   -0.2036    3.8401 H         1 RES1    0.0000
     69 H32       10.2967    0.2713    2.9814 H         1 RES1    0.0000
     70 H33       12.4447    2.1759    2.9826 Du        2 SUP2    0.0000
     71 C29       12.0843    1.2484    4.5845 Du        2 SUP2    0.0000
     72 H34       12.2697    1.9781    5.1786 Du        2 SUP2    0.0000
     73 H35       12.8829    0.7334    4.4498 Du        2 SUP2    0.0000
     74 H36       11.4041    0.6890    4.9681 Du        2 SUP2    0.0000
     75 C30       11.2993    0.7876    2.2646 Du        2 SUP2    0.0000
     76 H37       11.0060    1.2610    1.4841 Du        2 SUP2    0.0000
     77 H38       10.6069    0.2005    2.5677 Du        2 SUP2    0.0000
     78 H39       12.0849    0.2737    2.0481 Du        2 SUP2    0.0000
@<TRIPOS>BOND
     1    1   12 1
     2    2    9 2
     3    3    9 2
     4    4   10 2
     5    5   10 2
     6    6    7 1
     7    7    8 1
     8    9   15 1
     9   10   18 1
    10   11    6 2
    11   12   11 1
    12   13   12 1
    13   14    7 1
    14   15   14 ar
    15   16   15 ar
    16   17   16 1
    17   18   16 ar
    18   19   18 ar
    19   20   19 1
    20   21   14 ar
    21   22   21 1
    22   23    1 1
    23   24   23 1
    24   25   23 1
    25   26   23 1
    26   27   26 1
    27   28   26 1
    28   29   26 1
    29   30   12 1
    30   31   30 ar
    31   32   31 1
    32   33   31 ar
    33   34   33 1
    34   35   33 ar
    35   36   35 ar
    36   37   36 1
    37   38   30 ar
    38   39   38 1
    39   40   35 1
    40   41   40 1
    41   42   40 1
    42   43   42 1
    43   44   42 1
    44   45   42 1
    45   46   40 1
    46   47   46 1
    47   48   46 1
    48   49   46 1
    49   50   11 1
    50   51   50 ar
    51   52   51 1
    52   53   51 ar
    53   54   53 1
    54   55   53 ar
    55   56   55 ar
    56   57   56 1
    57   58   50 ar
    58   59   58 1
    59   60   55 1
    60   61   60 1
    61   62   60 1
    62   63   62 1
    63   64   62 1
    64   65   62 1
    65   66   60 1
    66   67   66 1
    67   68   66 1
    68   69   66 1
    69   19   21 ar
    70   36   38 ar
    71   56   58 ar
@<TRIPOS>SUBSTRUCTURE
     1 RES1 1
     2 SUP2 70

@<TRIPOS>CRYSIN
   9.4650   12.5440   12.8610  76.2000  70.5400  67.6100   2 1

