# MOL2 file generated by ConQuest
# Please check atom types

@<TRIPOS>MOLECULE
LOKYIU
    72    73     1
SMALL
NO_CHARGES
****
Generated from CSD

@<TRIPOS>ATOM
      1 O1        -0.6262   -6.7824    4.0049 O.2       1 RES1    0.0000
      2 O2         1.3777   -5.9834    4.0452 O.2       1 RES1    0.0000
      3 O3         1.2196   -3.3545    4.3099 O.3       1 RES1    0.0000
      4 O4         0.9505   -0.2074    6.0009 O.3       1 RES1    0.0000
      5 O5        -0.5426   -1.9014    5.7991 O.2       1 RES1    0.0000
      6 O6        -2.9679   -1.5277    0.3709 O.2       1 RES1    0.0000
      7 O7         0.1233    1.7947    1.7529 O.3       1 RES1    0.0000
      8 O8         1.9531    0.6303    3.1032 O.2       1 RES1    0.0000
      9 O9         3.3047    2.4481    3.0359 O.3       1 RES1    0.0000
     10 O10       -1.7888    5.9222   -0.8494 O.2       1 RES1    0.0000
     11 O11       -3.7779    5.0535   -1.4104 O.3       1 RES1    0.0000
     12 N1         0.1904   -5.8957    3.7731 N.pl3     1 RES1    0.0000
     13 N2        -1.3233   -0.1537    1.1261 N.am      1 RES1    0.0000
     14 H1        -0.5327   -0.0161    1.5923 H         1 RES1    0.0000
     15 C1        -0.3146   -4.6897    3.1069 C.ar      1 RES1    0.0000
     16 C2        -1.3500   -4.8560    2.2177 C.ar      1 RES1    0.0000
     17 H2        -1.7097   -5.7195    2.0547 H         1 RES1    0.0000
     18 C3        -1.8624   -3.7529    1.5643 C.ar      1 RES1    0.0000
     19 H3        -2.5790   -3.8585    0.9490 H         1 RES1    0.0000
     20 C4        -1.3423   -2.4996    1.7986 C.ar      1 RES1    0.0000
     21 C5        -0.3045   -2.3341    2.7145 C.ar      1 RES1    0.0000
     22 H4         0.0446   -1.4668    2.8814 H         1 RES1    0.0000
     23 C6         0.2247   -3.4314    3.3871 C.ar      1 RES1    0.0000
     24 C7         1.6120   -2.0687    4.7654 C.3       1 RES1    0.0000
     25 H5         1.8357   -1.5014    3.9858 H         1 RES1    0.0000
     26 H6         2.4248   -2.1543    5.3233 H         1 RES1    0.0000
     27 C8         0.5229   -1.4009    5.5717 C.2       1 RES1    0.0000
     28 C9         0.0460    0.7037    6.7437 C.3       1 RES1    0.0000
     29 C10       -0.3475    0.0744    8.0570 C.3       1 RES1    0.0000
     30 H7         0.4575   -0.1149    8.5831 H         1 RES1    0.0000
     31 H8        -0.8304   -0.7606    7.8876 H         1 RES1    0.0000
     32 H9        -0.9241    0.6915    8.5538 H         1 RES1    0.0000
     33 C11        0.9106    1.9263    6.9500 C.3       1 RES1    0.0000
     34 H10        1.6744    1.6935    7.5194 H         1 RES1    0.0000
     35 H11        0.3830    2.6292    7.3844 H         1 RES1    0.0000
     36 H12        1.2343    2.2485    6.0838 H         1 RES1    0.0000
     37 C12       -1.1467    1.0428    5.8660 C.3       1 RES1    0.0000
     38 H13       -0.8337    1.4636    5.0380 H         1 RES1    0.0000
     39 H14       -1.7374    1.6611    6.3437 H         1 RES1    0.0000
     40 H15       -1.6373    0.2226    5.6507 H         1 RES1    0.0000
     41 C13       -1.9512   -1.3534    1.0318 C.2       1 RES1    0.0000
     42 C14       -1.6913    1.0728    0.5528 C.ar      1 RES1    0.0000
     43 C15       -2.7747    1.2763   -0.2650 C.ar      1 RES1    0.0000
     44 H16       -3.3291    0.5446   -0.5108 H         1 RES1    0.0000
     45 C16       -3.0602    2.5466   -0.7299 C.ar      1 RES1    0.0000
     46 H17       -3.8192    2.6884   -1.2827 H         1 RES1    0.0000
     47 C17       -2.2421    3.6180   -0.3911 C.ar      1 RES1    0.0000
     48 C18       -1.1348    3.4245    0.4293 C.ar      1 RES1    0.0000
     49 H18       -0.5654    4.1506    0.6547 H         1 RES1    0.0000
     50 C19       -0.8835    2.1693    0.9044 C.ar      1 RES1    0.0000
     51 C20        1.1632    2.6772    2.1362 C.3       1 RES1    0.0000
     52 H19        0.8302    3.3701    2.7591 H         1 RES1    0.0000
     53 H20        1.5621    3.1206    1.3452 H         1 RES1    0.0000
     54 C21        2.1735    1.7711    2.8190 C.2       1 RES1    0.0000
     55 C22        4.4644    1.8140    3.7323 C.3       1 RES1    0.0000
     56 C23        4.8680    0.5347    3.0317 C.3       1 RES1    0.0000
     57 H21        5.0879    0.7306    2.0967 H         1 RES1    0.0000
     58 H22        4.1257   -0.1037    3.0648 H         1 RES1    0.0000
     59 H23        5.6506    0.1504    3.4776 H         1 RES1    0.0000
     60 C24        4.1080    1.5858    5.1756 C.3       1 RES1    0.0000
     61 H24        3.8519    2.4372    5.5883 H         1 RES1    0.0000
     62 H25        4.8811    1.2134    5.6494 H         1 RES1    0.0000
     63 H26        3.3579    0.9571    5.2316 H         1 RES1    0.0000
     64 C25        5.5317    2.8696    3.5871 C.3       1 RES1    0.0000
     65 H27        5.7421    2.9918    2.6368 H         1 RES1    0.0000
     66 H28        6.3382    2.5875    4.0661 H         1 RES1    0.0000
     67 H29        5.2080    3.7151    3.9616 H         1 RES1    0.0000
     68 C26       -2.5377    4.9755   -0.8955 C.2       1 RES1    0.0000
     69 C27       -4.1564    6.3356   -1.9592 C.3       1 RES1    0.0000
     70 H30       -5.0726    6.2855   -2.3044 H         1 RES1    0.0000
     71 H31       -3.5452    6.5726   -2.6891 H         1 RES1    0.0000
     72 H32       -4.1079    7.0188   -1.2585 H         1 RES1    0.0000
@<TRIPOS>BOND
     1    1   12 2
     2    2   12 2
     3    3   23 1
     4    4   27 1
     5    5   27 2
     6    6   41 2
     7    7   50 1
     8    8   54 2
     9    9   54 1
    10   10   68 2
    11   11   68 1
    12   12   15 1
    13   13   14 1
    14   15   16 ar
    15   16   17 1
    16   18   16 ar
    17   19   18 1
    18   20   18 ar
    19   21   20 ar
    20   22   21 1
    21   23   15 ar
    22   24    3 1
    23   25   24 1
    24   26   24 1
    25   27   24 1
    26   28    4 1
    27   29   28 1
    28   30   29 1
    29   31   29 1
    30   32   29 1
    31   33   28 1
    32   34   33 1
    33   35   33 1
    34   36   33 1
    35   37   28 1
    36   38   37 1
    37   39   37 1
    38   40   37 1
    39   41   13 1
    40   42   13 1
    41   43   42 ar
    42   44   43 1
    43   45   43 ar
    44   46   45 1
    45   47   45 ar
    46   48   47 ar
    47   49   48 1
    48   50   42 ar
    49   51    7 1
    50   52   51 1
    51   53   51 1
    52   54   51 1
    53   55    9 1
    54   56   55 1
    55   57   56 1
    56   58   56 1
    57   59   56 1
    58   60   55 1
    59   61   60 1
    60   62   60 1
    61   63   60 1
    62   64   55 1
    63   65   64 1
    64   66   64 1
    65   67   64 1
    66   68   47 1
    67   69   11 1
    68   70   69 1
    69   71   69 1
    70   72   69 1
    71   20   41 1
    72   21   23 ar
    73   48   50 ar
@<TRIPOS>SUBSTRUCTURE
     1 RES1 1

@<TRIPOS>CRYSIN
   9.2150   11.7410   13.7210 102.6700 107.0500  91.7400   2 1

