# MOL2 file generated by ConQuest
# Please check atom types

@<TRIPOS>MOLECULE
LOLBUL
    44    38     2
SMALL
NO_CHARGES
****
Generated from CSD

@<TRIPOS>ATOM
      1 N1        -0.3031    6.1045   12.0187 N.am      1 RES1    0.0000
      2 C1         0.6368    5.2142   12.4648 C.2       1 RES1    0.0000
      3 O1         0.6104    4.8064   13.6258 O.2       1 RES1    0.0000
      4 N2         1.5825    4.8636   11.5858 N.am      1 RES1    0.0000
      5 C2         1.5140    5.1095   10.1510 C.3       1 RES1    0.0000
      6 H1         2.4251    5.2680    9.8258 H         1 RES1    0.0000
      7 C3         0.6998    6.3617    9.8978 C.2       1 RES1    0.0000
      8 C4        -0.2063    6.7708   10.8127 C.2       1 RES1    0.0000
      9 C5         0.9488    3.9007    9.4045 C.ar      1 RES1    0.0000
     10 C6         1.4640    3.5484    8.1718 C.ar      1 RES1    0.0000
     11 H2         2.1769    4.0199    7.8060 H         1 RES1    0.0000
     12 C7         0.8986    2.4780    7.4871 C.ar      1 RES1    0.0000
     13 C8        -0.1260    1.7402    7.9983 C.ar      1 RES1    0.0000
     14 H3        -0.4890    1.0316    7.5176 H         1 RES1    0.0000
     15 C9        -0.6086    2.0679    9.2381 C.ar      1 RES1    0.0000
     16 H4        -1.2927    1.5628    9.6157 H         1 RES1    0.0000
     17 C10       -0.0890    3.1409    9.9334 C.ar      1 RES1    0.0000
     18 H5        -0.4372    3.3598   10.7677 H         1 RES1    0.0000
     19 N3         1.4418    2.1503    6.1618 N.pl3     1 RES1    0.0000
     20 O2         2.4172    2.7612    5.7638 O.2       1 RES1    0.0000
     21 O3         0.8612    1.2913    5.5000 O.2       1 RES1    0.0000
     22 C11       -1.1630    7.9180   10.7066 C.3       1 RES1    0.0000
     23 H6        -0.6729    8.7425   10.6716 H         1 RES1    0.0000
     24 H7        -1.7433    7.9227   11.4721 H         1 RES1    0.0000
     25 H8        -1.6878    7.8233    9.9081 H         1 RES1    0.0000
     26 C12        0.8821    7.1123    8.6566 C.2       1 RES1    0.0000
     27 O4         0.2631    8.0932    8.3183 O.2       1 RES1    0.0000
     28 O5         1.8732    6.6048    7.9048 O.3       1 RES1    0.0000
     29 C13        1.9955    7.2945    6.6059 C.3       1 RES1    0.0000
     30 H9         1.1487    7.7216    6.3903 H         1 RES1    0.0000
     31 H10        2.6697    7.9866    6.6718 H         1 RES1    0.0000
     32 C14        2.3546    6.3611    5.5308 C.3       1 RES1    0.0000
     33 H11        2.3490    6.8237    4.6891 H         1 RES1    0.0000
     34 H12        1.7189    5.6418    5.5033 H         1 RES1    0.0000
     35 H13        3.2313    6.0062    5.6955 H         1 RES1    0.0000
     36 H14       -0.9343    6.3528   12.6598 H         1 RES1    0.0000
     37 H15        2.1434    4.2707   11.8634 H         1 RES1    0.0000
     38 C15        2.3974    7.2283    6.7102 Du        2 SUP2    0.0000
     39 H16        3.3430    7.0591    6.6086 Du        2 SUP2    0.0000
     40 H17        2.2382    8.1853    6.7157 Du        2 SUP2    0.0000
     41 C16        1.6263    6.5740    5.6585 Du        2 SUP2    0.0000
     42 H18        1.8539    6.9585    4.8085 Du        2 SUP2    0.0000
     43 H19        0.6874    6.6983    5.8232 Du        2 SUP2    0.0000
     44 H20        1.8282    5.6359    5.6502 Du        2 SUP2    0.0000
@<TRIPOS>BOND
     1    1    2 1
     2    2    3 2
     3    4    2 1
     4    5    4 1
     5    6    5 1
     6    7    5 1
     7    8    1 1
     8    9    5 1
     9   10    9 ar
    10   11   10 1
    11   12   10 ar
    12   13   12 ar
    13   14   13 1
    14   15   13 ar
    15   16   15 1
    16   17    9 ar
    17   18   17 1
    18   19   12 1
    19   20   19 2
    20   21   19 2
    21   22    8 1
    22   23   22 1
    23   24   22 1
    24   25   22 1
    25   26    7 1
    26   27   26 2
    27   28   26 1
    28   29   28 1
    29   30   29 1
    30   31   29 1
    31   32   29 1
    32   33   32 1
    33   34   32 1
    34   35   32 1
    35   36    1 1
    36   37    4 1
    37    7    8 2
    38   15   17 ar
@<TRIPOS>SUBSTRUCTURE
     1 RES1 1
     2 SUP2 38

@<TRIPOS>CRYSIN
   8.6831   11.8302   13.7550  90.0000  93.3990  90.0000 231 1

