# MOL2 file generated by ConQuest
# Please check atom types

@<TRIPOS>MOLECULE
LOLFAT
    23    23     1
SMALL
NO_CHARGES
****
Generated from CSD

@<TRIPOS>ATOM
      1 N1         1.8844    7.9125    0.0165 N.3       1 RES1    0.0000
      2 N2         1.1465    9.0555    0.2087 N.pl3     1 RES1    0.0000
      3 O1         1.7560   10.1115    0.3234 O.2       1 RES1    0.0000
      4 O2        -0.0576    8.9386    0.3295 O.2       1 RES1    0.0000
      5 C1         3.2609    8.0574   -0.4449 C.3       1 RES1    0.0000
      6 H1         3.8057    7.3519   -0.0611 H         1 RES1    0.0000
      7 H2         3.6150    8.9086   -0.1435 H         1 RES1    0.0000
      8 N3         3.3315    7.9891   -1.9011 N.3       1 RES1    0.0000
      9 N4         3.2360    9.1899   -2.5821 N.pl3     1 RES1    0.0000
     10 O3         3.6642   10.1860   -2.0260 O.2       1 RES1    0.0000
     11 O4         2.8078    9.1610   -3.7238 O.2       1 RES1    0.0000
     12 C2         2.7056    6.8048   -2.4867 C.3       1 RES1    0.0000
     13 H3         3.2264    6.0197   -2.2533 H         1 RES1    0.0000
     14 H4         2.7080    6.8875   -3.4527 H         1 RES1    0.0000
     15 C3         1.2696    6.6155   -2.0027 C.3       1 RES1    0.0000
     16 H5         0.9264    5.7456   -2.2945 H         1 RES1    0.0000
     17 O5         0.4096    7.6850   -2.4887 O.3       1 RES1    0.0000
     18 N5         0.1030    7.6126   -3.8632 N.pl3     1 RES1    0.0000
     19 O6         0.5217    6.6807   -4.4873 O.2       1 RES1    0.0000
     20 O7        -0.5693    8.5383   -4.2278 O.2       1 RES1    0.0000
     21 C4         1.1792    6.7355   -0.4847 C.3       1 RES1    0.0000
     22 H6         0.2462    6.7882   -0.2245 H         1 RES1    0.0000
     23 H7         1.5582    5.9401   -0.0790 H         1 RES1    0.0000
@<TRIPOS>BOND
     1    1    2 1
     2    2    3 2
     3    4    2 2
     4    5    1 1
     5    6    5 1
     6    7    5 1
     7    8    5 1
     8    9    8 1
     9   10    9 2
    10   11    9 2
    11   12    8 1
    12   13   12 1
    13   14   12 1
    14   15   12 1
    15   16   15 1
    16   17   15 1
    17   18   17 1
    18   19   18 2
    19   20   18 2
    20   21    1 1
    21   22   21 1
    22   23   21 1
    23   15   21 1
@<TRIPOS>SUBSTRUCTURE
     1 RES1 1

@<TRIPOS>CRYSIN
   6.2987   10.3432    7.0572  90.0000 103.3850  90.0000   4 1

