# MOL2 file generated by ConQuest
# Please check atom types

@<TRIPOS>MOLECULE
LOLGUP
    30    32     1
SMALL
NO_CHARGES
****
Generated from CSD

@<TRIPOS>ATOM
      1 O1        -1.1459    5.5584   12.0159 O.2       1 RES1    0.0000
      2 O2        -0.5288    5.2815    9.9748 O.2       1 RES1    0.0000
      3 N1         1.0803    1.9196   14.6301 N.pl3     1 RES1    0.0000
      4 N2         1.6511    0.7311   14.9496 N.2       1 RES1    0.0000
      5 N3         1.5277    0.5725   16.2345 N.2       1 RES1    0.0000
      6 N4        -0.5092    4.9622   11.1529 N.pl3     1 RES1    0.0000
      7 C1         0.5977    2.5232   15.7443 C.2       1 RES1    0.0000
      8 H1         0.1648    3.3448   15.7985 H         1 RES1    0.0000
      9 C2         0.8850    1.6593   16.7748 C.2       1 RES1    0.0000
     10 C3         0.6010    1.7605   18.2150 C.ar      1 RES1    0.0000
     11 C4         1.1412    0.8436   19.1104 C.ar      1 RES1    0.0000
     12 H2         1.6975    0.1692   18.7942 H         1 RES1    0.0000
     13 C5         0.8683    0.9153   20.4547 C.ar      1 RES1    0.0000
     14 H3         1.2411    0.2935   21.0356 H         1 RES1    0.0000
     15 C6         0.0480    1.9003   20.9416 C.ar      1 RES1    0.0000
     16 H4        -0.1402    1.9453   21.8526 H         1 RES1    0.0000
     17 C7        -0.4965    2.8242   20.0734 C.ar      1 RES1    0.0000
     18 H5        -1.0513    3.4953   20.4010 H         1 RES1    0.0000
     19 C8        -0.2213    2.7572   18.7234 C.ar      1 RES1    0.0000
     20 H6        -0.5911    3.3860   18.1461 H         1 RES1    0.0000
     21 C9         1.0823    2.3668   13.2750 C.ar      1 RES1    0.0000
     22 C10        1.8816    1.7000   12.3398 C.ar      1 RES1    0.0000
     23 H7         2.4136    0.9833   12.6039 H         1 RES1    0.0000
     24 C11        1.8741    2.1134   11.0284 C.ar      1 RES1    0.0000
     25 H8         2.4064    1.6700   10.4089 H         1 RES1    0.0000
     26 C12        1.0925    3.1755   10.6126 C.ar      1 RES1    0.0000
     27 H9         1.0865    3.4481    9.7226 H         1 RES1    0.0000
     28 C13        0.3189    3.8188   11.5630 C.ar      1 RES1    0.0000
     29 C14        0.2959    3.4369   12.8899 C.ar      1 RES1    0.0000
     30 H10       -0.2336    3.8878   13.5081 H         1 RES1    0.0000
@<TRIPOS>BOND
     1    1    6 2
     2    2    6 2
     3    3    4 1
     4    4    5 2
     5    5    9 1
     6    6   28 1
     7    7    3 1
     8    8    7 1
     9    9    7 2
    10   10    9 1
    11   11   10 ar
    12   12   11 1
    13   13   11 ar
    14   14   13 1
    15   15   13 ar
    16   16   15 1
    17   17   15 ar
    18   18   17 1
    19   19   10 ar
    20   20   19 1
    21   21    3 1
    22   22   21 ar
    23   23   22 1
    24   24   22 ar
    25   25   24 1
    26   26   24 ar
    27   27   26 1
    28   28   26 ar
    29   29   21 ar
    30   30   29 1
    31   17   19 ar
    32   28   29 ar
@<TRIPOS>SUBSTRUCTURE
     1 RES1 1

@<TRIPOS>CRYSIN
   8.5020    5.3559   27.3630  90.0000  95.5640  90.0000  14 1

