# MOL2 file generated by ConQuest
# Please check atom types

@<TRIPOS>MOLECULE
LOLGAV01
    30    32     1
SMALL
NO_CHARGES
****
Generated from CSD

@<TRIPOS>ATOM
      1 N1         6.6540   -0.1010    2.2478 N.pl3     1 RES1    0.0000
      2 O1         5.9039   -1.3767    5.8883 O.2       1 RES1    0.0000
      3 N2         5.8727   -1.1948    2.1073 N.2       1 RES1    0.0000
      4 O2         7.5797   -1.3373    4.5541 O.2       1 RES1    0.0000
      5 N3         6.4065   -1.9239    1.1683 N.2       1 RES1    0.0000
      6 C1         6.3496    0.8660    3.2432 C.ar      1 RES1    0.0000
      7 C2         8.3691   -1.9027   -0.3430 C.ar      1 RES1    0.0000
      8 C3         6.1353    2.1791    2.8881 C.ar      1 RES1    0.0000
      9 H1         6.2426    2.4460    2.0042 H         1 RES1    0.0000
     10 C4         6.2002    0.4965    4.5762 C.ar      1 RES1    0.0000
     11 N4         6.5779   -0.8460    5.0282 N.pl3     1 RES1    0.0000
     12 C5         7.5235   -1.3068    0.6947 C.2       1 RES1    0.0000
     13 C6         8.3578   -3.2790   -0.5593 C.ar      1 RES1    0.0000
     14 H2         7.7938   -3.8209   -0.0575 H         1 RES1    0.0000
     15 C7         5.7587    3.1009    3.8500 C.ar      1 RES1    0.0000
     16 H3         5.6370    3.9915    3.6125 H         1 RES1    0.0000
     17 C8         7.6753   -0.1379    1.3813 C.2       1 RES1    0.0000
     18 H4         8.3456    0.4977    1.2715 H         1 RES1    0.0000
     19 C9         5.7810    1.3974    5.5282 C.ar      1 RES1    0.0000
     20 H5         5.6454    1.1294    6.4083 H         1 RES1    0.0000
     21 C10        9.2171   -1.1145   -1.1160 C.ar      1 RES1    0.0000
     22 H6         9.2271   -0.1924   -0.9965 H         1 RES1    0.0000
     23 C11        9.1821   -3.8448   -1.5177 C.ar      1 RES1    0.0000
     24 H7         9.1605   -4.7639   -1.6603 H         1 RES1    0.0000
     25 C12        5.5647    2.7094    5.1492 C.ar      1 RES1    0.0000
     26 H8         5.2849    3.3321    5.7809 H         1 RES1    0.0000
     27 C13       10.0296   -3.0619   -2.2569 C.ar      1 RES1    0.0000
     28 H9        10.5928   -3.4482   -2.8884 H         1 RES1    0.0000
     29 C14       10.0422   -1.6915   -2.0581 C.ar      1 RES1    0.0000
     30 H10       10.6114   -1.1571   -2.5627 H         1 RES1    0.0000
@<TRIPOS>BOND
     1    1    3 1
     2    2   11 2
     3    3    5 2
     4    4   11 2
     5    5   12 1
     6    6    1 1
     7    7   12 1
     8    8    6 ar
     9    9    8 1
    10   10    6 ar
    11   11   10 1
    12   12   17 2
    13   13    7 ar
    14   14   13 1
    15   15    8 ar
    16   16   15 1
    17   17    1 1
    18   18   17 1
    19   19   10 ar
    20   20   19 1
    21   21    7 ar
    22   22   21 1
    23   23   13 ar
    24   24   23 1
    25   25   15 ar
    26   26   25 1
    27   27   23 ar
    28   28   27 1
    29   29   21 ar
    30   30   29 1
    31   19   25 ar
    32   27   29 ar
@<TRIPOS>SUBSTRUCTURE
     1 RES1 1

@<TRIPOS>CRYSIN
  12.1729    7.4846   14.2654  90.0000 100.3170  90.0000 231 1

