# MOL2 file generated by ConQuest
# Please check atom types

@<TRIPOS>MOLECULE
LOLJAX
    32    33     1
SMALL
NO_CHARGES
****
Generated from CSD

@<TRIPOS>ATOM
      1 O1         6.4830   11.5098    5.1389 O.2       1 RES1    0.0000
      2 N1         4.8296    9.9943    5.2889 N.am      1 RES1    0.0000
      3 C1         6.1071   10.3465    5.2115 C.2       1 RES1    0.0000
      4 C2         4.0735    8.7427    5.2528 C.3       1 RES1    0.0000
      5 H1         4.1698    8.2665    4.4608 H         1 RES1    0.0000
      6 H2         4.1038    8.2469    6.0716 H         1 RES1    0.0000
      7 C3         2.7976    9.6025    5.1681 C.3       1 RES1    0.0000
      8 C4         3.6506   10.8632    5.2094 C.3       1 RES1    0.0000
      9 H3         3.6156   11.4586    4.3782 H         1 RES1    0.0000
     10 H4         3.5232   11.3552    5.9890 H         1 RES1    0.0000
     11 O2         1.3598   10.4084    3.5562 O.2       1 RES1    0.0000
     12 N2         1.9631    9.4344    3.9207 N.pl3     1 RES1    0.0000
     13 O3         0.8837    8.6718    6.1129 O.2       1 RES1    0.0000
     14 N3         1.8569    9.3651    6.3122 N.pl3     1 RES1    0.0000
     15 O4         1.9504    8.3375    3.3931 O.2       1 RES1    0.0000
     16 O5         2.1773    9.8161    7.3603 O.2       1 RES1    0.0000
     17 C1A        7.0885    9.1775    5.2115 C.2       1 RES1    0.0000
     18 O1A        6.7126    8.0142    5.1389 O.2       1 RES1    0.0000
     19 N1A        8.3660    9.5297    5.2889 N.am      1 RES1    0.0000
     20 C2A        9.1221   10.7813    5.2528 C.3       1 RES1    0.0000
     21 H1A        9.0258   11.2575    4.4608 H         1 RES1    0.0000
     22 H2A        9.0918   11.2771    6.0716 H         1 RES1    0.0000
     23 C3A       10.3980    9.9215    5.1681 C.3       1 RES1    0.0000
     24 C4A        9.5450    8.6608    5.2094 C.3       1 RES1    0.0000
     25 H3A        9.5800    8.0654    4.3782 H         1 RES1    0.0000
     26 H4A        9.6724    8.1688    5.9890 H         1 RES1    0.0000
     27 N2A       11.2325   10.0896    3.9207 N.pl3     1 RES1    0.0000
     28 O2A       11.8358    9.1156    3.5562 O.2       1 RES1    0.0000
     29 O4A       11.2452   11.1865    3.3931 O.2       1 RES1    0.0000
     30 N3A       11.3387   10.1589    6.3122 N.pl3     1 RES1    0.0000
     31 O3A       12.3119   10.8522    6.1129 O.2       1 RES1    0.0000
     32 O5A       11.0183    9.7079    7.3603 O.2       1 RES1    0.0000
@<TRIPOS>BOND
     1    1    3 2
     2    2    3 1
     3    3   17 1
     4    4    2 1
     5    5    4 1
     6    6    4 1
     7    7    4 1
     8    8    2 1
     9    9    8 1
    10   10    8 1
    11   11   12 2
    12   12    7 1
    13   13   14 2
    14   14    7 1
    15   15   12 2
    16   16   14 2
    17   17   18 2
    18   19   17 1
    19   20   19 1
    20   21   20 1
    21   22   20 1
    22   23   20 1
    23   24   19 1
    24   25   24 1
    25   26   24 1
    26   27   23 1
    27   28   27 2
    28   29   27 2
    29   30   23 1
    30   31   30 2
    31   32   30 2
    32    7    8 1
    33   23   24 1
@<TRIPOS>SUBSTRUCTURE
     1 RES1 1

@<TRIPOS>CRYSIN
  13.1956   19.5240   10.3259  90.0000  90.0000  90.0000  43 1

