# MOL2 file generated by ConQuest
# Please check atom types

@<TRIPOS>MOLECULE
LOLJAX02
    32    33     1
SMALL
NO_CHARGES
****
Generated from CSD

@<TRIPOS>ATOM
      1 N1         4.6182   10.0657    6.8410 N.pl3     1 RES1    0.0000
      2 N2         4.7194   10.1393    9.2397 N.pl3     1 RES1    0.0000
      3 O1         5.2191    9.0989    6.4816 O.2       1 RES1    0.0000
      4 O2         4.6340   11.1636    6.3133 O.2       1 RES1    0.0000
      5 O3         5.6948   10.8285    9.0373 O.2       1 RES1    0.0000
      6 O4         4.4079    9.6800   10.3023 O.2       1 RES1    0.0000
      7 O5         0.1133    7.9969    8.0646 O.2       1 RES1    0.0000
      8 C1         3.7795    9.9023    8.0976 C.3       1 RES1    0.0000
      9 C2         2.5109   10.7600    8.1710 C.3       1 RES1    0.0000
     10 H1         2.4373   11.2926    8.9785 H         1 RES1    0.0000
     11 H2         2.3479   11.2965    7.3790 H         1 RES1    0.0000
     12 N3         1.7630    9.5053    8.2112 N.am      1 RES1    0.0000
     13 C3         2.9368    8.6402    8.1431 C.3       1 RES1    0.0000
     14 H3         2.9855    8.1017    7.3366 H         1 RES1    0.0000
     15 H4         3.0762    8.0998    8.9361 H         1 RES1    0.0000
     16 C4         0.4903    9.1583    8.1369 C.2       1 RES1    0.0000
     17 N1A       -4.6182    9.4143    6.8410 N.pl3     1 RES1    0.0000
     18 N2A       -4.7194    9.3407    9.2397 N.pl3     1 RES1    0.0000
     19 O1A       -5.2191   10.3811    6.4816 O.2       1 RES1    0.0000
     20 O2A       -4.6340    8.3164    6.3133 O.2       1 RES1    0.0000
     21 O3A       -5.6948    8.6515    9.0373 O.2       1 RES1    0.0000
     22 O4A       -4.4079    9.8000   10.3023 O.2       1 RES1    0.0000
     23 O5A       -0.1133   11.4831    8.0646 O.2       1 RES1    0.0000
     24 C1A       -3.7795    9.5777    8.0976 C.3       1 RES1    0.0000
     25 C2A       -2.5109    8.7200    8.1710 C.3       1 RES1    0.0000
     26 H1A       -2.4373    8.1874    8.9785 H         1 RES1    0.0000
     27 H2A       -2.3479    8.1835    7.3790 H         1 RES1    0.0000
     28 N3A       -1.7630    9.9747    8.2112 N.am      1 RES1    0.0000
     29 C3A       -2.9368   10.8398    8.1431 C.3       1 RES1    0.0000
     30 H3A       -2.9855   11.3783    7.3366 H         1 RES1    0.0000
     31 H4A       -3.0762   11.3802    8.9361 H         1 RES1    0.0000
     32 C4A       -0.4903   10.3217    8.1369 C.2       1 RES1    0.0000
@<TRIPOS>BOND
     1    1    3 2
     2    2    5 2
     3    4    1 2
     4    6    2 2
     5    7   16 2
     6    8    1 1
     7    9    8 1
     8   10    9 1
     9   11    9 1
    10   12    9 1
    11   13    8 1
    12   14   13 1
    13   15   13 1
    14   16   12 1
    15   17   19 2
    16   18   21 2
    17   20   17 2
    18   22   18 2
    19   23   32 2
    20   24   17 1
    21   25   24 1
    22   26   25 1
    23   27   25 1
    24   28   25 1
    25   29   24 1
    26   30   29 1
    27   31   29 1
    28   32   16 1
    29    2    8 1
    30   12   13 1
    31   18   24 1
    32   28   29 1
    33   28   32 1
@<TRIPOS>SUBSTRUCTURE
     1 RES1 1

@<TRIPOS>CRYSIN
  13.1460   19.4800   10.3260  90.0000  90.0000  90.0000  43 1

