# MOL2 file generated by ConQuest
# Please check atom types

@<TRIPOS>MOLECULE
LOLVEP
    52    55     1
SMALL
NO_CHARGES
****
Generated from CSD

@<TRIPOS>ATOM
      1 O1         5.5296   -0.4284    1.1457 O.3       1 RES1    0.0000
      2 H1         5.6284   -0.5215    0.0872 H         1 RES1    0.0000
      3 N1         6.6706    0.3509    1.6285 N.3       1 RES1    0.0000
      4 C1         6.2426    1.7434    2.0458 C.3       1 RES1    0.0000
      5 C2         5.1439    2.2803    1.1650 C.3       1 RES1    0.0000
      6 H2         4.3388    1.7560    1.2974 H         1 RES1    0.0000
      7 H3         5.4182    2.2246    0.2366 H         1 RES1    0.0000
      8 H4         4.9687    3.2062    1.3950 H         1 RES1    0.0000
      9 C3         7.5126    2.5798    1.8407 C.3       1 RES1    0.0000
     10 H5         7.7059    2.6460    0.8926 H         1 RES1    0.0000
     11 H6         8.2559    2.1528    2.2938 H         1 RES1    0.0000
     12 H7         7.3768    3.4677    2.2066 H         1 RES1    0.0000
     13 C4         5.8830    1.6010    3.5283 C.3       1 RES1    0.0000
     14 C5         5.9627    2.9061    4.3298 C.3       1 RES1    0.0000
     15 H8         5.7202    2.7341    5.2540 H         1 RES1    0.0000
     16 H9         5.3495    3.5565    3.9503 H         1 RES1    0.0000
     17 H10        6.8671    3.2542    4.2929 H         1 RES1    0.0000
     18 C6         4.5092    0.9499    3.7639 C.3       1 RES1    0.0000
     19 H11        4.4545    0.1205    3.2632 H         1 RES1    0.0000
     20 H12        3.8101    1.5531    3.4667 H         1 RES1    0.0000
     21 H13        4.3962    0.7653    4.7101 H         1 RES1    0.0000
     22 N2         7.0274    0.7441    3.9325 N.3       1 RES1    0.0000
     23 O2         6.7724    0.0564    5.1790 O.3       1 RES1    0.0000
     24 H14        7.3420    0.5919    5.7273 H         1 RES1    0.0000
     25 C7         7.1025   -0.3150    2.8944 C.3       1 RES1    0.0000
     26 H15        6.4694   -1.0422    3.1179 H         1 RES1    0.0000
     27 C8         8.4951   -0.8703    2.8188 C.2       1 RES1    0.0000
     28 C9         9.2228   -1.5052    3.8407 C.2       1 RES1    0.0000
     29 H16        8.8859   -1.6581    4.7039 H         1 RES1    0.0000
     30 N3        10.4396   -1.8653    3.4474 N.2       1 RES1    0.0000
     31 N4        10.4908   -1.4714    2.1566 N.pl3     1 RES1    0.0000
     32 C10        9.3548   -0.8717    1.7616 C.2       1 RES1    0.0000
     33 H17        9.1839   -0.5165    0.9071 H         1 RES1    0.0000
     34 C11       11.6696   -1.6461    1.3715 C.ar      1 RES1    0.0000
     35 C12       12.8800   -1.9456    1.9968 C.ar      1 RES1    0.0000
     36 H18       12.9195   -2.0689    2.9269 H         1 RES1    0.0000
     37 C13       14.0136   -2.0583    1.2331 C.ar      1 RES1    0.0000
     38 C14       15.3493   -2.3254    1.8687 C.3       1 RES1    0.0000
     39 H19       15.2365   -2.4297    2.8273 H         1 RES1    0.0000
     40 H20       15.9454   -1.5806    1.6918 H         1 RES1    0.0000
     41 H21       15.7273   -3.1372    1.4967 H         1 RES1    0.0000
     42 C15       13.8891   -1.8977   -0.1816 C.ar      1 RES1    0.0000
     43 C16       14.9723   -2.0175   -1.0753 C.ar      1 RES1    0.0000
     44 H22       15.8317   -2.2084   -0.7473 H         1 RES1    0.0000
     45 C17       14.7794   -1.8575   -2.4142 C.ar      1 RES1    0.0000
     46 H23       15.5111   -1.9421   -2.9996 H         1 RES1    0.0000
     47 C18       13.5150   -1.5700   -2.9332 C.ar      1 RES1    0.0000
     48 H24       13.3991   -1.4678   -3.8611 H         1 RES1    0.0000
     49 C19       12.4510   -1.4389   -2.0937 C.ar      1 RES1    0.0000
     50 H25       11.6012   -1.2374   -2.4412 H         1 RES1    0.0000
     51 C20       12.6211   -1.6038   -0.7041 C.ar      1 RES1    0.0000
     52 N5        11.4908   -1.4770    0.0816 N.ar      1 RES1    0.0000
@<TRIPOS>BOND
     1    1    2 1
     2    3    1 1
     3    4    3 1
     4    5    4 1
     5    6    5 1
     6    7    5 1
     7    8    5 1
     8    9    4 1
     9   10    9 1
    10   11    9 1
    11   12    9 1
    12   13    4 1
    13   14   13 1
    14   15   14 1
    15   16   14 1
    16   17   14 1
    17   18   13 1
    18   19   18 1
    19   20   18 1
    20   21   18 1
    21   22   13 1
    22   23   22 1
    23   24   23 1
    24   25    3 1
    25   26   25 1
    26   27   25 1
    27   28   27 1
    28   29   28 1
    29   30   28 2
    30   31   30 1
    31   32   27 2
    32   33   32 1
    33   34   31 1
    34   35   34 ar
    35   36   35 1
    36   37   35 ar
    37   38   37 1
    38   39   38 1
    39   40   38 1
    40   41   38 1
    41   42   37 ar
    42   43   42 ar
    43   44   43 1
    44   45   43 ar
    45   46   45 1
    46   47   45 ar
    47   48   47 1
    48   49   47 ar
    49   50   49 1
    50   51   42 ar
    51   52   34 ar
    52   22   25 1
    53   31   32 1
    54   49   51 ar
    55   51   52 ar
@<TRIPOS>SUBSTRUCTURE
     1 RES1 1

@<TRIPOS>CRYSIN
  13.1375    7.0467   20.8378  90.0000  95.0000  90.0000 231 1

