# MOL2 file generated by ConQuest
# Please check atom types

@<TRIPOS>MOLECULE
LOMPUY
    36    37     1
SMALL
NO_CHARGES
****
Generated from CSD

@<TRIPOS>ATOM
      1 C1         1.1258    6.0762    5.9529 C.2       1 RES1    0.0000
      2 C2         1.9582    5.1943    6.8129 C.2       1 RES1    0.0000
      3 C3         1.6746    3.8940    6.9017 C.2       1 RES1    0.0000
      4 H1         0.9048    3.6158    6.3999 H         1 RES1    0.0000
      5 C4         2.3411    2.8198    7.6460 C.ar      1 RES1    0.0000
      6 C5         3.6315    2.8706    8.1674 C.ar      1 RES1    0.0000
      7 H2         4.1516    3.6725    8.0765 H         1 RES1    0.0000
      8 C6         4.1553    1.7808    8.8168 C.ar      1 RES1    0.0000
      9 H3         5.0526    1.8411    9.1533 H         1 RES1    0.0000
     10 N1         3.4960    0.6340    8.9995 N.ar      1 RES1    0.0000
     11 C7         2.2676    0.5660    8.4771 C.ar      1 RES1    0.0000
     12 H4         1.7709   -0.2482    8.5917 H         1 RES1    0.0000
     13 C8         1.6774    1.6062    7.8112 C.ar      1 RES1    0.0000
     14 H5         0.7934    1.5050    7.4509 H         1 RES1    0.0000
     15 N2         1.2771    7.3277    6.1769 N.2       1 RES1    0.0000
     16 O1         0.4430    8.1265    5.3953 O.3       1 RES1    0.0000
     17 H6         0.5819    8.9438    5.5864 H         1 RES1    0.0000
     18 C9         0.1969    5.5182    4.9205 C.3       1 RES1    0.0000
     19 H7         0.1550    6.1176    4.1709 H         1 RES1    0.0000
     20 H8        -0.6795    5.4179    5.2994 H         1 RES1    0.0000
     21 H9         0.5201    4.6615    4.6283 H         1 RES1    0.0000
     22 C10        3.0289    5.8944    7.5913 C.ar      1 RES1    0.0000
     23 C11        4.1288    6.4319    6.9543 C.ar      1 RES1    0.0000
     24 H10        4.2070    6.3228    6.0035 H         1 RES1    0.0000
     25 C12        5.1111    7.1201    7.6522 C.ar      1 RES1    0.0000
     26 H11        5.8739    7.4740    7.1887 H         1 RES1    0.0000
     27 C13        5.0038    7.2817    9.0140 C.ar      1 RES1    0.0000
     28 C14        3.9023    6.7567    9.6613 C.ar      1 RES1    0.0000
     29 H12        3.8091    6.8799   10.6090 H         1 RES1    0.0000
     30 C15        2.9396    6.0689    8.9603 C.ar      1 RES1    0.0000
     31 H13        2.1922    5.6954    9.4331 H         1 RES1    0.0000
     32 O2         5.9096    7.9369    9.8027 O.3       1 RES1    0.0000
     33 C16        6.9731    8.6487    9.1544 C.3       1 RES1    0.0000
     34 H14        7.5055    9.0982    9.8141 H         1 RES1    0.0000
     35 H15        6.6019    9.2937    8.5483 H         1 RES1    0.0000
     36 H16        7.5220    8.0291    8.6671 H         1 RES1    0.0000
@<TRIPOS>BOND
     1    1    2 1
     2    2    3 2
     3    3    4 1
     4    5    3 1
     5    6    5 ar
     6    7    6 1
     7    8    6 ar
     8    9    8 1
     9   10    8 ar
    10   11   10 ar
    11   12   11 1
    12   13    5 ar
    13   14   13 1
    14   15    1 2
    15   16   15 1
    16   17   16 1
    17   18    1 1
    18   19   18 1
    19   20   18 1
    20   21   18 1
    21   22    2 1
    22   23   22 ar
    23   24   23 1
    24   25   23 ar
    25   26   25 1
    26   27   25 ar
    27   28   27 ar
    28   29   28 1
    29   30   22 ar
    30   31   30 1
    31   32   27 1
    32   33   32 1
    33   34   33 1
    34   35   33 1
    35   36   33 1
    36   11   13 ar
    37   28   30 ar
@<TRIPOS>SUBSTRUCTURE
     1 RES1 1

@<TRIPOS>CRYSIN
   7.3559   19.5451   10.4586  90.0000  99.1990  90.0000  14 1

