# MOL2 file generated by ConQuest
# Please check atom types

@<TRIPOS>MOLECULE
LONJAA
    19    19     1
SMALL
NO_CHARGES
****
Generated from CSD

@<TRIPOS>ATOM
      1 C1         4.1045   -0.4169    3.6512 C.ar      1 RES1    0.0000
      2 C2         2.3508   -0.0958    1.9944 C.ar      1 RES1    0.0000
      3 C3         2.1295   -1.8037    3.7163 C.ar      1 RES1    0.0000
      4 C4         1.6273   -1.1618    2.5991 C.ar      1 RES1    0.0000
      5 C5         3.3534   -1.4753    4.2445 C.ar      1 RES1    0.0000
      6 C6         3.6071    0.2825    2.5155 C.ar      1 RES1    0.0000
      7 N1         5.3581   -0.0489    4.2004 N.pl3     1 RES1    0.0000
      8 N2         1.7980    0.5867    0.8564 N.pl3     1 RES1    0.0000
      9 O1         4.2837    1.2586    1.9394 O.3       1 RES1    0.0000
     10 O2         0.4541   -1.6064    2.1517 O.3       1 RES1    0.0000
     11 O3         3.7747   -2.2013    5.2767 O.3       1 RES1    0.0000
     12 O4         5.8073   -0.6656    5.1724 O.2       1 RES1    0.0000
     13 O5         6.0158    0.8915    3.7098 O.2       1 RES1    0.0000
     14 O6         0.7322    0.1524    0.3805 O.2       1 RES1    0.0000
     15 O7         2.3458    1.5643    0.3853 O.2       1 RES1    0.0000
     16 H1         1.6297   -2.5394    4.1085 H         1 RES1    0.0000
     17 H2         5.0260    1.3737    2.3546 H         1 RES1    0.0000
     18 H3         4.5136   -1.9493    5.5173 H         1 RES1    0.0000
     19 H4         0.2890   -1.2625    1.4500 H         1 RES1    0.0000
@<TRIPOS>BOND
     1    1    5 ar
     2    2    4 ar
     3    3    4 ar
     4    4   10 1
     5    5    3 ar
     6    6    1 ar
     7    7    1 1
     8    8    2 1
     9    9    6 1
    10   10   19 1
    11   11    5 1
    12   12    7 2
    13   13    7 2
    14   14    8 2
    15   15    8 2
    16   16    3 1
    17   17    9 1
    18   18   11 1
    19    2    6 ar
@<TRIPOS>SUBSTRUCTURE
     1 RES1 1

@<TRIPOS>CRYSIN
   6.4015    4.8370   11.7979  90.0000  93.2480  90.0000   4 1

