# MOL2 file generated by ConQuest
# Please check atom types

@<TRIPOS>MOLECULE
LONQAG
    32    33     1
SMALL
NO_CHARGES
****
Generated from CSD

@<TRIPOS>ATOM
      1 C1         7.1712    3.8146   17.8053 C.3       1 RES1    0.0000
      2 C2         7.5705    3.9923   19.2627 C.3       1 RES1    0.0000
      3 H1         7.0976    3.3919   19.8341 H         1 RES1    0.0000
      4 H2         7.4460    4.9324   19.4747 H         1 RES1    0.0000
      5 H3         8.5897    3.8068   19.4369 H         1 RES1    0.0000
      6 C3         7.9579    4.6271   16.8173 C.2       1 RES1    0.0000
      7 N1         8.7517    5.5414   17.1671 N.2       1 RES1    0.0000
      8 O1         9.4687    6.0878   16.0795 O.3       1 RES1    0.0000
      9 H4        10.1075    6.5043   16.4827 H         1 RES1    0.0000
     10 C4         7.7802    4.0119   15.4364 C.3       1 RES1    0.0000
     11 H5         8.6492    3.7582   15.1436 H         1 RES1    0.0000
     12 C5         7.2542    4.8768   14.3372 C.2       1 RES1    0.0000
     13 O2         7.3192    4.5175   13.1674 O.2       1 RES1    0.0000
     14 O3         6.6812    5.9986   14.7069 O.3       1 RES1    0.0000
     15 H6         6.3094    6.4127   13.9064 H         1 RES1    0.0000
     16 C6         6.8401    2.8502   15.7716 C.3       1 RES1    0.0000
     17 H7         6.8393    2.1879   15.1172 H         1 RES1    0.0000
     18 C7         5.4592    3.4036   16.1101 C.3       1 RES1    0.0000
     19 H8         4.7547    2.6693   16.1252 H         1 RES1    0.0000
     20 H9         5.1046    4.0228   15.4349 H         1 RES1    0.0000
     21 C8         5.6925    4.1167   17.4756 C.3       1 RES1    0.0000
     22 H10        5.4976    5.1273   17.3829 H         1 RES1    0.0000
     23 H11        5.0498    3.6572   18.1678 H         1 RES1    0.0000
     24 C9         7.3842    2.3985   17.1617 C.3       1 RES1    0.0000
     25 C10        6.5113    1.2901   17.8123 C.3       1 RES1    0.0000
     26 H12        5.4819    1.7519   18.0487 H         1 RES1    0.0000
     27 H13        6.9223    1.2431   18.7371 H         1 RES1    0.0000
     28 H14        6.5325    0.5292   17.4264 H         1 RES1    0.0000
     29 C11        8.8370    1.9476   17.1617 C.3       1 RES1    0.0000
     30 H15        9.5095    2.7500   16.7172 H         1 RES1    0.0000
     31 H16        8.8762    0.9879   16.6624 H         1 RES1    0.0000
     32 H17        9.1462    1.7511   18.0260 H         1 RES1    0.0000
@<TRIPOS>BOND
     1    1    2 1
     2    2    3 1
     3    4    2 1
     4    5    2 1
     5    6    1 1
     6    7    6 2
     7    8    7 1
     8    9    8 1
     9   10    6 1
    10   11   10 1
    11   12   10 1
    12   13   12 2
    13   14   12 1
    14   15   14 1
    15   16   10 1
    16   17   16 1
    17   18   16 1
    18   19   18 1
    19   20   18 1
    20   21    1 1
    21   22   21 1
    22   23   21 1
    23   24    1 1
    24   25   24 1
    25   26   25 1
    26   27   25 1
    27   28   25 1
    28   29   24 1
    29   30   29 1
    30   31   29 1
    31   32   29 1
    32   16   24 1
    33   18   21 1
@<TRIPOS>SUBSTRUCTURE
     1 RES1 1

@<TRIPOS>CRYSIN
   7.8280    7.8280   18.9130  90.0000  90.0000  90.0000  76 1

