# MOL2 file generated by ConQuest
# Please check atom types

@<TRIPOS>MOLECULE
LONSAK
    26    27     1
SMALL
NO_CHARGES
****
Generated from CSD

@<TRIPOS>ATOM
      1 C1         5.0676    1.2683    3.8417 C.3       1 RES1    0.0000
      2 H1         5.7563    0.7593    3.3877 H         1 RES1    0.0000
      3 H2         4.8000    2.0066    3.2726 H         1 RES1    0.0000
      4 C2         5.5725    1.7759    5.1592 C.2       1 RES1    0.0000
      5 C3         3.6494    0.5279    5.6368 C.2       1 RES1    0.0000
      6 C4         3.8795    0.3873    4.1602 C.3       1 RES1    0.0000
      7 H3         3.0974    0.6768    3.6637 H         1 RES1    0.0000
      8 H4         4.0688   -0.5363    3.9310 H         1 RES1    0.0000
      9 C5         4.7611    1.7675    7.5154 C.2       1 RES1    0.0000
     10 C6         4.4700    0.7859    8.6021 C.ar      1 RES1    0.0000
     11 C7         4.7200   -0.5782    8.4682 C.ar      1 RES1    0.0000
     12 H5         5.0210   -0.9187    7.6577 H         1 RES1    0.0000
     13 C8         4.5201   -1.4270    9.5415 C.ar      1 RES1    0.0000
     14 H6         4.6918   -2.3373    9.4656 H         1 RES1    0.0000
     15 C9         4.0612   -0.8921   10.7295 C.ar      1 RES1    0.0000
     16 C10        3.8114    0.4559   10.8940 C.ar      1 RES1    0.0000
     17 H7         3.5080    0.7908   11.7060 H         1 RES1    0.0000
     18 C11        4.0238    1.2921    9.8190 C.ar      1 RES1    0.0000
     19 H8         3.8661    2.2045    9.9089 H         1 RES1    0.0000
     20 N1         4.6835    1.3228    6.1696 N.am      1 RES1    0.0000
     21 N2         3.8165   -1.7913   11.8786 N.pl3     1 RES1    0.0000
     22 O1         6.5594    2.4219    5.3747 O.2       1 RES1    0.0000
     23 O2         2.7404    0.0797    6.2922 O.2       1 RES1    0.0000
     24 O3         5.0671    2.9069    7.7581 O.2       1 RES1    0.0000
     25 O4         3.8522   -2.9862   11.6878 O.2       1 RES1    0.0000
     26 O5         3.5899   -1.2970   12.9627 O.2       1 RES1    0.0000
@<TRIPOS>BOND
     1    1    2 1
     2    3    1 1
     3    4    1 1
     4    5    6 1
     5    6    1 1
     6    7    6 1
     7    8    6 1
     8    9   10 1
     9   10   11 ar
    10   11   12 1
    11   13   11 ar
    12   14   13 1
    13   15   13 ar
    14   16   15 ar
    15   17   16 1
    16   18   10 ar
    17   19   18 1
    18   20    4 1
    19   21   15 1
    20   22    4 2
    21   23    5 2
    22   24    9 2
    23   25   21 2
    24   26   21 2
    25    5   20 1
    26    9   20 1
    27   16   18 ar
@<TRIPOS>SUBSTRUCTURE
     1 RES1 1

@<TRIPOS>CRYSIN
   7.2090    6.9917   21.9240  90.0000  97.6250  90.0000  14 1

