# MOL2 file generated by ConQuest
# Please check atom types

@<TRIPOS>MOLECULE
LOVJEN
    27    29     1
SMALL
USER_CHARGES
****
Generated from CSD

@<TRIPOS>ATOM
      1 O1         1.4608   10.6135    3.1974 O.2       1 RES1   -1.0000
      2 N1         0.6328    9.6266    3.2934 N.pl3     1 RES1    1.0000
      3 C1        -0.5429   10.3831    1.3105 C.ar      1 RES1    0.0000
      4 C2        -1.2441    8.3194    2.6697 C.ar      1 RES1    0.0000
      5 C3        -0.3881    9.4334    2.4401 C.ar      1 RES1    0.0000
      6 N2         0.0785    7.7228    4.6144 N.ar      1 RES1    0.0000
      7 C4        -0.9784    7.4701    3.7762 C.ar      1 RES1    0.0000
      8 C5        -2.3373    8.0078    1.8287 C.ar      1 RES1    0.0000
      9 H1        -2.5269    8.5509    1.0975 H         1 RES1    0.0000
     10 C6        -1.7005   11.1362    1.1700 C.ar      1 RES1    0.0000
     11 H2        -2.3842   11.0587    1.7957 H         1 RES1    0.0000
     12 C7        -3.1159    6.9150    2.0837 C.ar      1 RES1    0.0000
     13 H3        -3.8385    6.7254    1.5292 H         1 RES1    0.0000
     14 C8         0.8197    8.7389    4.3592 C.ar      1 RES1    0.0000
     15 H4         1.5377    8.8977    4.9275 H         1 RES1    0.0000
     16 C9        -1.7923    6.3464    3.9979 C.ar      1 RES1    0.0000
     17 H5        -1.6150    5.7830    4.7157 H         1 RES1    0.0000
     18 C10        0.4654   10.5151    0.3594 C.ar      1 RES1    0.0000
     19 H6         1.2477   10.0199    0.4446 H         1 RES1    0.0000
     20 C11        0.3128   11.3761   -0.7107 C.ar      1 RES1    0.0000
     21 H7         0.9867   11.4504   -1.3477 H         1 RES1    0.0000
     22 C12       -0.8355   12.1247   -0.8344 C.ar      1 RES1    0.0000
     23 H8        -0.9339   12.7123   -1.5490 H         1 RES1    0.0000
     24 C13       -2.8380    6.0770    3.1699 C.ar      1 RES1    0.0000
     25 H9        -3.3708    5.3319    3.3261 H         1 RES1    0.0000
     26 C14       -1.8376   12.0022    0.1008 C.ar      1 RES1    0.0000
     27 H10       -2.6142   12.5068    0.0128 H         1 RES1    0.0000
@<TRIPOS>BOND
     1    1    2 1
     2    2    5 ar
     3    3    5 1
     4    4    5 ar
     5    6    7 ar
     6    7    4 ar
     7    8    4 ar
     8    9    8 1
     9   10    3 ar
    10   11   10 1
    11   12    8 ar
    12   13   12 1
    13   14    2 ar
    14   15   14 1
    15   16    7 ar
    16   17   16 1
    17   18    3 ar
    18   19   18 1
    19   20   18 ar
    20   21   20 1
    21   22   20 ar
    22   23   22 1
    23   24   12 ar
    24   25   24 1
    25   26   10 ar
    26   27   26 1
    27    6   14 ar
    28   16   24 ar
    29   22   26 ar
@<TRIPOS>SUBSTRUCTURE
     1 RES1 1

@<TRIPOS>CRYSIN
   5.7701   16.0550   11.8792  90.0000 101.5680  90.0000  14 1

