# MOL2 file generated by ConQuest
# Please check atom types

@<TRIPOS>MOLECULE
LOVYAW
    54    57     1
SMALL
NO_CHARGES
****
Generated from CSD

@<TRIPOS>ATOM
      1 O1         9.8143    2.7120    7.7022 O.2       1 RES1    0.0000
      2 O2         7.2969    4.3152    2.1816 O.2       1 RES1    0.0000
      3 O3         8.7970   -1.4403    3.2204 O.2       1 RES1    0.0000
      4 O4         7.3997   -3.1332   11.0656 O.2       1 RES1    0.0000
      5 O5         9.4341   -2.9082   11.6856 O.2       1 RES1    0.0000
      6 O6         5.3383    9.1036    7.0763 O.2       1 RES1    0.0000
      7 O7         6.3902   10.1937    5.5435 O.2       1 RES1    0.0000
      8 O8         2.2190   -1.7442    0.3954 O.2       1 RES1    0.0000
      9 O9         3.4498   -2.9691   -0.8374 O.2       1 RES1    0.0000
     10 N1         8.4814   -2.5846   11.0027 N.pl3     1 RES1    0.0000
     11 N2         5.9961    9.1485    6.0439 N.pl3     1 RES1    0.0000
     12 N3         3.3051   -2.1670    0.0550 N.pl3     1 RES1    0.0000
     13 C1         8.5368    1.7430    5.9706 C.ar      1 RES1    0.0000
     14 C2         8.4154    0.5688    5.2428 C.ar      1 RES1    0.0000
     15 H1         8.6826   -0.2489    5.6222 H         1 RES1    0.0000
     16 C3         7.8940    0.6023    3.9431 C.ar      1 RES1    0.0000
     17 C4         7.5045    1.8093    3.3878 C.ar      1 RES1    0.0000
     18 H2         7.1388    1.8271    2.5225 H         1 RES1    0.0000
     19 C5         7.6503    2.9996    4.1031 C.ar      1 RES1    0.0000
     20 C6         8.1687    2.9637    5.3927 C.ar      1 RES1    0.0000
     21 H3         8.2725    3.7618    5.8785 H         1 RES1    0.0000
     22 C7         9.1572    1.7580    7.3416 C.2       1 RES1    0.0000
     23 C8         8.9712    0.5794    8.2489 C.ar      1 RES1    0.0000
     24 C9         9.9888    0.2682    9.1479 C.ar      1 RES1    0.0000
     25 H4        10.7821    0.7734    9.1519 H         1 RES1    0.0000
     26 C10        9.8367   -0.7785   10.0331 C.ar      1 RES1    0.0000
     27 H5        10.5300   -1.0090   10.6253 H         1 RES1    0.0000
     28 C11        8.6505   -1.4818   10.0353 C.ar      1 RES1    0.0000
     29 C12        7.6184   -1.1937    9.1636 C.ar      1 RES1    0.0000
     30 H6         6.8157   -1.6833    9.1864 H         1 RES1    0.0000
     31 C13        7.7991   -0.1654    8.2583 C.ar      1 RES1    0.0000
     32 H7         7.1196    0.0326    7.6396 H         1 RES1    0.0000
     33 C14        7.3232    4.2754    3.3952 C.2       1 RES1    0.0000
     34 C15        7.0124    5.5176    4.1642 C.ar      1 RES1    0.0000
     35 C16        6.1515    5.5162    5.2636 C.ar      1 RES1    0.0000
     36 H8         5.8172    4.7032    5.5982 H         1 RES1    0.0000
     37 C17        5.7893    6.7125    5.8632 C.ar      1 RES1    0.0000
     38 H9         5.1838    6.7249    6.5814 H         1 RES1    0.0000
     39 C18        6.3360    7.8827    5.3825 C.ar      1 RES1    0.0000
     40 C19        7.2114    7.9140    4.3119 C.ar      1 RES1    0.0000
     41 H10        7.5817    8.7249    4.0139 H         1 RES1    0.0000
     42 C20        7.5246    6.7194    3.6936 C.ar      1 RES1    0.0000
     43 H11        8.0920    6.7201    2.9437 H         1 RES1    0.0000
     44 C21        7.8640   -0.6623    3.1525 C.2       1 RES1    0.0000
     45 C22        6.6723   -0.9727    2.2958 C.ar      1 RES1    0.0000
     46 C23        5.4203   -0.4448    2.5798 C.ar      1 RES1    0.0000
     47 H12        5.3234    0.1740    3.2810 H         1 RES1    0.0000
     48 C24        4.3154   -0.8203    1.8413 C.ar      1 RES1    0.0000
     49 H13        3.4654   -0.4652    2.0294 H         1 RES1    0.0000
     50 C25        4.4910   -1.7288    0.8224 C.ar      1 RES1    0.0000
     51 C26        5.7201   -2.2752    0.5063 C.ar      1 RES1    0.0000
     52 H14        5.8090   -2.8906   -0.1993 H         1 RES1    0.0000
     53 C27        6.8140   -1.8908    1.2566 C.ar      1 RES1    0.0000
     54 H15        7.6603   -2.2513    1.0657 H         1 RES1    0.0000
@<TRIPOS>BOND
     1    1   22 2
     2    2   33 2
     3    3   44 2
     4    4   10 2
     5    5   10 2
     6    6   11 2
     7    7   11 2
     8    8   12 2
     9    9   12 2
    10   10   28 1
    11   11   39 1
    12   12   50 1
    13   13   14 ar
    14   14   15 1
    15   16   14 ar
    16   17   16 ar
    17   18   17 1
    18   19   17 ar
    19   20   13 ar
    20   21   20 1
    21   22   13 1
    22   23   22 1
    23   24   23 ar
    24   25   24 1
    25   26   24 ar
    26   27   26 1
    27   28   26 ar
    28   29   28 ar
    29   30   29 1
    30   31   23 ar
    31   32   31 1
    32   33   19 1
    33   34   33 1
    34   35   34 ar
    35   36   35 1
    36   37   35 ar
    37   38   37 1
    38   39   37 ar
    39   40   39 ar
    40   41   40 1
    41   42   34 ar
    42   43   42 1
    43   44   16 1
    44   45   44 1
    45   46   45 ar
    46   47   46 1
    47   48   46 ar
    48   49   48 1
    49   50   48 ar
    50   51   50 ar
    51   52   51 1
    52   53   45 ar
    53   54   53 1
    54   19   20 ar
    55   29   31 ar
    56   40   42 ar
    57   51   53 ar
@<TRIPOS>SUBSTRUCTURE
     1 RES1 1

@<TRIPOS>CRYSIN
  13.3520   12.0843   15.0708  90.0000  95.9940  90.0000 231 1

