# MOL2 file generated by ConQuest
# Please check atom types

@<TRIPOS>MOLECULE
LOXNER
    60    65     1
SMALL
NO_CHARGES
****
Generated from CSD

@<TRIPOS>ATOM
      1 O1         3.0341    2.0204   10.4199 O.3       1 RES1    0.0000
      2 O2         0.7479    0.0939   13.1658 O.3       1 RES1    0.0000
      3 O3        -1.7498   -0.1379   15.2307 O.3       1 RES1    0.0000
      4 N1         0.0350    0.8027   12.1264 N.3       1 RES1    0.0000
      5 C1         0.9282    1.8161   11.5130 C.3       1 RES1    0.0000
      6 C2        -1.1155    1.3878   12.8859 C.3       1 RES1    0.0000
      7 C3         2.2543    1.1448   11.2290 C.3       1 RES1    0.0000
      8 C4         0.2325    2.3501   10.2641 C.ar      1 RES1    0.0000
      9 C5         4.2699    1.4283   10.0766 C.3       1 RES1    0.0000
     10 C6         0.1324    1.5585    9.1434 C.ar      1 RES1    0.0000
     11 C7        -2.2077    0.3626   12.9287 C.ar      1 RES1    0.0000
     12 C8        -0.5440    1.7346   14.2934 C.3       1 RES1    0.0000
     13 C9         4.5063    3.5742    8.7174 C.ar      1 RES1    0.0000
     14 C10       -0.3548    3.6035   10.2544 C.ar      1 RES1    0.0000
     15 C11       -3.0176    0.0933   11.7639 C.ar      1 RES1    0.0000
     16 C12       -3.0604    0.9682   10.6597 C.ar      1 RES1    0.0000
     17 C13        5.0366    2.3654    9.1586 C.ar      1 RES1    0.0000
     18 C14        6.3115    1.9816    8.7381 C.ar      1 RES1    0.0000
     19 C15       -3.8652   -1.0410   11.7542 C.ar      1 RES1    0.0000
     20 C16        6.4899    3.9732    7.4217 C.ar      1 RES1    0.0000
     21 C17       -4.6740   -1.2428   10.5494 C.ar      1 RES1    0.0000
     22 C18        7.0155    2.7861    7.8724 C.ar      1 RES1    0.0000
     23 C19       -2.3576   -0.4178   14.0315 C.ar      1 RES1    0.0000
     24 C20        0.7980    0.9858   14.3058 C.3       1 RES1    0.0000
     25 C21       -0.5770    1.9857    8.0365 C.ar      1 RES1    0.0000
     26 C22        5.2420    4.3634    7.8573 C.ar      1 RES1    0.0000
     27 C23       -1.0679    4.0155    9.1379 C.ar      1 RES1    0.0000
     28 C24       -3.8791    0.7141    9.5818 C.ar      1 RES1    0.0000
     29 C25       -4.6803   -0.3791    9.5307 C.ar      1 RES1    0.0000
     30 C26       -3.8689   -1.8954   12.9204 C.ar      1 RES1    0.0000
     31 C27       -3.1916   -1.5445   14.0025 C.ar      1 RES1    0.0000
     32 C28       -1.4752    1.2399   15.3686 C.3       1 RES1    0.0000
     33 C29       -1.1741    3.1893    8.0227 C.ar      1 RES1    0.0000
     34 H1         1.0654    2.5514   12.1457 H         1 RES1    0.0000
     35 H2        -1.4331    2.2011   12.4407 H         1 RES1    0.0000
     36 H3         2.7176    0.9600   12.0616 H         1 RES1    0.0000
     37 H4         2.1089    0.3045   10.7672 H         1 RES1    0.0000
     38 H5         4.1156    0.5821    9.6286 H         1 RES1    0.0000
     39 H6         4.7870    1.2575   10.8789 H         1 RES1    0.0000
     40 H7         0.5467    0.7259    9.1310 H         1 RES1    0.0000
     41 H8        -0.4012    2.7005   14.3788 H         1 RES1    0.0000
     42 H9         3.6635    3.8471    9.0000 H         1 RES1    0.0000
     43 H10       -0.2726    4.1657   10.9905 H         1 RES1    0.0000
     44 H11       -2.5267    1.7305   10.6583 H         1 RES1    0.0000
     45 H12        6.6820    1.1847    9.0414 H         1 RES1    0.0000
     46 H13        6.9697    4.5066    6.8303 H         1 RES1    0.0000
     47 H14       -5.2056   -2.0045   10.4915 H         1 RES1    0.0000
     48 H15        7.8607    2.5227    7.5871 H         1 RES1    0.0000
     49 H16        1.5378    1.6072   14.2217 H         1 RES1    0.0000
     50 H17        0.9031    0.4841   15.1301 H         1 RES1    0.0000
     51 H18       -0.6405    1.4336    7.2907 H         1 RES1    0.0000
     52 H19        4.8896    5.1738    7.5664 H         1 RES1    0.0000
     53 H20       -1.4765    4.8505    9.1337 H         1 RES1    0.0000
     54 H21       -3.8835    1.3097    8.8677 H         1 RES1    0.0000
     55 H22       -5.2299   -0.5258    8.7946 H         1 RES1    0.0000
     56 H23       -4.3498   -2.6905   12.9108 H         1 RES1    0.0000
     57 H24       -3.2714   -2.0644   14.7703 H         1 RES1    0.0000
     58 H25       -1.0745    1.4001   16.2370 H         1 RES1    0.0000
     59 H26       -2.3058    1.7375   15.3258 H         1 RES1    0.0000
     60 H27       -1.6560    3.4668    7.2769 H         1 RES1    0.0000
@<TRIPOS>BOND
     1    1    7 1
     2    2    4 1
     3    3   23 1
     4    4    5 1
     5    5    7 1
     6    6    4 1
     7    7   36 1
     8    8    5 1
     9    9    1 1
    10   10    8 ar
    11   11    6 1
    12   12    6 1
    13   13   17 ar
    14   14    8 ar
    15   15   11 ar
    16   16   15 ar
    17   17    9 1
    18   18   17 ar
    19   19   15 ar
    20   20   22 ar
    21   21   19 ar
    22   22   18 ar
    23   23   11 ar
    24   24    2 1
    25   25   10 ar
    26   26   13 ar
    27   27   14 ar
    28   28   16 ar
    29   29   21 ar
    30   30   19 ar
    31   31   23 ar
    32   32    3 1
    33   33   25 ar
    34   34    5 1
    35   35    6 1
    36   37    7 1
    37   38    9 1
    38   39    9 1
    39   40   10 1
    40   41   12 1
    41   42   13 1
    42   43   14 1
    43   44   16 1
    44   45   18 1
    45   46   20 1
    46   47   21 1
    47   48   22 1
    48   49   24 1
    49   50   24 1
    50   51   25 1
    51   52   26 1
    52   53   27 1
    53   54   28 1
    54   55   29 1
    55   56   30 1
    56   57   31 1
    57   58   32 1
    58   59   32 1
    59   60   33 1
    60   12   24 1
    61   12   32 1
    62   20   26 ar
    63   27   33 ar
    64   28   29 ar
    65   30   31 ar
@<TRIPOS>SUBSTRUCTURE
     1 RES1 1

@<TRIPOS>CRYSIN
  13.9950    5.8680   14.5720  90.0000 108.9200  90.0000   4 1

