# MOL2 file generated by ConQuest
# Please check atom types

@<TRIPOS>MOLECULE
LOXPAP
    43    46     1
SMALL
NO_CHARGES
****
Generated from CSD

@<TRIPOS>ATOM
      1 O1         2.3831   -1.2832    5.3101 O.2       1 RES1    0.0000
      2 O2         1.9097   -5.1922   -0.9014 O.3       1 RES1    0.0000
      3 O3         2.6066   -3.4334    5.0591 O.2       1 RES1    0.0000
      4 O4        -0.9112   -3.7761   -0.0425 O.3       1 RES1    0.0000
      5 O5        -3.0428   -2.5999    2.5537 O.3       1 RES1    0.0000
      6 N1         1.9819   -2.3772    4.9086 N.pl3     1 RES1    0.0000
      7 N2        -0.2652   -4.7339    0.8358 N.3       1 RES1    0.0000
      8 C1         0.6870   -2.4269    4.2407 C.ar      1 RES1    0.0000
      9 C2         0.5016   -7.0289    1.0636 C.ar      1 RES1    0.0000
     10 C3        -0.8876   -3.6312    2.8896 C.ar      1 RES1    0.0000
     11 C4         0.3564   -3.5480    3.4976 C.ar      1 RES1    0.0000
     12 C5        -1.4385   -1.4454    3.8122 C.ar      1 RES1    0.0000
     13 C6        -2.3246   -4.0528   -0.0174 C.3       1 RES1    0.0000
     14 C7        -1.2052   -4.7868    1.9708 C.3       1 RES1    0.0000
     15 C8        -0.1421   -6.0322    0.1255 C.3       1 RES1    0.0000
     16 C9        -0.1026   -8.2624    1.3010 C.ar      1 RES1    0.0000
     17 C10       -2.6111   -4.6831    1.3492 C.3       1 RES1    0.0000
     18 C11        1.6354   -8.8905    2.8104 C.ar      1 RES1    0.0000
     19 C12        0.6497   -5.8117   -1.1601 C.3       1 RES1    0.0000
     20 C13       -1.7904   -2.5783    3.0961 C.ar      1 RES1    0.0000
     21 C14        2.2600   -7.6667    2.5788 C.ar      1 RES1    0.0000
     22 C15       -0.1824   -1.3578    4.3778 C.ar      1 RES1    0.0000
     23 C16        1.6962   -6.7489    1.7198 C.ar      1 RES1    0.0000
     24 C17        0.4544   -9.1715    2.1696 C.ar      1 RES1    0.0000
     25 C18       -3.5527   -3.8993    2.2313 C.3       1 RES1    0.0000
     26 H1         1.9257   -4.4496   -1.2450 H         1 RES1    0.0000
     27 H2         0.9674   -4.2431    3.4049 H         1 RES1    0.0000
     28 H3        -2.0450   -0.7470    3.9126 H         1 RES1    0.0000
     29 H4        -2.5640   -4.6636   -0.7296 H         1 RES1    0.0000
     30 H5        -2.8330   -3.2334   -0.1255 H         1 RES1    0.0000
     31 H6        -1.1095   -5.6365    2.4495 H         1 RES1    0.0000
     32 H7        -1.0388   -6.3522   -0.1062 H         1 RES1    0.0000
     33 H8        -0.8944   -8.4754    0.8628 H         1 RES1    0.0000
     34 H9        -2.9713   -5.5857    1.2160 H         1 RES1    0.0000
     35 H10        2.0146   -9.5088    3.3914 H         1 RES1    0.0000
     36 H11        0.7956   -6.6646   -1.5982 H         1 RES1    0.0000
     37 H12        0.1353   -5.2506   -1.7604 H         1 RES1    0.0000
     38 H13        3.0625   -7.4689    3.0073 H         1 RES1    0.0000
     39 H14        0.0752   -0.5946    4.8410 H         1 RES1    0.0000
     40 H15        2.1187   -5.9327    1.5770 H         1 RES1    0.0000
     41 H16        0.0266   -9.9823    2.3259 H         1 RES1    0.0000
     42 H17       -4.4053   -3.8031    1.7777 H         1 RES1    0.0000
     43 H18       -3.7054   -4.3944    3.0498 H         1 RES1    0.0000
@<TRIPOS>BOND
     1    1    6 2
     2    2   19 1
     3    3    6 2
     4    4    7 1
     5    5   20 1
     6    6    8 1
     7    7   14 1
     8    8   11 ar
     9    9   15 1
    10   10   11 ar
    11   11   27 1
    12   12   20 ar
    13   13    4 1
    14   14   10 1
    15   15    7 1
    16   16    9 ar
    17   17   13 1
    18   18   21 ar
    19   19   15 1
    20   20   10 ar
    21   21   23 ar
    22   22    8 ar
    23   23    9 ar
    24   24   16 ar
    25   25    5 1
    26   26    2 1
    27   28   12 1
    28   29   13 1
    29   30   13 1
    30   31   14 1
    31   32   15 1
    32   33   16 1
    33   34   17 1
    34   35   18 1
    35   36   19 1
    36   37   19 1
    37   38   21 1
    38   39   22 1
    39   40   23 1
    40   41   24 1
    41   42   25 1
    42   43   25 1
    43   12   22 ar
    44   14   17 1
    45   17   25 1
    46   18   24 ar
@<TRIPOS>SUBSTRUCTURE
     1 RES1 1

@<TRIPOS>CRYSIN
   7.5993   10.8104   19.3023  90.0000  90.0000  90.0000  19 1

