# MOL2 file generated by ConQuest
# Please check atom types

@<TRIPOS>MOLECULE
LOXPET
    45    48     1
SMALL
NO_CHARGES
****
Generated from CSD

@<TRIPOS>ATOM
      1 O1         2.5206    1.7619    5.7225 O.3       1 RES1    0.0000
      2 O2         0.5582   -1.0897    5.6091 O.3       1 RES1    0.0000
      3 O3         4.2675    4.3048    4.8184 O.3       1 RES1    0.0000
      4 O4         4.1807   -1.9629    1.5393 O.3       1 RES1    0.0000
      5 N1         2.4493    2.0200    4.2938 N.3       1 RES1    0.0000
      6 C1         3.2864   -1.8179    2.5673 C.ar      1 RES1    0.0000
      7 C2         2.7198   -0.5558    2.6886 C.ar      1 RES1    0.0000
      8 C3         1.1565    1.7356    6.2127 C.3       1 RES1    0.0000
      9 C4         3.4773    3.4107    1.9321 C.ar      1 RES1    0.0000
     10 C5         1.4654   -1.2885    4.5811 C.ar      1 RES1    0.0000
     11 C6         1.3173    1.1578    3.8932 C.3       1 RES1    0.0000
     12 C7         0.2888    1.2643    5.0450 C.3       1 RES1    0.0000
     13 C8         2.0976    3.4568    4.0750 C.3       1 RES1    0.0000
     14 C9        -0.3946   -0.0560    5.3165 C.3       1 RES1    0.0000
     15 C10        1.8104   -0.2702    3.7060 C.ar      1 RES1    0.0000
     16 C11        1.4492    4.6805    2.0033 C.ar      1 RES1    0.0000
     17 C12        2.3430    3.8237    2.6253 C.ar      1 RES1    0.0000
     18 C13        2.0375   -2.5484    4.4704 C.ar      1 RES1    0.0000
     19 C14        1.6963    5.1451    0.7222 C.ar      1 RES1    0.0000
     20 C15        2.9608   -2.8120    3.4714 C.ar      1 RES1    0.0000
     21 C16        4.9393   -3.1602    1.4787 C.3       1 RES1    0.0000
     22 C17        2.8283    4.7453    0.0395 C.ar      1 RES1    0.0000
     23 C18        2.8679    4.3762    5.0108 C.3       1 RES1    0.0000
     24 C19        3.7132    3.8698    0.6405 C.ar      1 RES1    0.0000
     25 H1         4.6443    4.3224    5.5485 H         1 RES1    0.0000
     26 H2         2.9513    0.1098    2.0823 H         1 RES1    0.0000
     27 H3         0.8838    2.6209    6.5027 H         1 RES1    0.0000
     28 H4         1.0769    1.1259    6.9639 H         1 RES1    0.0000
     29 H5         4.0789    2.8263    2.3327 H         1 RES1    0.0000
     30 H6         0.9227    1.4884    3.0576 H         1 RES1    0.0000
     31 H7        -0.3807    1.9476    4.8315 H         1 RES1    0.0000
     32 H8         1.1409    3.5678    4.2595 H         1 RES1    0.0000
     33 H9        -1.0001    0.0439    6.0677 H         1 RES1    0.0000
     34 H10       -0.9188   -0.3120    4.5416 H         1 RES1    0.0000
     35 H11        0.6773    4.9441    2.4487 H         1 RES1    0.0000
     36 H12        1.7993   -3.2185    5.0688 H         1 RES1    0.0000
     37 H13        1.0964    5.7306    0.3189 H         1 RES1    0.0000
     38 H14        3.3582   -3.6512    3.4108 H         1 RES1    0.0000
     39 H15        5.5298   -3.1284    0.7249 H         1 RES1    0.0000
     40 H16        4.3471   -3.9105    1.3917 H         1 RES1    0.0000
     41 H17        5.4546   -3.2525    2.2853 H         1 RES1    0.0000
     42 H18        2.9942    5.0617   -0.8198 H         1 RES1    0.0000
     43 H19        2.5757    5.2901    4.8658 H         1 RES1    0.0000
     44 H20        2.6614    4.1401    5.9280 H         1 RES1    0.0000
     45 H21        4.4701    3.5864    0.1819 H         1 RES1    0.0000
@<TRIPOS>BOND
     1    1    5 1
     2    2   10 1
     3    3   23 1
     4    4    6 1
     5    5   11 1
     6    6    7 ar
     7    7   15 ar
     8    8    1 1
     9    9   17 ar
    10   10   15 ar
    11   11   12 1
    12   12    8 1
    13   13    5 1
    14   14    2 1
    15   15   11 1
    16   16   17 ar
    17   17   13 1
    18   18   10 ar
    19   19   16 ar
    20   20    6 ar
    21   21    4 1
    22   22   19 ar
    23   23   13 1
    24   24    9 ar
    25   25    3 1
    26   26    7 1
    27   27    8 1
    28   28    8 1
    29   29    9 1
    30   30   11 1
    31   31   12 1
    32   32   13 1
    33   33   14 1
    34   34   14 1
    35   35   16 1
    36   36   18 1
    37   37   19 1
    38   38   20 1
    39   39   21 1
    40   40   21 1
    41   41   21 1
    42   42   22 1
    43   43   23 1
    44   44   23 1
    45   45   24 1
    46   12   14 1
    47   18   20 ar
    48   22   24 ar
@<TRIPOS>SUBSTRUCTURE
     1 RES1 1

@<TRIPOS>CRYSIN
   5.5654   10.9845   26.3586  90.0000  90.0000  90.0000  19 1

