# MOL2 file generated by ConQuest
# Please check atom types

@<TRIPOS>MOLECULE
LOYXAA
    19    20     1
SMALL
NO_CHARGES
****
Generated from CSD

@<TRIPOS>ATOM
      1 O1         2.6239    5.5429    7.1689 O.2       1 RES1    0.0000
      2 O2         1.3836    3.9518    6.4008 O.2       1 RES1    0.0000
      3 N1         1.6724    6.7514   12.1345 N.ar      1 RES1    0.0000
      4 N2         1.8436    4.6060    7.3340 N.pl3     1 RES1    0.0000
      5 C1         1.2485    5.5072   12.1833 C.ar      1 RES1    0.0000
      6 H1         0.9793    5.1638   13.0268 H         1 RES1    0.0000
      7 C2         2.0446    7.2245   10.9105 C.ar      1 RES1    0.0000
      8 H2         2.3439    8.1241   10.8572 H         1 RES1    0.0000
      9 C3         2.0184    6.4959    9.7555 C.ar      1 RES1    0.0000
     10 H3         2.2918    6.8889    8.9348 H         1 RES1    0.0000
     11 C4         1.5786    5.1477    9.7913 C.ar      1 RES1    0.0000
     12 C5         1.4522    4.2347    8.7056 C.ar      1 RES1    0.0000
     13 C6         0.9714    2.9591    8.8628 C.ar      1 RES1    0.0000
     14 H4         0.8935    2.3857    8.1089 H         1 RES1    0.0000
     15 C7         0.5948    2.4989   10.1342 C.ar      1 RES1    0.0000
     16 H5         0.2722    1.6114   10.2409 H         1 RES1    0.0000
     17 C8         0.6917    3.3217   11.2115 C.ar      1 RES1    0.0000
     18 H6         0.4379    3.0055   12.0710 H         1 RES1    0.0000
     19 C9         1.1672    4.6462   11.0646 C.ar      1 RES1    0.0000
@<TRIPOS>BOND
     1    1    4 2
     2    2    4 2
     3    3    5 ar
     4    4   12 1
     5    5    6 1
     6    7    3 ar
     7    8    7 1
     8    9    7 ar
     9   10    9 1
    10   11    9 ar
    11   12   11 ar
    12   13   12 ar
    13   14   13 1
    14   15   13 ar
    15   16   15 1
    16   17   15 ar
    17   18   17 1
    18   19    5 ar
    19   11   19 ar
    20   17   19 ar
@<TRIPOS>SUBSTRUCTURE
     1 RES1 1

@<TRIPOS>CRYSIN
   3.6912   14.5828   15.6660  90.0000  93.1640  90.0000 231 1

