# MOL2 file generated by ConQuest
# Please check atom types

@<TRIPOS>MOLECULE
LOZGOW
    41    43     1
SMALL
NO_CHARGES
****
Generated from CSD

@<TRIPOS>ATOM
      1 O1        11.8887   -0.4763   -1.3945 O.2       1 RES1    0.0000
      2 O2        13.1973   -1.4984   -0.0036 O.2       1 RES1    0.0000
      3 O3         6.5989   -1.2740    5.7047 O.2       1 RES1    0.0000
      4 O4         6.9334   -0.0322    7.4459 O.2       1 RES1    0.0000
      5 N1        12.1653   -0.8984   -0.2736 N.pl3     1 RES1    0.0000
      6 N2         9.0443    1.7920    2.3048 N.ar      1 RES1    0.0000
      7 N3         8.6973   -0.3868    4.0724 N.ar      1 RES1    0.0000
      8 N4         6.8929   -0.2142    6.2383 N.pl3     1 RES1    0.0000
      9 C1         9.6741    0.6246    2.1024 C.ar      1 RES1    0.0000
     10 C2         9.5227   -0.4729    3.0135 C.ar      1 RES1    0.0000
     11 C3        10.2503   -1.6837    2.8065 C.ar      1 RES1    0.0000
     12 C4        11.0930   -1.7784    1.7456 C.ar      1 RES1    0.0000
     13 C5        11.2061   -0.6886    0.8307 C.ar      1 RES1    0.0000
     14 C6        10.5375    0.5049    0.9454 C.ar      1 RES1    0.0000
     15 C7        10.6471    1.6652   -0.0027 C.3       1 RES1    0.0000
     16 C8         8.2357    1.9053    3.3700 C.ar      1 RES1    0.0000
     17 C9         8.0475    0.7708    4.2445 C.ar      1 RES1    0.0000
     18 C10        7.1776    0.9351    5.3683 C.ar      1 RES1    0.0000
     19 C11        6.5849    2.1277    5.6417 C.ar      1 RES1    0.0000
     20 C12        6.7822    3.2330    4.7626 C.ar      1 RES1    0.0000
     21 C13        7.5659    3.1698    3.6369 C.ar      1 RES1    0.0000
     22 C14        7.7443    4.3761    2.6995 C.3       1 RES1    0.0000
     23 C15        9.2307    4.7846    2.6303 C.3       1 RES1    0.0000
     24 C16        7.2062    4.0347    1.2918 C.3       1 RES1    0.0000
     25 C17        6.9586    5.6001    3.2110 C.3       1 RES1    0.0000
     26 H1        10.1480   -2.3996    3.3910 H         1 RES1    0.0000
     27 H2        11.5943   -2.5506    1.6158 H         1 RES1    0.0000
     28 H3         9.7804    1.8665   -0.3631 H         1 RES1    0.0000
     29 H4        10.9844    2.4312    0.4669 H         1 RES1    0.0000
     30 H5        11.2462    1.4385   -0.7176 H         1 RES1    0.0000
     31 H6         6.0528    2.2219    6.3987 H         1 RES1    0.0000
     32 H7         6.3588    4.0365    4.9616 H         1 RES1    0.0000
     33 H8         9.3300    5.5305    2.0336 H         1 RES1    0.0000
     34 H9         9.5354    5.0330    3.5063 H         1 RES1    0.0000
     35 H10        9.7509    4.0455    2.3074 H         1 RES1    0.0000
     36 H11        7.2930    4.8017    0.7214 H         1 RES1    0.0000
     37 H12        7.7101    3.3045    0.9251 H         1 RES1    0.0000
     38 H13        6.2813    3.7851    1.3545 H         1 RES1    0.0000
     39 H14        7.2754    5.8415    4.0846 H         1 RES1    0.0000
     40 H15        7.0868    6.3372    2.6091 H         1 RES1    0.0000
     41 H16        6.0247    5.3842    3.2584 H         1 RES1    0.0000
@<TRIPOS>BOND
     1    1    5 2
     2    2    5 2
     3    3    8 2
     4    4    8 2
     5    5   13 1
     6    6    9 ar
     7    7   10 ar
     8    8   18 1
     9    9   10 ar
    10   10   11 ar
    11   11   12 ar
    12   12   13 ar
    13   13   14 ar
    14   14    9 ar
    15   15   14 1
    16   16    6 ar
    17   17    7 ar
    18   18   17 ar
    19   19   18 ar
    20   20   19 ar
    21   21   16 ar
    22   22   21 1
    23   23   22 1
    24   24   22 1
    25   25   22 1
    26   26   11 1
    27   27   12 1
    28   28   15 1
    29   29   15 1
    30   30   15 1
    31   31   19 1
    32   32   20 1
    33   33   23 1
    34   34   23 1
    35   35   23 1
    36   36   24 1
    37   37   24 1
    38   38   24 1
    39   39   25 1
    40   40   25 1
    41   41   25 1
    42   16   17 ar
    43   20   21 ar
@<TRIPOS>SUBSTRUCTURE
     1 RES1 1

@<TRIPOS>CRYSIN
   9.0882    9.1625   10.1519  71.5460  82.9000  79.3770   2 1

