# MOL2 file generated by ConQuest
# Please check atom types

@<TRIPOS>MOLECULE
LOZGAI
    26    28     1
SMALL
NO_CHARGES
****
Generated from CSD

@<TRIPOS>ATOM
      1 O1         2.4054    3.5396    2.2691 O.2       1 RES1    0.0000
      2 O2         4.3793    4.3816    2.5409 O.2       1 RES1    0.0000
      3 N1         3.2615    4.0895    2.9406 N.pl3     1 RES1    0.0000
      4 N2         4.1699    4.1018    7.7646 N.ar      1 RES1    0.0000
      5 C1         2.9188    4.4563    4.3198 C.ar      1 RES1    0.0000
      6 C2         1.8125    5.2053    4.5316 C.ar      1 RES1    0.0000
      7 H1         1.2460    5.4393    3.8061 H         1 RES1    0.0000
      8 C3         1.5047    5.6400    5.8523 C.ar      1 RES1    0.0000
      9 H2         0.7318    6.1717    6.0041 H         1 RES1    0.0000
     10 C4         2.3025    5.3027    6.8975 C.ar      1 RES1    0.0000
     11 H3         2.0967    5.6211    7.7684 H         1 RES1    0.0000
     12 C5         3.4468    4.4761    6.7007 C.ar      1 RES1    0.0000
     13 C6         3.7780    4.0227    5.3775 C.ar      1 RES1    0.0000
     14 C6B        5.1986    3.2793    7.5290 C.ar      1 RES1    0.0000
     15 C1B        6.0577    2.8457    8.5867 C.ar      1 RES1    0.0000
     16 N1B        5.7150    3.2125    9.9659 N.pl3     1 RES1    0.0000
     17 O1B        6.5712    3.7624   10.6374 O.2       1 RES1    0.0000
     18 O2B        4.5972    2.9204   10.3656 O.2       1 RES1    0.0000
     19 C2B        7.1641    2.0967    8.3749 C.ar      1 RES1    0.0000
     20 H1B        7.7306    1.8627    9.1004 H         1 RES1    0.0000
     21 C3B        7.4718    1.6620    7.0542 C.ar      1 RES1    0.0000
     22 H2B        8.2448    1.1303    6.9024 H         1 RES1    0.0000
     23 C4B        6.6740    1.9993    6.0090 C.ar      1 RES1    0.0000
     24 H3B        6.8798    1.6809    5.1381 H         1 RES1    0.0000
     25 C5B        5.5298    2.8259    6.2059 C.ar      1 RES1    0.0000
     26 N2B        4.8067    3.2002    5.1420 N.ar      1 RES1    0.0000
@<TRIPOS>BOND
     1    1    3 2
     2    2    3 2
     3    3    5 1
     4    4   12 ar
     5    5    6 ar
     6    6    7 1
     7    8    6 ar
     8    9    8 1
     9   10    8 ar
    10   11   10 1
    11   12   10 ar
    12   13    5 ar
    13   14    4 ar
    14   15   14 ar
    15   16   15 1
    16   17   16 2
    17   18   16 2
    18   19   15 ar
    19   20   19 1
    20   21   19 ar
    21   22   21 1
    22   23   21 ar
    23   24   23 1
    24   25   14 ar
    25   26   13 ar
    26   12   13 ar
    27   23   25 ar
    28   25   26 ar
@<TRIPOS>SUBSTRUCTURE
     1 RES1 1

@<TRIPOS>CRYSIN
   5.7450    7.3020   13.1490  90.0000 101.0200  90.0000 231 1

