# MOL2 file generated by ConQuest
# Please check atom types

@<TRIPOS>MOLECULE
LOZZIJ
    30    32     1
SMALL
NO_CHARGES
****
Generated from CSD

@<TRIPOS>ATOM
      1 N1         3.7020    2.4919    7.5341 N.3       1 RES1    0.0000
      2 O1         3.7956    3.9585    7.5955 O.3       1 RES1    0.0000
      3 C1         2.6303    4.5185    6.9191 C.3       1 RES1    0.0000
      4 H1         2.9042    5.0202    6.1110 H         1 RES1    0.0000
      5 H2         2.1381    5.1297    7.5222 H         1 RES1    0.0000
      6 C2         1.7619    3.3241    6.5408 C.3       1 RES1    0.0000
      7 H3         1.2432    3.4988    5.7039 H         1 RES1    0.0000
      8 C3         0.8378    2.9461    7.7062 C.3       1 RES1    0.0000
      9 H4         0.1785    3.6867    7.8411 H         1 RES1    0.0000
     10 O2         0.1212    1.7514    7.4062 O.3       1 RES1    0.0000
     11 H5        -0.7031    1.9118    7.4044 H         1 RES1    0.0000
     12 C4         1.6595    2.7852    8.9925 C.3       1 RES1    0.0000
     13 H6         1.8350    3.6812    9.3765 H         1 RES1    0.0000
     14 H7         1.1284    2.2711    9.6522 H         1 RES1    0.0000
     15 C5         2.9962    2.0706    8.7635 C.3       1 RES1    0.0000
     16 H8         3.5844    2.2401    9.5416 H         1 RES1    0.0000
     17 H9         2.8317    1.0945    8.7178 H         1 RES1    0.0000
     18 C6         2.8694    2.2841    6.3113 C.3       1 RES1    0.0000
     19 C7         2.4974    0.8110    6.0971 C.3       1 RES1    0.0000
     20 H10        2.2373    0.3831    6.9508 H         1 RES1    0.0000
     21 H11        1.7509    0.7242    5.4523 H         1 RES1    0.0000
     22 C8         3.7802    0.1873    5.5389 C.3       1 RES1    0.0000
     23 H12        4.4110   -0.0328    6.2697 H         1 RES1    0.0000
     24 H13        3.5778   -0.6385    5.0316 H         1 RES1    0.0000
     25 C9         4.3647    1.2607    4.6199 C.3       1 RES1    0.0000
     26 H14        4.1290    1.0745    3.6766 H         1 RES1    0.0000
     27 H15        5.3505    1.2879    4.7015 H         1 RES1    0.0000
     28 C10        3.7503    2.5940    5.0764 C.3       1 RES1    0.0000
     29 H16        3.2014    2.9862    4.3521 H         1 RES1    0.0000
     30 H17        4.4637    3.2380    5.3153 H         1 RES1    0.0000
@<TRIPOS>BOND
     1    1    2 1
     2    2    3 1
     3    3    4 1
     4    5    3 1
     5    6    3 1
     6    7    6 1
     7    8    6 1
     8    9    8 1
     9   10    8 1
    10   11   10 1
    11   12    8 1
    12   13   12 1
    13   14   12 1
    14   15    1 1
    15   16   15 1
    16   17   15 1
    17   18    1 1
    18   19   18 1
    19   20   19 1
    20   21   19 1
    21   22   19 1
    22   23   22 1
    23   24   22 1
    24   25   22 1
    25   26   25 1
    26   27   25 1
    27   28   18 1
    28   29   28 1
    29   30   28 1
    30    6   18 1
    31   12   15 1
    32   25   28 1
@<TRIPOS>SUBSTRUCTURE
     1 RES1 1

@<TRIPOS>CRYSIN
   6.3034   18.2420    8.1740  90.0000 101.3760  90.0000 231 1

