# MOL2 file generated by ConQuest
# Please check atom types

@<TRIPOS>MOLECULE
LOZZEH
    26    27     1
SMALL
NO_CHARGES
****
Generated from CSD

@<TRIPOS>ATOM
      1 O1         7.7655    5.5533    3.3544 O.2       1 RES1    0.0000
      2 O2         6.8131    3.2893   -0.6546 O.2       1 RES1    0.0000
      3 O3         5.1287    2.2104    1.7067 O.2       1 RES1    0.0000
      4 N1         6.4074    4.0709    2.2355 N.am      1 RES1    0.0000
      5 N2         7.0914    5.2899    0.2527 N.3       1 RES1    0.0000
      6 O4         8.0715    4.7640   -1.6566 O.2       1 RES1    0.0000
      7 N3         7.3295    4.3971   -0.7427 N.pl3     1 RES1    0.0000
      8 C1         5.9269    2.7678    2.4220 C.2       1 RES1    0.0000
      9 C2         6.4745    1.0631    4.3019 C.ar      1 RES1    0.0000
     10 C3         6.0209    4.9733    1.1779 C.3       1 RES1    0.0000
     11 C4         6.5686    2.2791    3.6714 C.ar      1 RES1    0.0000
     12 C5         7.2561    4.4588    3.2793 C.2       1 RES1    0.0000
     13 C6         7.3592    3.2990    4.1919 C.ar      1 RES1    0.0000
     14 C7         8.0694    3.1402    5.3608 C.ar      1 RES1    0.0000
     15 C8         7.9810    1.9020    5.9950 C.ar      1 RES1    0.0000
     16 C9         7.7244    6.5772    0.1936 C.3       1 RES1    0.0000
     17 C10        7.2006    0.8852    5.4756 C.ar      1 RES1    0.0000
     18 H1         5.7389    5.8576    1.5730 H         1 RES1    0.0000
     19 H2         5.2546    4.6150    0.7074 H         1 RES1    0.0000
     20 H3         8.6700    3.8448    5.7334 H         1 RES1    0.0000
     21 H4         6.0021    0.4225    3.9650 H         1 RES1    0.0000
     22 H5         7.0845    0.0719    5.9289 H         1 RES1    0.0000
     23 H6         7.5134    7.1011    0.9587 H         1 RES1    0.0000
     24 H7         8.5001    1.7867    6.8131 H         1 RES1    0.0000
     25 H8         8.6353    6.4376   -0.0465 H         1 RES1    0.0000
     26 H9         7.3517    7.0392   -0.5585 H         1 RES1    0.0000
@<TRIPOS>BOND
     1    1   12 2
     2    2    7 2
     3    3    8 2
     4    4    8 1
     5    5    7 1
     6    6    7 2
     7    8   11 1
     8    9   11 ar
     9   10    4 1
    10   11   13 ar
    11   12    4 1
    12   13   12 1
    13   14   13 ar
    14   15   14 ar
    15   16    5 1
    16   17    9 ar
    17   18   10 1
    18   19   10 1
    19   20   14 1
    20   21    9 1
    21   22   17 1
    22   23   16 1
    23   24   15 1
    24   25   16 1
    25   26   16 1
    26    5   10 1
    27   15   17 ar
@<TRIPOS>SUBSTRUCTURE
     1 RES1 1

@<TRIPOS>CRYSIN
   7.6837    7.7146    9.5263  82.8120  78.5710  75.6110   2 1

