# MOL2 file generated by ConQuest
# Please check atom types

@<TRIPOS>MOLECULE
LUBBAL
    31    33     1
SMALL
NO_CHARGES
****
Generated from CSD

@<TRIPOS>ATOM
      1 C1         0.2565    1.8707    0.6242 C.3       1 RES1    0.0000
      2 H1        -0.1546    1.4973   -0.1948 H         1 RES1    0.0000
      3 H2         1.0296    2.4307    0.3641 H         1 RES1    0.0000
      4 N1        -0.0244    0.9478    2.7926 N.3       1 RES1    0.0000
      5 O1         0.6787    0.8012    1.5181 O.3       1 RES1    0.0000
      6 C2        -1.2854    0.1907    2.6828 C.3       1 RES1    0.0000
      7 H3        -1.7737    0.2679    3.5406 H         1 RES1    0.0000
      8 H4        -1.0665   -0.7653    2.5489 H         1 RES1    0.0000
      9 C3        -2.2277    0.6439    1.5388 C.3       1 RES1    0.0000
     10 H5        -1.9914    0.1524    0.7123 H         1 RES1    0.0000
     11 H6        -3.1592    0.4063    1.7755 H         1 RES1    0.0000
     12 C4        -2.1512    2.1260    1.2686 C.2       1 RES1    0.0000
     13 O2        -3.1179    2.8020    0.9756 O.2       1 RES1    0.0000
     14 C5        -0.7654    2.6968    1.4082 C.3       1 RES1    0.0000
     15 H7        -0.7246    3.6724    1.1893 H         1 RES1    0.0000
     16 C6        -0.3015    2.3870    2.8573 C.3       1 RES1    0.0000
     17 H8        -1.0471    2.5638    3.5001 H         1 RES1    0.0000
     18 C7         0.9240    3.2221    3.2353 C.3       1 RES1    0.0000
     19 H9         1.6171    3.1015    2.5385 H         1 RES1    0.0000
     20 H10        0.6670    4.1785    3.2395 H         1 RES1    0.0000
     21 C8         1.5215    2.8759    4.5774 C.ar      1 RES1    0.0000
     22 C9         2.5412    1.9325    4.6651 C.ar      1 RES1    0.0000
     23 H11        2.8404    1.4938    3.8774 H         1 RES1    0.0000
     24 C10        3.1272    1.6239    5.8821 C.ar      1 RES1    0.0000
     25 H12        3.8252    0.9807    5.9267 H         1 RES1    0.0000
     26 C11        2.6913    2.2581    7.0321 C.ar      1 RES1    0.0000
     27 H13        3.0960    2.0560    7.8668 H         1 RES1    0.0000
     28 C12        1.6682    3.1848    6.9697 C.ar      1 RES1    0.0000
     29 H14        1.3625    3.6093    7.7623 H         1 RES1    0.0000
     30 C13        1.0855    3.4950    5.7423 C.ar      1 RES1    0.0000
     31 H15        0.3846    4.1347    5.7018 H         1 RES1    0.0000
@<TRIPOS>BOND
     1    1    2 1
     2    3    1 1
     3    4    5 1
     4    5    1 1
     5    6    4 1
     6    7    6 1
     7    8    6 1
     8    9    6 1
     9   10    9 1
    10   11    9 1
    11   12    9 1
    12   13   12 2
    13   14    1 1
    14   15   14 1
    15   16    4 1
    16   17   16 1
    17   18   16 1
    18   19   18 1
    19   20   18 1
    20   21   18 1
    21   22   21 ar
    22   23   22 1
    23   24   22 ar
    24   25   24 1
    25   26   24 ar
    26   27   26 1
    27   28   26 ar
    28   29   28 1
    29   30   21 ar
    30   31   30 1
    31   12   14 1
    32   14   16 1
    33   28   30 ar
@<TRIPOS>SUBSTRUCTURE
     1 RES1 1

@<TRIPOS>CRYSIN
   6.7256   17.5126    9.4990  90.0000  97.8980  90.0000  14 2

