# MOL2 file generated by ConQuest
# Please check atom types

@<TRIPOS>MOLECULE
LUCWIR
    77    68     2
SMALL
NO_CHARGES
****
Generated from CSD

@<TRIPOS>ATOM
      1 O1         5.4159    4.1018    4.1201 O.3       1 RES1    0.0000
      2 N1         4.2872    4.4655    3.2125 N.3       1 RES1    0.0000
      3 C1         3.2718    3.3998    3.4231 C.3       1 RES1    0.0000
      4 N2         3.7277    2.3079    2.5288 N.am      1 RES1    0.0000
      5 C2         4.6909    2.6978    1.6762 C.2       1 RES1    0.0000
      6 C3         4.9026    4.1798    1.8957 C.3       1 RES1    0.0000
      7 C4         6.3520    4.6387    2.0053 C.3       1 RES1    0.0000
      8 C5         6.5514    4.7003    3.5268 C.3       1 RES1    0.0000
      9 C6         6.7131    6.1806    3.8133 C.3       1 RES1    0.0000
     10 N3         7.4032    6.6559    2.6258 N.3       1 RES1    0.0000
     11 C7         6.6469    6.0443    1.5326 C.3       1 RES1    0.0000
     12 H1         5.8438    6.5246    1.3670 H         1 RES1    0.0000
     13 H2         7.1722    6.0229    0.7389 H         1 RES1    0.0000
     14 C8         7.3137    8.1699    2.6588 C.3       1 RES1    0.0000
     15 C9         8.1301    8.6797    3.7618 C.ar      1 RES1    0.0000
     16 C10        7.6276    9.4687    4.8702 C.ar      1 RES1    0.0000
     17 H3         6.7460    9.8168    4.8059 H         1 RES1    0.0000
     18 C11        8.3352    9.8078    6.0196 C.ar      1 RES1    0.0000
     19 C12        9.6113    9.2807    6.2194 C.ar      1 RES1    0.0000
     20 C13       10.1837    8.5500    5.1671 C.ar      1 RES1    0.0000
     21 C14        9.4437    8.3324    4.0190 C.ar      1 RES1    0.0000
     22 H4         9.8328    7.7528    3.3704 H         1 RES1    0.0000
     23 H5        11.0860    8.2602    5.2301 H         1 RES1    0.0000
     24 H6        10.0865    9.4285    7.0295 H         1 RES1    0.0000
     25 H7         7.9604   10.3562    6.7025 H         1 RES1    0.0000
     26 H8         7.6378    8.5147    1.8323 H         1 RES1    0.0000
     27 H9         6.4084    8.4318    2.7779 H         1 RES1    0.0000
     28 H10        7.2411    6.3267    4.5896 H         1 RES1    0.0000
     29 H11        5.8718    6.6108    3.9191 H         1 RES1    0.0000
     30 H12        7.3321    4.2233    3.7809 H         1 RES1    0.0000
     31 H13        6.9265    3.9950    1.6038 H         1 RES1    0.0000
     32 H14        4.4639    4.6830    1.2179 H         1 RES1    0.0000
     33 O2         5.2571    1.9926    0.8449 O.2       1 RES1    0.0000
     34 C15        3.1491    0.9860    2.4932 C.3       1 RES1    0.0000
     35 H15        3.6006    0.4548    1.8432 H         1 RES1    0.0000
     36 H16        3.2262    0.5763    3.3485 H         1 RES1    0.0000
     37 H17        2.2320    1.0591    2.2592 H         1 RES1    0.0000
     38 C16        1.8607    3.9252    3.0325 C.3       1 RES1    0.0000
     39 C17        1.6583    4.3456    1.5484 C.3       1 RES1    0.0000
     40 C18        1.9199    5.8136    1.2681 C.3       1 RES1    0.0000
     41 H18        1.7925    5.9942    0.3421 H         1 RES1    0.0000
     42 H19        1.3229    6.3472    1.7817 H         1 RES1    0.0000
     43 H20        2.8151    6.0213    1.5094 H         1 RES1    0.0000
     44 C19        0.2416    3.9819    1.1098 C.3       1 RES1    0.0000
     45 H21        0.1184    4.2339    0.2012 H         1 RES1    0.0000
     46 H22       -0.3857    4.4433    1.6571 H         1 RES1    0.0000
     47 H23        0.1110    3.0418    1.2001 H         1 RES1    0.0000
     48 H24        2.2654    3.8341    1.0236 H         1 RES1    0.0000
     49 C20        1.4135    5.0156    4.0108 C.3       1 RES1    0.0000
     50 C21        1.4335    4.5492    5.4654 C.3       1 RES1    0.0000
     51 C22        2.7951    4.0049    5.8558 C.3       1 RES1    0.0000
     52 C23        3.2166    2.9154    4.8748 C.3       1 RES1    0.0000
     53 H25        4.0781    2.6075    5.1288 H         1 RES1    0.0000
     54 H26        2.5960    2.1962    4.9290 H         1 RES1    0.0000
     55 C24        2.7916    3.4688    7.2881 C.3       1 RES1    0.0000
     56 H27        3.6591    3.1371    7.4852 H         1 RES1    0.0000
     57 H28        2.5750    4.1724    7.8930 H         1 RES1    0.0000
     58 H29        2.1570    2.7652    7.3812 H         1 RES1    0.0000
     59 H30        3.4199    4.7200    5.7911 H         1 RES1    0.0000
     60 H31        1.2246    5.2848    6.0333 H         1 RES1    0.0000
     61 H32        0.7844    3.8637    5.5817 H         1 RES1    0.0000
     62 H33        2.0057    5.7553    3.9205 H         1 RES1    0.0000
     63 H34        0.5329    5.2881    3.7836 H         1 RES1    0.0000
     64 H35        1.2690    3.1945    3.1761 H         1 RES1    0.0000
     65 C25        7.6513    8.0204    2.4426 Du        2 SUP2    0.0000
     66 C26        7.2835    9.6017    4.2749 Du        2 SUP2    0.0000
     67 C27        7.7136   10.1411    5.4641 Du        2 SUP2    0.0000
     68 C28        8.8948    9.7380    6.0716 Du        2 SUP2    0.0000
     69 H36        9.1505   10.1116    6.9091 Du        2 SUP2    0.0000
     70 C29        9.7079    8.7988    5.4490 Du        2 SUP2    0.0000
     71 H37       10.5021    8.4975    5.8718 Du        2 SUP2    0.0000
     72 C30        9.3448    8.2052    4.2325 Du        2 SUP2    0.0000
     73 H38        9.9288    7.6641    3.7111 Du        2 SUP2    0.0000
     74 H39        7.1741   10.8004    5.8883 Du        2 SUP2    0.0000
     75 H40        6.4689    9.8464    3.8521 Du        2 SUP2    0.0000
     76 H41        8.3210    8.1354    1.7762 Du        2 SUP2    0.0000
     77 H42        6.8522    8.4523    2.1648 Du        2 SUP2    0.0000
@<TRIPOS>BOND
     1    1    2 1
     2    2    3 1
     3    3    4 1
     4    4    5 1
     5    5    6 1
     6    6    2 1
     7    7    6 1
     8    8    1 1
     9    9    8 1
    10   10    9 1
    11   11    7 1
    12   12   11 1
    13   13   11 1
    14   14   10 1
    15   15   14 1
    16   16   15 ar
    17   17   16 1
    18   18   16 ar
    19   19   18 ar
    20   20   19 ar
    21   21   15 ar
    22   22   21 1
    23   23   20 1
    24   24   19 1
    25   25   18 1
    26   26   14 1
    27   27   14 1
    28   28    9 1
    29   29    9 1
    30   30    8 1
    31   31    7 1
    32   32    6 1
    33   33    5 2
    34   34    4 1
    35   35   34 1
    36   36   34 1
    37   37   34 1
    38   38    3 1
    39   39   38 1
    40   40   39 1
    41   41   40 1
    42   42   40 1
    43   43   40 1
    44   44   39 1
    45   45   44 1
    46   46   44 1
    47   47   44 1
    48   48   39 1
    49   49   38 1
    50   50   49 1
    51   51   50 1
    52   52    3 1
    53   53   52 1
    54   54   52 1
    55   55   51 1
    56   56   55 1
    57   57   55 1
    58   58   55 1
    59   59   51 1
    60   60   50 1
    61   61   50 1
    62   62   49 1
    63   63   49 1
    64   64   38 1
    65    7    8 1
    66   10   11 1
    67   20   21 ar
    68   51   52 1
@<TRIPOS>SUBSTRUCTURE
     1 RES1 1
     2 SUP2 65

@<TRIPOS>CRYSIN
   9.7180    8.2101   13.9790  90.0000 101.7900  90.0000   4 1

