# MOL2 file generated by ConQuest
# Please check atom types

@<TRIPOS>MOLECULE
LUCXOY
    45    49     1
SMALL
NO_CHARGES
****
Generated from CSD

@<TRIPOS>ATOM
      1 C1         2.8563    4.3252    4.0558 C.3       1 RES1    0.0000
      2 H1         3.8514    1.6156    5.2919 H         1 RES1    0.0000
      3 N1         3.4810    2.2198    4.9005 N.am      1 RES1    0.0000
      4 O1         5.0412    3.5461    2.1805 O.2       1 RES1    0.0000
      5 C2         3.6554    5.1773    3.0482 C.3       1 RES1    0.0000
      6 H2         4.4156    5.5849    3.5123 H         1 RES1    0.0000
      7 N2         2.2076    5.3968    4.8156 N.3       1 RES1    0.0000
      8 O2         3.7225    4.4988    0.8111 O.2       1 RES1    0.0000
      9 C3         2.6952    6.2792    2.6168 C.3       1 RES1    0.0000
     10 H3         2.0493    5.9065    1.9818 H         1 RES1    0.0000
     11 N3         4.1718    4.3420    1.9176 N.pl3     1 RES1    0.0000
     12 O3         4.6793    4.0330    5.6648 O.2       1 RES1    0.0000
     13 C4         1.9736    6.5843    3.9380 C.3       1 RES1    0.0000
     14 H4         2.3910    7.3691    4.3516 H         1 RES1    0.0000
     15 C5         0.4676    6.7868    3.9155 C.3       1 RES1    0.0000
     16 H5         0.2420    7.7260    3.8296 H         1 RES1    0.0000
     17 H6         0.0599    6.2947    3.1855 H         1 RES1    0.0000
     18 C6         0.0300    6.2418    5.2482 C.3       1 RES1    0.0000
     19 H7         0.1124    6.9172    5.9384 H         1 RES1    0.0000
     20 H8        -0.8924    5.9437    5.2120 H         1 RES1    0.0000
     21 C7         0.9494    5.0883    5.5221 C.3       1 RES1    0.0000
     22 H9         1.1075    4.9977    6.4744 H         1 RES1    0.0000
     23 H10        0.5665    4.2615    5.1908 H         1 RES1    0.0000
     24 C8         3.3443    7.5014    1.9962 C.ar      1 RES1    0.0000
     25 C9         2.8525    8.0088    0.8031 C.ar      1 RES1    0.0000
     26 H11        2.1789    7.5574    0.3479 H         1 RES1    0.0000
     27 C10        3.3696    9.1955    0.2901 C.ar      1 RES1    0.0000
     28 H12        3.0226    9.5416   -0.5007 H         1 RES1    0.0000
     29 C11        4.3744    9.8553    0.9265 C.ar      1 RES1    0.0000
     30 H13        4.7130   10.6454    0.5713 H         1 RES1    0.0000
     31 C12        4.8831    9.3504    2.0921 C.ar      1 RES1    0.0000
     32 H14        5.5740    9.7955    2.5272 H         1 RES1    0.0000
     33 C13        4.3714    8.1775    2.6272 C.ar      1 RES1    0.0000
     34 H15        4.7235    7.8417    3.4206 H         1 RES1    0.0000
     35 C14        2.0261    3.2219    3.4420 C.ar      1 RES1    0.0000
     36 C15        1.0198    3.2324    2.4936 C.ar      1 RES1    0.0000
     37 H16        0.7088    4.0390    2.1511 H         1 RES1    0.0000
     38 C16        0.4780    2.0367    2.0563 C.ar      1 RES1    0.0000
     39 H17       -0.1963    2.0391    1.4153 H         1 RES1    0.0000
     40 C17        0.9374    0.8393    2.5703 C.ar      1 RES1    0.0000
     41 H18        0.5747    0.0422    2.2569 H         1 RES1    0.0000
     42 C18        1.9324    0.7987    3.5471 C.ar      1 RES1    0.0000
     43 H19        2.2284   -0.0069    3.9049 H         1 RES1    0.0000
     44 C19        2.4562    2.0010    3.9580 C.ar      1 RES1    0.0000
     45 C20        3.8094    3.5284    4.9821 C.2       1 RES1    0.0000
@<TRIPOS>BOND
     1    1    5 1
     2    2    3 1
     3    3   44 1
     4    4   11 2
     5    5    6 1
     6    7    1 1
     7    8   11 2
     8    9    5 1
     9   10    9 1
    10   11    5 1
    11   12   45 2
    12   13    7 1
    13   14   13 1
    14   15   13 1
    15   16   15 1
    16   17   15 1
    17   18   15 1
    18   19   18 1
    19   20   18 1
    20   21    7 1
    21   22   21 1
    22   23   21 1
    23   24    9 1
    24   25   24 ar
    25   26   25 1
    26   27   25 ar
    27   28   27 1
    28   29   27 ar
    29   30   29 1
    30   31   29 ar
    31   32   31 1
    32   33   24 ar
    33   34   33 1
    34   35    1 1
    35   36   35 ar
    36   37   36 1
    37   38   36 ar
    38   39   38 1
    39   40   38 ar
    40   41   40 1
    41   42   40 ar
    42   43   42 1
    43   44   35 ar
    44   45    1 1
    45    3   45 1
    46    9   13 1
    47   18   21 1
    48   31   33 ar
    49   42   44 ar
@<TRIPOS>SUBSTRUCTURE
     1 RES1 1

@<TRIPOS>CRYSIN
   7.4929    9.8033   23.5092  90.0000  90.0000  90.0000  19 1

