# MOL2 file generated by ConQuest
# Please check atom types

@<TRIPOS>MOLECULE
LUDBET
    31    32     1
SMALL
NO_CHARGES
****
Generated from CSD

@<TRIPOS>ATOM
      1 O1         4.3018    4.3528    2.9343 O.3       1 RES1    0.0000
      2 C1         3.4424    3.3199    3.3027 C.2       1 RES1    0.0000
      3 C2         4.2906    3.1639    5.6980 C.ar      1 RES1    0.0000
      4 C3         3.4543    2.8357    4.5366 C.2       1 RES1    0.0000
      5 H1         2.8223    2.1717    4.6950 H         1 RES1    0.0000
      6 O2         2.5930    4.0551   -0.0529 O.2       1 RES1    0.0000
      7 C4         2.5986    2.9163    2.1330 C.3       1 RES1    0.0000
      8 N1         3.9986    4.6623    1.5856 N.am      1 RES1    0.0000
      9 C5         5.3606    4.0416    5.6576 C.ar      1 RES1    0.0000
     10 H2         5.5657    4.4859    4.8659 H         1 RES1    0.0000
     11 C6         1.0980    3.0384    2.3988 C.3       1 RES1    0.0000
     12 H3         0.8432    2.4210    3.0877 H         1 RES1    0.0000
     13 H4         0.6127    2.8383    1.5958 H         1 RES1    0.0000
     14 H5         0.8948    3.9339    2.6789 H         1 RES1    0.0000
     15 C7         3.0243    3.9220    1.0792 C.2       1 RES1    0.0000
     16 C8         4.7206    5.7299    1.0318 C.3       1 RES1    0.0000
     17 H6         4.4888    6.5432    1.4849 H         1 RES1    0.0000
     18 H7         4.5069    5.8122    0.0993 H         1 RES1    0.0000
     19 H8         5.6614    5.5654    1.1316 H         1 RES1    0.0000
     20 C9         4.0222    2.5347    6.9035 C.ar      1 RES1    0.0000
     21 H9         3.3120    1.9368    6.9582 H         1 RES1    0.0000
     22 C10        2.9503    1.5137    1.6473 C.3       1 RES1    0.0000
     23 H10        3.8811    1.4798    1.4157 H         1 RES1    0.0000
     24 H11        2.4203    1.3000    0.8753 H         1 RES1    0.0000
     25 H12        2.7707    0.8794    2.3440 H         1 RES1    0.0000
     26 C11        5.8310    3.6303    7.9693 C.ar      1 RES1    0.0000
     27 H13        6.3455    3.7906    8.7272 H         1 RES1    0.0000
     28 C12        4.7840    2.7755    8.0145 C.ar      1 RES1    0.0000
     29 H14        4.5783    2.3447    8.8127 H         1 RES1    0.0000
     30 C13        6.1194    4.2587    6.7806 C.ar      1 RES1    0.0000
     31 H15        6.8420    4.8421    6.7365 H         1 RES1    0.0000
@<TRIPOS>BOND
     1    1    2 1
     2    2    4 2
     3    3    4 1
     4    4    5 1
     5    6   15 2
     6    7    2 1
     7    8    1 1
     8    9    3 ar
     9   10    9 1
    10   11    7 1
    11   12   11 1
    12   13   11 1
    13   14   11 1
    14   15    7 1
    15   16    8 1
    16   17   16 1
    17   18   16 1
    18   19   16 1
    19   20    3 ar
    20   21   20 1
    21   22    7 1
    22   23   22 1
    23   24   22 1
    24   25   22 1
    25   26   27 1
    26   28   20 ar
    27   29   28 1
    28   30    9 ar
    29   31   30 1
    30    8   15 1
    31   26   28 ar
    32   26   30 ar
@<TRIPOS>SUBSTRUCTURE
     1 RES1 1

@<TRIPOS>CRYSIN
   6.2138    8.4800   23.0940  90.0000  90.0000  90.0000  19 1

