# MOL2 file generated by ConQuest
# Please check atom types

@<TRIPOS>MOLECULE
LUDCIW
    25    25     1
SMALL
USER_CHARGES
****
Generated from CSD

@<TRIPOS>ATOM
      1 O1        13.4333    7.9807    1.8167 O.2       1 RES1   -1.0000
      2 O2        11.6471   10.3713    3.1808 O.2       1 RES1    0.0000
      3 O3        13.2677   12.2845    2.0882 O.2       1 RES1   -1.0000
      4 N1        12.3060    7.2362    1.2090 N.4       1 RES1    1.0000
      5 N2        12.7691   11.1764    1.3706 N.4       1 RES1    1.0000
      6 C1         9.8662    7.2931    0.7758 C.ar      1 RES1    0.0000
      7 C2        10.0443    6.8763   -0.5237 C.ar      1 RES1    0.0000
      8 C3         8.9401    6.2891   -1.1249 C.ar      1 RES1    0.0000
      9 C4         7.8182    6.0239   -0.4719 C.ar      1 RES1    0.0000
     10 C5         7.7291    6.4785    0.8405 C.ar      1 RES1    0.0000
     11 C6         8.7442    7.1794    1.4805 C.ar      1 RES1    0.0000
     12 C7        11.0594    8.0129    1.4611 C.3       1 RES1    0.0000
     13 C8        11.2375    9.4526    0.9504 C.3       1 RES1    0.0000
     14 C9        11.8964   10.3580    2.0106 C.2       1 RES1    0.0000
     15 C10       12.2526    5.8723    1.8684 C.3       1 RES1    0.0000
     16 H1        10.8635    6.9710   -0.9762 H         1 RES1    0.0000
     17 H2         8.9935    6.0807   -2.0429 H         1 RES1    0.0000
     18 H3         7.0880    5.5503   -0.8857 H         1 RES1    0.0000
     19 H4         6.9455    6.2891    1.3383 H         1 RES1    0.0000
     20 H5         8.6730    7.5393    2.3533 H         1 RES1    0.0000
     21 H6        10.8813    8.0318    2.5149 H         1 RES1    0.0000
     22 H7        10.2580    9.8504    0.7176 H         1 RES1    0.0000
     23 H8        11.8252    9.4336    0.0711 H         1 RES1    0.0000
     24 H9        12.3060   11.5363    0.5172 H         1 RES1    0.0000
     25 H10       13.6061   10.6081    1.1055 H         1 RES1    0.0000
@<TRIPOS>BOND
     1    1    4 1
     2    2   14 2
     3    3    5 1
     4    4   12 1
     5    5   14 1
     6    6    7 ar
     7    7    8 ar
     8    8    9 ar
     9    9   10 ar
    10   10   11 ar
    11   11    6 ar
    12   12    6 1
    13   13   12 1
    14   14   13 1
    15   15    4 1
    16   16    7 1
    17   17    8 1
    18   18    9 1
    19   19   10 1
    20   20   11 1
    21   21   12 1
    22   22   13 1
    23   23   13 1
    24   24    5 1
    25   25    5 1
@<TRIPOS>SUBSTRUCTURE
     1 RES1 1

@<TRIPOS>CRYSIN
  17.8090   18.9430    6.4650  90.0000  90.0000  90.0000  61 1

