# MOL2 file generated by ConQuest
# Please check atom types

@<TRIPOS>MOLECULE
LUFQIO
    36    36     1
SMALL
NO_CHARGES
****
Generated from CSD

@<TRIPOS>ATOM
      1 O1        -1.1404    2.8282    5.2955 O.2       1 RES1    0.0000
      2 N1        -0.5542    2.7375    6.4358 N.3       1 RES1    0.0000
      3 C1        -0.3340    4.0255    7.1645 C.3       1 RES1    0.0000
      4 C2         0.2020    5.0399    6.1592 C.3       1 RES1    0.0000
      5 H1         1.0164    4.6884    5.7424 H         1 RES1    0.0000
      6 H2         0.4076    5.8801    6.6203 H         1 RES1    0.0000
      7 H3        -0.4739    5.2041    5.4689 H         1 RES1    0.0000
      8 C3        -1.6674    4.5307    7.7307 C.3       1 RES1    0.0000
      9 H4        -2.3320    4.5740    7.0120 H         1 RES1    0.0000
     10 H5        -1.5420    5.4238    8.1145 H         1 RES1    0.0000
     11 H6        -1.9794    3.9160    8.4273 H         1 RES1    0.0000
     12 C4         0.7121    3.8109    8.2685 C.3       1 RES1    0.0000
     13 H7         1.6058    3.7131    7.8527 H         1 RES1    0.0000
     14 H8         0.7345    4.6099    8.8530 H         1 RES1    0.0000
     15 C5         0.4230    2.5890    9.1128 C.3       1 RES1    0.0000
     16 H9        -0.4388    2.6962    9.6086 H         1 RES1    0.0000
     17 C6         0.3963    1.3430    8.2474 C.3       1 RES1    0.0000
     18 H10        0.1909    0.5617    8.8200 H         1 RES1    0.0000
     19 H11        1.2971    1.2041    7.8601 H         1 RES1    0.0000
     20 C7        -0.6265    1.4023    7.1085 C.3       1 RES1    0.0000
     21 C8        -0.2604    0.3440    6.0665 C.3       1 RES1    0.0000
     22 H12       -0.9267    0.3487    5.3476 H         1 RES1    0.0000
     23 H13       -0.2432   -0.5392    6.4905 H         1 RES1    0.0000
     24 H14        0.6236    0.5448    5.6934 H         1 RES1    0.0000
     25 C9        -2.0570    1.1618    7.6150 C.3       1 RES1    0.0000
     26 H15       -2.2330    1.7422    8.3848 H         1 RES1    0.0000
     27 H16       -2.1548    0.2242    7.8846 H         1 RES1    0.0000
     28 H17       -2.6953    1.3644    6.9002 H         1 RES1    0.0000
     29 O2         1.5320    2.3609   10.0394 O.3       1 RES1    0.0000
     30 C10        1.5220    3.0347   11.2017 C.2       1 RES1    0.0000
     31 O3         0.6848    3.8478   11.5042 O.2       1 RES1    0.0000
     32 C11        2.6580    2.6152   12.0598 C.2       1 RES1    0.0000
     33 H18        3.4003    2.1693   11.6689 H         1 RES1    0.0000
     34 C12        2.6528    2.8512   13.3547 C.2       1 RES1    0.0000
     35 H19        1.9145    3.2960   13.7536 H         1 RES1    0.0000
     36 H20        3.3872    2.5763   13.8909 H         1 RES1    0.0000
@<TRIPOS>BOND
     1    1    2 1
     2    2    3 1
     3    3    4 1
     4    4    5 1
     5    6    4 1
     6    7    4 1
     7    8    3 1
     8    9    8 1
     9   10    8 1
    10   11    8 1
    11   12    3 1
    12   13   12 1
    13   14   12 1
    14   15   12 1
    15   16   15 1
    16   17   15 1
    17   18   17 1
    18   19   17 1
    19   20    2 1
    20   21   20 1
    21   22   21 1
    22   23   21 1
    23   24   21 1
    24   25   20 1
    25   26   25 1
    26   27   25 1
    27   28   25 1
    28   29   15 1
    29   30   29 1
    30   31   30 2
    31   32   30 1
    32   33   32 1
    33   34   32 2
    34   35   34 1
    35   36   34 1
    36   17   20 1
@<TRIPOS>SUBSTRUCTURE
     1 RES1 1

@<TRIPOS>CRYSIN
  10.2857   11.2109   11.5491  90.0000 112.8610  90.0000  14 1

