# MOL2 file generated by ConQuest
# Please check atom types

@<TRIPOS>MOLECULE
LUFXUH
    42    46     1
SMALL
NO_CHARGES
****
Generated from CSD

@<TRIPOS>ATOM
      1 N1         1.2291    5.5971    4.0164 N.pl3     1 RES1    0.0000
      2 N2        -0.2454    2.4367    0.6428 N.pl3     1 RES1    0.0000
      3 N3         2.3728    1.0611    0.8509 N.pl3     1 RES1    0.0000
      4 N4         2.9876    0.5036   -2.5985 N.2       1 RES1    0.0000
      5 N5         2.0762    2.1541   -1.2624 N.2       1 RES1    0.0000
      6 O1         1.9009    5.7883    5.0104 O.2       1 RES1    0.0000
      7 O2         0.3473    6.3368    3.6437 O.2       1 RES1    0.0000
      8 O3        -1.0191    3.2681    0.2010 O.2       1 RES1    0.0000
      9 O4        -0.3649    1.2334    0.4760 O.2       1 RES1    0.0000
     10 O5         2.3998    1.7783   -2.5707 O.3       1 RES1    0.0000
     11 C1         2.9326    2.5865    2.6513 C.ar      1 RES1    0.0000
     12 H1         3.7197    2.1084    2.7795 H         1 RES1    0.0000
     13 C2         2.6779    3.6977    3.4322 C.ar      1 RES1    0.0000
     14 H2         3.2743    3.9590    4.0965 H         1 RES1    0.0000
     15 C3         1.5198    4.4092    3.2024 C.ar      1 RES1    0.0000
     16 C4         0.5950    4.0378    2.2540 C.ar      1 RES1    0.0000
     17 H3        -0.1756    4.5390    2.1137 H         1 RES1    0.0000
     18 C5         0.8475    2.8970    1.5173 C.ar      1 RES1    0.0000
     19 C6         2.0317    2.1730    1.6801 C.ar      1 RES1    0.0000
     20 C7         2.8719   -0.1311    1.3579 C.2       1 RES1    0.0000
     21 C8         2.4512    1.1567   -0.5346 C.2       1 RES1    0.0000
     22 N1B        4.6505   -5.5971   -4.0164 N.pl3     1 RES1    0.0000
     23 N2B        6.1250   -2.4367   -0.6428 N.pl3     1 RES1    0.0000
     24 N3B        3.5068   -1.0611   -0.8509 N.pl3     1 RES1    0.0000
     25 N4B        2.8920   -0.5036    2.5985 N.2       1 RES1    0.0000
     26 N5B        3.8034   -2.1541    1.2624 N.2       1 RES1    0.0000
     27 O1B        3.9787   -5.7883   -5.0104 O.2       1 RES1    0.0000
     28 O2B        5.5323   -6.3368   -3.6437 O.2       1 RES1    0.0000
     29 O3B        6.8987   -3.2681   -0.2010 O.2       1 RES1    0.0000
     30 O4B        6.2445   -1.2334   -0.4760 O.2       1 RES1    0.0000
     31 O5B        3.4798   -1.7783    2.5707 O.3       1 RES1    0.0000
     32 C1B        2.9470   -2.5865   -2.6513 C.ar      1 RES1    0.0000
     33 H1B        2.1599   -2.1084   -2.7795 H         1 RES1    0.0000
     34 C2B        3.2017   -3.6977   -3.4322 C.ar      1 RES1    0.0000
     35 H2B        2.6053   -3.9590   -4.0965 H         1 RES1    0.0000
     36 C3B        4.3598   -4.4092   -3.2024 C.ar      1 RES1    0.0000
     37 C4B        5.2846   -4.0378   -2.2540 C.ar      1 RES1    0.0000
     38 H3B        6.0552   -4.5390   -2.1137 H         1 RES1    0.0000
     39 C5B        5.0321   -2.8970   -1.5173 C.ar      1 RES1    0.0000
     40 C6B        3.8479   -2.1730   -1.6801 C.ar      1 RES1    0.0000
     41 C7B        3.0077    0.1311   -1.3579 C.2       1 RES1    0.0000
     42 C8B        3.4284   -1.1567    0.5346 C.2       1 RES1    0.0000
@<TRIPOS>BOND
     1    1    6 2
     2    2    8 2
     3    3   19 1
     4    4   10 1
     5    5   10 1
     6    7    1 2
     7    9    2 2
     8   11   12 1
     9   13   11 ar
    10   14   13 1
    11   15    1 1
    12   16   15 ar
    13   17   16 1
    14   18    2 1
    15   19   11 ar
    16   20    3 1
    17   21    3 1
    18   22   27 2
    19   23   29 2
    20   24   40 1
    21   25   20 2
    22   26   31 1
    23   28   22 2
    24   30   23 2
    25   31   25 1
    26   32   33 1
    27   34   32 ar
    28   35   34 1
    29   36   22 1
    30   37   36 ar
    31   38   37 1
    32   39   23 1
    33   40   32 ar
    34   41    4 2
    35   42   20 1
    36    5   21 2
    37   13   15 ar
    38   16   18 ar
    39   18   19 ar
    40   21   41 1
    41   24   41 1
    42   24   42 1
    43   26   42 2
    44   34   36 ar
    45   37   39 ar
    46   39   40 ar
@<TRIPOS>SUBSTRUCTURE
     1 RES1 1

@<TRIPOS>CRYSIN
   5.8796    8.9227   18.3780  90.0000  98.1930  90.0000 231 1

