# MOL2 file generated by ConQuest
# Please check atom types

@<TRIPOS>MOLECULE
LUGBAR
    59    61     1
SMALL
NO_CHARGES
****
Generated from CSD

@<TRIPOS>ATOM
      1 N1         4.1249    4.6691    1.4967 N.ar      1 RES1    0.0000
      2 N2         6.4974    2.1149    0.8258 N.2       1 RES1    0.0000
      3 N3         9.9732   -1.8718    2.6820 N.pl3     1 RES1    0.0000
      4 N4         1.5946    7.1110    1.0710 N.2       1 RES1    0.0000
      5 N5        -1.7525   10.8791    3.5309 N.pl3     1 RES1    0.0000
      6 O1        11.1267   -1.5767    2.9526 O.2       1 RES1    0.0000
      7 O2         9.5376   -3.0080    2.7572 O.2       1 RES1    0.0000
      8 O3        -2.8780   10.5388    3.8308 O.2       1 RES1    0.0000
      9 O4        -1.3106   12.0013    3.7306 O.2       1 RES1    0.0000
     10 C1         8.7384    1.4177    1.4477 C.ar      1 RES1    0.0000
     11 C2         9.5854    0.4122    1.8782 C.ar      1 RES1    0.0000
     12 H1        10.5010    0.5647    1.9314 H         1 RES1    0.0000
     13 C3         9.0650   -0.8153    2.2265 C.ar      1 RES1    0.0000
     14 C4         7.7210   -1.0855    2.1564 C.ar      1 RES1    0.0000
     15 H2         7.4021   -1.9295    2.3838 H         1 RES1    0.0000
     16 C5         6.8419   -0.1003    1.7463 C.ar      1 RES1    0.0000
     17 C6         7.3686    1.1590    1.3883 C.ar      1 RES1    0.0000
     18 C7         9.2856    2.7637    1.0372 C.3       1 RES1    0.0000
     19 H3        10.2394    2.7671    1.1434 H         1 RES1    0.0000
     20 H4         8.8989    3.4478    1.5892 H         1 RES1    0.0000
     21 H5         9.0650    2.9309    0.1184 H         1 RES1    0.0000
     22 C8         5.3657   -0.3750    1.6612 C.3       1 RES1    0.0000
     23 H6         5.1905   -1.2761    1.9429 H         1 RES1    0.0000
     24 H7         5.0698   -0.2593    0.7551 H         1 RES1    0.0000
     25 H8         4.8933    0.2354    2.2324 H         1 RES1    0.0000
     26 C9         5.7778    2.9044    1.5281 C.2       1 RES1    0.0000
     27 C10        5.7941    2.9936    3.0130 C.3       1 RES1    0.0000
     28 H9         6.4497    2.3849    3.3626 H         1 RES1    0.0000
     29 H10        4.9284    2.7637    3.3577 H         1 RES1    0.0000
     30 H11        6.0169    3.8896    3.2771 H         1 RES1    0.0000
     31 C11        4.8224    3.7757    0.7758 C.ar      1 RES1    0.0000
     32 C12        4.6479    3.6238   -0.5873 C.ar      1 RES1    0.0000
     33 H12        5.1563    3.0059   -1.0611 H         1 RES1    0.0000
     34 C13        3.7128    4.4004   -1.2317 C.ar      1 RES1    0.0000
     35 H13        3.5746    4.3110   -2.1469 H         1 RES1    0.0000
     36 C14        2.9865    5.3091   -0.5003 C.ar      1 RES1    0.0000
     37 H14        2.3431    5.8412   -0.9114 H         1 RES1    0.0000
     38 C15        3.2251    5.4204    0.8530 C.ar      1 RES1    0.0000
     39 C16        2.4479    6.3933    1.6821 C.2       1 RES1    0.0000
     40 C17        2.7184    6.4281    3.1505 C.3       1 RES1    0.0000
     41 H15        2.1576    7.0883    3.5633 H         1 RES1    0.0000
     42 H16        3.6402    6.6516    3.3001 H         1 RES1    0.0000
     43 H17        2.5314    5.5666    3.5304 H         1 RES1    0.0000
     44 C18        0.7748    8.0510    1.7359 C.ar      1 RES1    0.0000
     45 C19        1.2165    9.3746    1.8623 C.ar      1 RES1    0.0000
     46 C20        0.3649   10.2913    2.4468 C.ar      1 RES1    0.0000
     47 H18        0.6354   11.1741    2.5549 H         1 RES1    0.0000
     48 C21       -0.8744    9.8985    2.8658 C.ar      1 RES1    0.0000
     49 C22       -1.3310    8.6102    2.7019 C.ar      1 RES1    0.0000
     50 H19       -2.1886    8.3797    2.9776 H         1 RES1    0.0000
     51 C23       -0.5052    7.6613    2.1256 C.ar      1 RES1    0.0000
     52 C24        2.5860    9.7682    1.3934 C.3       1 RES1    0.0000
     53 H20        2.7235   10.7050    1.5563 H         1 RES1    0.0000
     54 H21        2.6648    9.5927    0.4524 H         1 RES1    0.0000
     55 H22        3.2458    9.2600    1.8705 H         1 RES1    0.0000
     56 C25       -0.9572    6.2375    1.9501 C.3       1 RES1    0.0000
     57 H23       -1.8572    6.1449    2.2719 H         1 RES1    0.0000
     58 H24       -0.3780    5.6536    2.4463 H         1 RES1    0.0000
     59 H25       -0.9256    6.0050    1.0200 H         1 RES1    0.0000
@<TRIPOS>BOND
     1    1   31 ar
     2    2   17 1
     3    3    6 2
     4    4   39 2
     5    5    8 2
     6    7    3 2
     7    9    5 2
     8   10   11 ar
     9   11   12 1
    10   13    3 1
    11   14   13 ar
    12   15   14 1
    13   16   14 ar
    14   17   10 ar
    15   18   10 1
    16   19   18 1
    17   20   18 1
    18   21   18 1
    19   22   16 1
    20   23   22 1
    21   24   22 1
    22   25   22 1
    23   26    2 2
    24   27   26 1
    25   28   27 1
    26   29   27 1
    27   30   27 1
    28   31   26 1
    29   32   31 ar
    30   33   32 1
    31   34   32 ar
    32   35   34 1
    33   36   34 ar
    34   37   36 1
    35   38    1 ar
    36   39   38 1
    37   40   39 1
    38   41   40 1
    39   42   40 1
    40   43   40 1
    41   44    4 1
    42   45   44 ar
    43   46   45 ar
    44   47   46 1
    45   48    5 1
    46   49   48 ar
    47   50   49 1
    48   51   44 ar
    49   52   45 1
    50   53   52 1
    51   54   52 1
    52   55   52 1
    53   56   51 1
    54   57   56 1
    55   58   56 1
    56   59   56 1
    57   11   13 ar
    58   16   17 ar
    59   36   38 ar
    60   46   48 ar
    61   49   51 ar
@<TRIPOS>SUBSTRUCTURE
     1 RES1 1

@<TRIPOS>CRYSIN
   8.5098   17.0597   16.4601  90.0000  91.8960  90.0000  14 1

