# MOL2 file generated by ConQuest
# Please check atom types

@<TRIPOS>MOLECULE
LUHJUU
    42    44     1
SMALL
NO_CHARGES
****
Generated from CSD

@<TRIPOS>ATOM
      1 C1        -2.7398    7.5566   -0.6614 C.2       1 RES1    0.0000
      2 C2        -1.5576    8.4061   -0.5342 C.2       1 RES1    0.0000
      3 H1        -1.4607    9.1350   -1.1049 H         1 RES1    0.0000
      4 C3        -0.6299    8.1693    0.3608 C.2       1 RES1    0.0000
      5 H2         0.1003    8.7443    0.3982 H         1 RES1    0.0000
      6 C4        -0.6778    7.0330    1.3208 C.3       1 RES1    0.0000
      7 C5        -1.8872    6.1773    1.1542 C.2       1 RES1    0.0000
      8 H3        -1.9861    5.4377    1.7091 H         1 RES1    0.0000
      9 C6        -2.8279    6.4204    0.2543 C.2       1 RES1    0.0000
     10 H4        -3.5624    5.8531    0.2030 H         1 RES1    0.0000
     11 C7         0.6735    6.2206    1.4952 C.3       1 RES1    0.0000
     12 H5         0.5127    5.2540    1.5288 H         1 RES1    0.0000
     13 C8         0.7325    6.8309    2.8969 C.2       1 RES1    0.0000
     14 C9         1.7802    6.5631    0.5470 C.2       1 RES1    0.0000
     15 C10        2.7019    6.0524   -1.6165 C.3       1 RES1    0.0000
     16 H6         3.4766    6.5147   -1.2607 H         1 RES1    0.0000
     17 H7         3.0009    5.2078   -1.9891 H         1 RES1    0.0000
     18 C11        2.1195    6.8287   -2.6307 C.3       1 RES1    0.0000
     19 H8         1.2698    6.4528   -2.8722 H         1 RES1    0.0000
     20 H9         2.6953    6.8368   -3.3986 H         1 RES1    0.0000
     21 H10        1.9940    7.7264   -2.3143 H         1 RES1    0.0000
     22 C12       -1.2725    8.2982    3.5868 C.3       1 RES1    0.0000
     23 H11       -1.5018    9.1273    3.1374 H         1 RES1    0.0000
     24 H12       -0.7790    8.5193    4.3921 H         1 RES1    0.0000
     25 C13       -2.5419    7.5597    3.9594 C.ar      1 RES1    0.0000
     26 C14       -3.7380    7.8940    3.3660 C.ar      1 RES1    0.0000
     27 H13       -3.7665    8.6127    2.7766 H         1 RES1    0.0000
     28 C15       -4.8917    7.1920    3.6253 C.ar      1 RES1    0.0000
     29 H14       -5.6878    7.4355    3.2103 H         1 RES1    0.0000
     30 C16       -4.8665    6.1300    4.4995 C.ar      1 RES1    0.0000
     31 H15       -5.6364    5.6431    4.6838 H         1 RES1    0.0000
     32 C17       -3.6681    5.8079    5.0919 C.ar      1 RES1    0.0000
     33 C18       -2.5118    6.5041    4.8406 C.ar      1 RES1    0.0000
     34 H16       -1.7173    6.2654    5.2605 H         1 RES1    0.0000
     35 N1        -0.4418    7.4896    2.7174 N.am      1 RES1    0.0000
     36 N2        -3.6250    4.6610    6.0105 N.pl3     1 RES1    0.0000
     37 O1        -3.6181    7.7783   -1.4870 O.2       1 RES1    0.0000
     38 O2         1.4897    6.7840    3.8332 O.2       1 RES1    0.0000
     39 O3         2.5698    7.4422    0.7320 O.2       1 RES1    0.0000
     40 O4         1.7396    5.7949   -0.5263 O.3       1 RES1    0.0000
     41 O5        -4.6035    3.9772    6.1407 O.2       1 RES1    0.0000
     42 O6        -2.5754    4.4661    6.6246 O.2       1 RES1    0.0000
@<TRIPOS>BOND
     1    1    2 1
     2    2    3 1
     3    4    2 2
     4    5    4 1
     5    6    4 1
     6    7    6 1
     7    8    7 1
     8    9    1 1
     9   10    9 1
    10   11    6 1
    11   12   11 1
    12   13   11 1
    13   14   11 1
    14   15   16 1
    15   17   15 1
    16   18   15 1
    17   19   18 1
    18   20   18 1
    19   21   18 1
    20   22   23 1
    21   24   22 1
    22   25   22 1
    23   26   25 ar
    24   27   26 1
    25   28   26 ar
    26   29   28 1
    27   30   28 ar
    28   31   30 1
    29   32   30 ar
    30   33   25 ar
    31   34   33 1
    32   35    6 1
    33   36   32 1
    34   37    1 2
    35   38   13 2
    36   39   14 2
    37   40   14 1
    38   41   36 2
    39   42   36 2
    40    7    9 2
    41   13   35 1
    42   15   40 1
    43   22   35 1
    44   32   33 ar
@<TRIPOS>SUBSTRUCTURE
     1 RES1 1

@<TRIPOS>CRYSIN
   9.6009    9.9357   10.0350  95.5310  96.7550 110.3110   2 1

