# MOL2 file generated by ConQuest
# Please check atom types

@<TRIPOS>MOLECULE
LUJLEJ
    23    24     1
SMALL
NO_CHARGES
****
Generated from CSD

@<TRIPOS>ATOM
      1 O1         5.4763    3.4934    9.8188 O.2       1 RES1    0.0000
      2 O2         5.8321    5.2274    8.5477 O.2       1 RES1    0.0000
      3 O3         0.6537   -2.4498    5.3694 O.2       1 RES1    0.0000
      4 O4        -0.5880   -2.2234    7.1449 O.2       1 RES1    0.0000
      5 O5         1.4614   -3.8471    8.1203 O.2       1 RES1    0.0000
      6 O6         2.5253   -3.2660    9.9281 O.2       1 RES1    0.0000
      7 N1         3.0058    2.1195    6.9667 N.3       1 RES1    0.0000
      8 N2         4.0540    1.5118    8.8044 N.3       1 RES1    0.0000
      9 N3         4.4231    3.7478    7.8113 N.2       1 RES1    0.0000
     10 N4         5.2625    4.1302    8.7776 N.pl3     1 RES1    0.0000
     11 N5         2.0451   -3.0185    8.8240 N.pl3     1 RES1    0.0000
     12 N6         0.4469   -2.0634    6.5141 N.pl3     1 RES1    0.0000
     13 C1         3.8854    2.5230    7.9215 C.2       1 RES1    0.0000
     14 C2         3.2717    0.4344    8.3997 C.ar      1 RES1    0.0000
     15 C3         2.6006    0.8354    7.2355 C.ar      1 RES1    0.0000
     16 C4         1.7097   -0.0059    6.5778 C.ar      1 RES1    0.0000
     17 C5         1.5069   -1.2447    7.1503 C.ar      1 RES1    0.0000
     18 C6         2.1969   -1.6583    8.3005 C.ar      1 RES1    0.0000
     19 C7         3.1006   -0.8287    8.9428 C.ar      1 RES1    0.0000
     20 H1         3.5073   -1.0882    9.7123 H         1 RES1    0.0000
     21 H2         1.2591    0.2595    5.8235 H         1 RES1    0.0000
     22 H3         4.6038    1.5486    9.4404 H         1 RES1    0.0000
     23 H4         2.7606    2.6033    6.2651 H         1 RES1    0.0000
@<TRIPOS>BOND
     1    1   10 2
     2    2   10 2
     3    3   12 2
     4    4   12 2
     5    5   11 2
     6    6   11 2
     7    7   13 1
     8    8   13 1
     9    9   10 1
    10   11   18 1
    11   12   17 1
    12   13    9 2
    13   14    8 1
    14   15    7 1
    15   16   15 ar
    16   17   16 ar
    17   18   17 ar
    18   19   14 ar
    19   20   19 1
    20   21   16 1
    21   22    8 1
    22   23    7 1
    23   14   15 ar
    24   18   19 ar
@<TRIPOS>SUBSTRUCTURE
     1 RES1 1

@<TRIPOS>CRYSIN
   8.8823    8.3708   12.9908  90.0000  94.5560  90.0000 231 1

