# MOL2 file generated by ConQuest
# Please check atom types

@<TRIPOS>MOLECULE
LUJMIO
    17    18     1
SMALL
NO_CHARGES
****
Generated from CSD

@<TRIPOS>ATOM
      1 N1         1.6153    4.0417    1.5699 N.3       1 RES1    0.0000
      2 C1         1.9868    0.5902    2.8513 C.ar      1 RES1    0.0000
      3 N2         3.7834    4.2472    2.1759 N.2       1 RES1    0.0000
      4 C2         1.2818    1.6328    2.2969 C.ar      1 RES1    0.0000
      5 C3         3.3422    0.7170    3.2297 C.ar      1 RES1    0.0000
      6 C4         1.9829    2.8286    2.1161 C.ar      1 RES1    0.0000
      7 C5         4.0310    1.8940    3.0707 C.ar      1 RES1    0.0000
      8 C6         3.3396    2.9693    2.4885 C.ar      1 RES1    0.0000
      9 C7         2.7286    4.8001    1.6460 C.2       1 RES1    0.0000
     10 N3         2.7444    6.1370    1.1084 N.pl3     1 RES1    0.0000
     11 O1         3.7396    6.8191    1.3156 O.2       1 RES1    0.0000
     12 O2         1.7650    6.4965    0.4541 O.2       1 RES1    0.0000
     13 H1         1.5109   -0.2710    2.9890 H         1 RES1    0.0000
     14 H2         3.7520   -0.0527    3.6128 H         1 RES1    0.0000
     15 H3         0.3446    1.4943    2.0311 H         1 RES1    0.0000
     16 H4         4.9865    2.0287    3.3381 H         1 RES1    0.0000
     17 H5         0.8119    4.3473    1.3590 H         1 RES1    0.0000
@<TRIPOS>BOND
     1    1    6 1
     2    2    4 ar
     3    3    8 1
     4    4    6 ar
     5    5    2 ar
     6    6    8 ar
     7    7    5 ar
     8    8    7 ar
     9    9    1 1
    10   10    9 1
    11   11   10 2
    12   12   10 2
    13   13    2 1
    14   14    5 1
    15   15    4 1
    16   16    7 1
    17   17    1 1
    18    3    9 2
@<TRIPOS>SUBSTRUCTURE
     1 RES1 1

@<TRIPOS>CRYSIN
  19.4708   37.6390    3.7131  90.0000  90.0000  90.0000  43 1

