# MOL2 file generated by ConQuest
# Please check atom types

@<TRIPOS>MOLECULE
LUJPIR
    38    40     1
SMALL
NO_CHARGES
****
Generated from CSD

@<TRIPOS>ATOM
      1 O1         1.5684    0.4024   -1.5954 O.2       1 RES1    0.0000
      2 O2         1.6138    0.3946    0.5259 O.2       1 RES1    0.0000
      3 O3         3.9417    0.3236    1.8816 O.3       1 RES1    0.0000
      4 N1         2.1665    0.3421   -0.5482 N.pl3     1 RES1    0.0000
      5 C1         7.2690    1.5854   -3.3580 C.3       1 RES1    0.0000
      6 H1         7.6636    1.6323   -4.2329 H         1 RES1    0.0000
      7 H2         7.9631    1.5400   -2.6971 H         1 RES1    0.0000
      8 H3         6.7331    2.3675   -3.2075 H         1 RES1    0.0000
      9 C2         6.3958    0.3463   -3.2629 C.3       1 RES1    0.0000
     10 C3         5.6642    0.3626   -1.9128 C.ar      1 RES1    0.0000
     11 C4         6.4107    0.3449   -0.7307 C.ar      1 RES1    0.0000
     12 H4         7.3395    0.3421   -0.7719 H         1 RES1    0.0000
     13 C5         5.7793    0.3328    0.5004 C.ar      1 RES1    0.0000
     14 C6         6.2394    0.3265    1.8713 C.ar      1 RES1    0.0000
     15 C7         5.0927    0.3385    2.6608 C.ar      1 RES1    0.0000
     16 C8         5.1081    0.3123    4.0326 C.ar      1 RES1    0.0000
     17 H5         4.3184    0.2704    4.5227 H         1 RES1    0.0000
     18 C9         6.3465    0.3499    4.6630 C.ar      1 RES1    0.0000
     19 C10        6.4383    0.3272    6.1604 C.3       1 RES1    0.0000
     20 H6         5.6463   -0.0752    6.5237 H         1 RES1    0.0000
     21 H7         6.5210    1.2256    6.4897 H         1 RES1    0.0000
     22 H8         7.2069   -0.1831    6.4263 H         1 RES1    0.0000
     23 C11        7.2783   -0.9219   -3.3422 C.3       1 RES1    0.0000
     24 H9         6.7242   -1.7025   -3.2607 H         1 RES1    0.0000
     25 H10        7.9201   -0.9098   -2.6280 H         1 RES1    0.0000
     26 H11        7.7367   -0.9410   -4.1854 H         1 RES1    0.0000
     27 C12        4.2746    0.3257   -1.8052 C.ar      1 RES1    0.0000
     28 H12        3.7647    0.2846   -2.5816 H         1 RES1    0.0000
     29 C13        3.6266    0.3492   -0.5772 C.ar      1 RES1    0.0000
     30 C14        4.3728    0.3272    0.5815 C.ar      1 RES1    0.0000
     31 C15        7.4750    0.3222    2.5047 C.ar      1 RES1    0.0000
     32 H13        8.2637    0.3250    2.0101 H         1 RES1    0.0000
     33 C16        7.5055    0.3144    3.8787 C.ar      1 RES1    0.0000
     34 H14        8.3311    0.2846    4.3065 H         1 RES1    0.0000
     35 C17        5.4306    0.3158   -4.4389 C.3       1 RES1    0.0000
     36 H15        5.9265    0.2455   -5.2583 H         1 RES1    0.0000
     37 H16        4.9110    1.1234   -4.4468 H         1 RES1    0.0000
     38 H17        4.8447   -0.4400   -4.3529 H         1 RES1    0.0000
@<TRIPOS>BOND
     1    1    4 2
     2    2    4 2
     3    3   15 1
     4    4   29 1
     5    5    6 1
     6    7    5 1
     7    8    5 1
     8    9    5 1
     9   10    9 1
    10   11   10 ar
    11   12   11 1
    12   13   11 ar
    13   14   13 1
    14   15   14 ar
    15   16   15 ar
    16   17   16 1
    17   18   16 ar
    18   19   18 1
    19   20   19 1
    20   21   19 1
    21   22   19 1
    22   23    9 1
    23   24   23 1
    24   25   23 1
    25   26   23 1
    26   27   10 ar
    27   28   27 1
    28   29   27 ar
    29   30    3 1
    30   31   14 ar
    31   32   31 1
    32   33   18 ar
    33   34   33 1
    34   35    9 1
    35   36   35 1
    36   37   35 1
    37   38   35 1
    38   13   30 ar
    39   29   30 ar
    40   31   33 ar
@<TRIPOS>SUBSTRUCTURE
     1 RES1 1

@<TRIPOS>CRYSIN
   8.8713    7.0968   12.0516  90.0000 110.0950  90.0000   4 1

