# MOL2 file generated by ConQuest
# Please check atom types

@<TRIPOS>MOLECULE
LUKBEY
    21    23     1
SMALL
USER_CHARGES
****
Generated from CSD

@<TRIPOS>ATOM
      1 O1        32.4069    2.0065    0.6976 O.3       1 RES1    0.0000
      2 O2        33.3592    0.6989   -0.8916 O.2       1 RES1   -1.0000
      3 O3        32.2809   -1.8441   -1.7327 O.3       1 RES1    0.0000
      4 O4        32.2288   -0.5979   -3.6357 O.2       1 RES1    0.0000
      5 N1        30.4410    1.2366    0.7879 N.pl3     1 RES1    1.0000
      6 N2        31.1903    2.1538    1.2983 N.2       1 RES1    0.0000
      7 N3        29.0679   -0.6860   -1.0808 N.2       1 RES1    0.0000
      8 N4        28.9007   -1.7871   -1.8687 N.2       1 RES1    0.0000
      9 N5        30.0387   -2.3011   -2.2027 N.2       1 RES1    0.0000
     10 N6        30.9536   -1.5323   -1.6189 N.pl3     1 RES1    0.0000
     11 C1        31.0550    0.4635   -0.1461 C.2       1 RES1    0.0000
     12 C2        32.3746    0.9495   -0.2451 C.2       1 RES1    0.0000
     13 C3        29.0773    1.1355    1.2700 C.ar      1 RES1    0.0000
     14 C4        28.1975    2.1538    1.0290 C.ar      1 RES1    0.0000
     15 C5        26.8931    2.0076    1.4707 C.ar      1 RES1    0.0000
     16 C6        26.5131    0.8871    2.1643 C.ar      1 RES1    0.0000
     17 C7        27.4245   -0.1075    2.4155 C.ar      1 RES1    0.0000
     18 C8        28.7261    0.0086    1.9764 C.ar      1 RES1    0.0000
     19 C9        30.3740   -0.5420   -0.9030 C.2       1 RES1    0.0000
     20 C10       32.8737   -1.2710   -2.9131 C.2       1 RES1    0.0000
     21 C11       34.2752   -1.7000   -2.9562 C.3       1 RES1    0.0000
@<TRIPOS>BOND
     1    1    6 1
     2    2   12 1
     3    3   10 1
     4    4   20 2
     5    5    6 2
     6    7    8 1
     7    8    9 2
     8    9   10 1
     9   10   19 1
    10   11    5 1
    11   12    1 1
    12   13    5 1
    13   14   13 ar
    14   15   14 ar
    15   16   15 ar
    16   17   16 ar
    17   18   13 ar
    18   19    7 2
    19   20    3 1
    20   21   20 1
    21   11   12 2
    22   11   19 1
    23   17   18 ar
@<TRIPOS>SUBSTRUCTURE
     1 RES1 1

@<TRIPOS>CRYSIN
  34.7080   10.7530    6.7340  90.0000  90.0000  90.0000  61 1

