# MOL2 file generated by ConQuest
# Please check atom types

@<TRIPOS>MOLECULE
LUKFEC
    24    25     1
SMALL
NO_CHARGES
****
Generated from CSD

@<TRIPOS>ATOM
      1 O1        -7.9099   -2.2341   18.2934 O.2       1 RES1    0.0000
      2 O2        -6.6348   -0.5527   18.6887 O.2       1 RES1    0.0000
      3 O3         0.4763   -5.7095   12.9480 O.3       1 RES1    0.0000
      4 O4         7.5777   -5.9007    8.2538 O.3       1 RES1    0.0000
      5 N1        -6.8394   -1.6519   18.1696 N.pl3     1 RES1    0.0000
      6 C1        -5.7692   -2.2673   17.4136 C.ar      1 RES1    0.0000
      7 C2        -5.9592   -3.5160   16.8529 C.ar      1 RES1    0.0000
      8 C3        -4.9340   -4.0766   16.1326 C.ar      1 RES1    0.0000
      9 C4        -3.7194   -3.4181   15.9362 C.ar      1 RES1    0.0000
     10 C5        -3.5710   -2.1573   16.5422 C.ar      1 RES1    0.0000
     11 C6        -4.5791   -1.5810   17.2731 C.ar      1 RES1    0.0000
     12 C7        -2.6367   -4.0033   15.1314 C.ar      1 RES1    0.0000
     13 C8        -2.5145   -5.3800   14.9147 C.ar      1 RES1    0.0000
     14 C9        -1.4811   -5.9102   14.2040 C.ar      1 RES1    0.0000
     15 C10       -0.5142   -5.0899   13.6433 C.ar      1 RES1    0.0000
     16 C11       -0.6092   -3.7148   13.8230 C.ar      1 RES1    0.0000
     17 C12       -1.6461   -3.1922   14.5611 C.ar      1 RES1    0.0000
     18 C13        1.5114   -4.9264   12.3623 C.3       1 RES1    0.0000
     19 C14        2.3819   -5.8434   11.5611 C.3       1 RES1    0.0000
     20 C15        3.5879   -5.1831   10.9741 C.3       1 RES1    0.0000
     21 C16        4.4194   -6.1317   10.1289 C.3       1 RES1    0.0000
     22 C17        5.6828   -5.5837    9.6039 C.3       1 RES1    0.0000
     23 C18        6.4514   -6.5547    8.7479 C.3       1 RES1    0.0000
     24 H1         8.1047   -6.4775    7.8455 H         1 RES1    0.0000
@<TRIPOS>BOND
     1    1    5 2
     2    2    5 2
     3    3   15 1
     4    4   23 1
     5    5    6 1
     6    6    7 ar
     7    7    8 ar
     8    8    9 ar
     9    9   10 ar
    10   10   11 ar
    11   11    6 ar
    12   12    9 1
    13   13   12 ar
    14   14   13 ar
    15   15   14 ar
    16   16   15 ar
    17   17   12 ar
    18   18    3 1
    19   19   18 1
    20   20   19 1
    21   21   20 1
    22   22   21 1
    23   23   22 1
    24   24    4 1
    25   16   17 ar
@<TRIPOS>SUBSTRUCTURE
     1 RES1 1

@<TRIPOS>CRYSIN
   7.1250    9.7690   12.2570 103.1700  91.5800 100.0600   2 1

