# MOL2 file generated by ConQuest
# Please check atom types

@<TRIPOS>MOLECULE
LUKFAZ
    48    50     1
SMALL
NO_CHARGES
****
Generated from CSD

@<TRIPOS>ATOM
      1 N1        -0.1403    8.0154   10.0296 N.pl3     1 RES1    0.0000
      2 O1         0.2518    3.4891    5.4780 O.3       1 RES1    0.0000
      3 O2        -1.2802    7.9428   10.4517 O.2       1 RES1    0.0000
      4 O3         0.7335    8.7632   10.4823 O.2       1 RES1    0.0000
      5 C1         1.3851    4.3575    5.7675 C.3       1 RES1    0.0000
      6 H1         2.1006    3.8019    6.1419 H         1 RES1    0.0000
      7 C2         1.9124    5.0060    4.5028 C.2       1 RES1    0.0000
      8 H2         1.3846    5.6525    4.0921 H         1 RES1    0.0000
      9 C3         3.0819    4.7119    3.9430 C.2       1 RES1    0.0000
     10 H3         3.6013    4.1001    4.4130 H         1 RES1    0.0000
     11 C4         3.6734    5.1999    2.7070 C.ar      1 RES1    0.0000
     12 C5         3.0546    6.1099    1.9047 C.ar      1 RES1    0.0000
     13 H4         2.2199    6.4254    2.1683 H         1 RES1    0.0000
     14 C6         3.6169    6.6228    0.6591 C.ar      1 RES1    0.0000
     15 H5         3.1497    7.2373    0.1414 H         1 RES1    0.0000
     16 C7         4.8746    6.1640    0.2694 C.ar      1 RES1    0.0000
     17 C8         5.4491    5.1983    1.1157 C.ar      1 RES1    0.0000
     18 H6         6.2634    4.8332    0.8539 H         1 RES1    0.0000
     19 C9         4.9011    4.7441    2.3039 C.ar      1 RES1    0.0000
     20 H7         5.3654    4.1312    2.8293 H         1 RES1    0.0000
     21 C10        5.4919    6.6134   -1.0221 C.3       1 RES1    0.0000
     22 H8         6.3370    6.1736   -1.1424 H         1 RES1    0.0000
     23 H9         5.6261    7.5640   -0.9991 H         1 RES1    0.0000
     24 H10        4.9083    6.3903   -1.7499 H         1 RES1    0.0000
     25 C11        0.9308    5.3327    6.8583 C.ar      1 RES1    0.0000
     26 C12        1.8289    6.3608    7.2901 C.ar      1 RES1    0.0000
     27 H11        2.6460    6.4600    6.8583 H         1 RES1    0.0000
     28 C13        1.5071    7.2165    8.3408 C.ar      1 RES1    0.0000
     29 H12        2.1231    7.8466    8.6407 H         1 RES1    0.0000
     30 C14        0.2666    7.1187    8.9330 C.ar      1 RES1    0.0000
     31 C15       -0.6518    6.1606    8.5032 C.ar      1 RES1    0.0000
     32 H13       -1.4942    6.1208    8.8929 H         1 RES1    0.0000
     33 C16       -0.3122    5.2554    7.4811 C.ar      1 RES1    0.0000
     34 H14       -0.9204    4.6011    7.2213 H         1 RES1    0.0000
     35 C17        0.6112    2.2054    4.9422 C.3       1 RES1    0.0000
     36 H15        1.3031    1.8126    5.4962 H         1 RES1    0.0000
     37 H16        0.9753    2.3241    4.0500 H         1 RES1    0.0000
     38 C18       -0.5854    1.2440    4.8734 C.ar      1 RES1    0.0000
     39 C19       -0.8548    0.5756    3.6794 C.ar      1 RES1    0.0000
     40 H17       -0.3377    0.7123    2.9172 H         1 RES1    0.0000
     41 C20       -1.9609   -0.3288    3.6775 C.ar      1 RES1    0.0000
     42 H18       -2.1157   -0.8395    2.9172 H         1 RES1    0.0000
     43 C21       -2.7954   -0.4764    4.7359 C.ar      1 RES1    0.0000
     44 H19       -3.5322   -1.0419    4.6977 H         1 RES1    0.0000
     45 C22       -2.5064    0.2399    5.8534 C.ar      1 RES1    0.0000
     46 H20       -3.0715    0.1562    6.5870 H         1 RES1    0.0000
     47 C23       -1.4146    1.0893    5.9623 C.ar      1 RES1    0.0000
     48 H21       -1.2462    1.5449    6.7551 H         1 RES1    0.0000
@<TRIPOS>BOND
     1    1    3 2
     2    2    5 1
     3    4    1 2
     4    5    6 1
     5    7    5 1
     6    8    7 1
     7    9    7 2
     8   10    9 1
     9   11    9 1
    10   12   11 ar
    11   13   12 1
    12   14   12 ar
    13   15   14 1
    14   16   14 ar
    15   17   16 ar
    16   18   17 1
    17   19   11 ar
    18   20   19 1
    19   21   16 1
    20   22   21 1
    21   23   21 1
    22   24   21 1
    23   25    5 1
    24   26   25 ar
    25   27   26 1
    26   28   26 ar
    27   29   28 1
    28   30    1 1
    29   31   30 ar
    30   32   31 1
    31   33   25 ar
    32   34   33 1
    33   35    2 1
    34   36   35 1
    35   37   35 1
    36   38   35 1
    37   39   38 ar
    38   40   39 1
    39   41   39 ar
    40   42   41 1
    41   43   41 ar
    42   44   43 1
    43   45   43 ar
    44   46   45 1
    45   47   38 ar
    46   48   47 1
    47   17   19 ar
    48   28   30 ar
    49   31   33 ar
    50   45   47 ar
@<TRIPOS>SUBSTRUCTURE
     1 RES1 1

@<TRIPOS>CRYSIN
   6.0590    8.7900   19.2100  84.0500  89.7300  78.4300   2 1

