# MOL2 file generated by ConQuest
# Please check atom types

@<TRIPOS>MOLECULE
LUKTAN
    37    38     1
SMALL
NO_CHARGES
****
Generated from CSD

@<TRIPOS>ATOM
      1 O1         0.5155   -1.4614   -0.2690 O.2       1 RES1    0.0000
      2 O2         4.7177    2.6066   -2.3591 O.2       1 RES1    0.0000
      3 O3         3.6474   -0.4540    3.9985 O.2       1 RES1    0.0000
      4 O4         3.2639    3.5461   -3.6591 O.2       1 RES1    0.0000
      5 O5         5.1198    4.8546   -0.1944 O.2       1 RES1    0.0000
      6 N1         6.8273    3.3388    4.2705 N.pl3     1 RES1    0.0000
      7 C1         3.4509    1.0994   -0.5303 C.2       1 RES1    0.0000
      8 H1         4.3886    0.9539   -0.4868 H         1 RES1    0.0000
      9 O6         3.0250    4.3228   -0.0980 O.2       1 RES1    0.0000
     10 O7         2.0897    0.1502    2.6255 O.2       1 RES1    0.0000
     11 O8         2.6509   -1.6265   -0.0478 O.2       1 RES1    0.0000
     12 N2         3.1782    0.3013    3.1570 N.pl3     1 RES1    0.0000
     13 N3         3.6671    2.6023   -2.9880 N.pl3     1 RES1    0.0000
     14 C2         4.4606    3.3514    1.4350 C.ar      1 RES1    0.0000
     15 O9         7.5806    4.2049    3.8949 O.2       1 RES1    0.0000
     16 O10        0.5181   -0.1794   -5.2234 O.3       1 RES1    0.0000
     17 H2         0.0551   -0.8748   -5.1382 H         1 RES1    0.0000
     18 C3         2.8528    1.6680    0.5064 C.2       1 RES1    0.0000
     19 H3         1.9068    1.7440    0.5437 H         1 RES1    0.0000
     20 C4         5.6975    2.9875    3.4004 C.ar      1 RES1    0.0000
     21 C5         2.7313    0.6787   -1.7528 C.ar      1 RES1    0.0000
     22 C6         2.8223    1.3970   -2.9508 C.ar      1 RES1    0.0000
     23 C7         1.0546   -0.7020   -2.9175 C.ar      1 RES1    0.0000
     24 H4         0.4333   -1.4204   -2.8833 H         1 RES1    0.0000
     25 C8         1.8234   -0.3731   -1.8100 C.ar      1 RES1    0.0000
     26 C9         5.4624    3.7692    2.2864 C.ar      1 RES1    0.0000
     27 H5         5.9662    4.5557    2.1144 H         1 RES1    0.0000
     28 C10        2.1075    1.1076   -4.0919 C.ar      1 RES1    0.0000
     29 H6         2.2238    1.6287   -4.8778 H         1 RES1    0.0000
     30 O11        6.9823    2.6985    5.2734 O.2       1 RES1    0.0000
     31 N4         4.1892    4.2338    0.2819 N.pl3     1 RES1    0.0000
     32 C11        3.9664    1.4960    2.7995 C.ar      1 RES1    0.0000
     33 C12        4.9492    1.8661    3.7020 C.ar      1 RES1    0.0000
     34 H7         5.1029    1.3691    4.4964 H         1 RES1    0.0000
     35 C13        1.2155    0.0443   -4.0783 C.ar      1 RES1    0.0000
     36 N5         1.6496   -1.2177   -0.6183 N.pl3     1 RES1    0.0000
     37 C14        3.7065    2.1834    1.6095 C.ar      1 RES1    0.0000
@<TRIPOS>BOND
     1    1   36 2
     2    2   13 2
     3    3   12 2
     4    4   13 2
     5    5   31 2
     6    6   15 2
     7    7    8 1
     8    9   31 2
     9   10   12 2
    10   11   36 2
    11   12   32 1
    12   13   22 1
    13   14   26 ar
    14   16   17 1
    15   18    7 2
    16   19   18 1
    17   20    6 1
    18   21    7 1
    19   22   21 ar
    20   23   24 1
    21   25   21 ar
    22   26   20 ar
    23   27   26 1
    24   28   22 ar
    25   29   28 1
    26   30    6 2
    27   31   14 1
    28   32   33 ar
    29   33   20 ar
    30   34   33 1
    31   35   16 1
    32   36   25 1
    33   37   14 ar
    34   18   37 1
    35   23   25 ar
    36   23   35 ar
    37   28   35 ar
    38   32   37 ar
@<TRIPOS>SUBSTRUCTURE
     1 RES1 1

@<TRIPOS>CRYSIN
   9.5020   13.8850   12.9460  90.0000 110.7060  90.0000  14 1

