# MOL2 file generated by ConQuest
# Please check atom types

@<TRIPOS>MOLECULE
LUKVEU
    48    51     1
SMALL
NO_CHARGES
****
Generated from CSD

@<TRIPOS>ATOM
      1 C1         0.9978    1.6796    6.5410 C.ar      1 RES1    0.0000
      2 C2         0.6440    1.5798    7.8794 C.ar      1 RES1    0.0000
      3 H1         0.4938    2.3577    8.4030 H         1 RES1    0.0000
      4 C3         0.5146    0.3129    8.4341 C.ar      1 RES1    0.0000
      5 H2         0.2674    0.2182    9.3460 H         1 RES1    0.0000
      6 C4         0.7490   -0.8288    7.6478 C.ar      1 RES1    0.0000
      7 C5         1.1022   -0.7345    6.3156 C.ar      1 RES1    0.0000
      8 H3         1.2567   -1.5175    5.8009 H         1 RES1    0.0000
      9 C6         1.2294    0.5394    5.7313 C.ar      1 RES1    0.0000
     10 C7         1.5990    1.0270    4.4247 C.2       1 RES1    0.0000
     11 C8         1.5952    2.4059    4.5043 C.2       1 RES1    0.0000
     12 C9         1.8314    0.2835    3.1379 C.3       1 RES1    0.0000
     13 H4         1.6961    0.9442    2.3993 H         1 RES1    0.0000
     14 C10        0.8133   -0.8509    2.9045 C.3       1 RES1    0.0000
     15 H5         1.0032   -1.2971    2.0413 H         1 RES1    0.0000
     16 H6         0.8943   -1.5249    3.6247 H         1 RES1    0.0000
     17 C11        3.2148   -0.3236    2.9299 C.ar      1 RES1    0.0000
     18 C12        4.0548   -0.6560    3.9866 C.ar      1 RES1    0.0000
     19 H7         3.7766   -0.4969    4.8811 H         1 RES1    0.0000
     20 C13        5.3031   -1.2223    3.7372 C.ar      1 RES1    0.0000
     21 H8         5.8717   -1.4490    4.4639 H         1 RES1    0.0000
     22 C14        5.7215   -1.4568    2.4369 C.ar      1 RES1    0.0000
     23 H9         6.5753   -1.8397    2.2722 H         1 RES1    0.0000
     24 C15        4.8869   -1.1296    1.3769 C.ar      1 RES1    0.0000
     25 H10        5.1682   -1.2877    0.4832 H         1 RES1    0.0000
     26 C16        3.6399   -0.5701    1.6240 C.ar      1 RES1    0.0000
     27 H11        3.0703   -0.3529    0.8955 H         1 RES1    0.0000
     28 C17        1.9949    3.4066    3.4945 C.ar      1 RES1    0.0000
     29 C18        1.1667    4.4902    3.1790 C.ar      1 RES1    0.0000
     30 H12        0.3052    4.5616    3.5723 H         1 RES1    0.0000
     31 C19        1.6088    5.4603    2.2885 C.ar      1 RES1    0.0000
     32 H13        1.0506    6.2005    2.0821 H         1 RES1    0.0000
     33 C20        2.8598    5.3548    1.6998 C.ar      1 RES1    0.0000
     34 H14        3.1552    6.0235    1.0925 H         1 RES1    0.0000
     35 C21        3.6800    4.2780    1.9943 C.ar      1 RES1    0.0000
     36 H15        4.5337    4.2036    1.5834 H         1 RES1    0.0000
     37 C22        3.2532    3.3051    2.8926 C.ar      1 RES1    0.0000
     38 H16        3.8182    2.5692    3.0979 H         1 RES1    0.0000
     39 C23        0.5639   -2.2911    9.5517 C.3       1 RES1    0.0000
     40 H17        0.5565   -3.2487    9.7622 H         1 RES1    0.0000
     41 H18       -0.2571   -1.8762    9.8903 H         1 RES1    0.0000
     42 H19        1.3408   -1.8690    9.9738 H         1 RES1    0.0000
     43 N1         1.2254    2.7980    5.7667 N.pl3     1 RES1    0.0000
     44 H20        1.1422    3.6213    6.0240 H         1 RES1    0.0000
     45 N2        -0.5743   -0.2944    2.8895 N.pl3     1 RES1    0.0000
     46 O1        -1.3075   -0.5325    3.8407 O.2       1 RES1    0.0000
     47 O2        -0.8972    0.4002    1.9313 O.2       1 RES1    0.0000
     48 O3         0.6371   -2.1163    8.1446 O.3       1 RES1    0.0000
@<TRIPOS>BOND
     1    1    2 ar
     2    2    3 1
     3    4    2 ar
     4    5    4 1
     5    6    4 ar
     6    7    6 ar
     7    8    7 1
     8    9    1 ar
     9   10    9 1
    10   11   10 2
    11   12   10 1
    12   13   12 1
    13   14   12 1
    14   15   14 1
    15   16   14 1
    16   17   12 1
    17   18   17 ar
    18   19   18 1
    19   20   18 ar
    20   21   20 1
    21   22   20 ar
    22   23   22 1
    23   24   22 ar
    24   25   24 1
    25   26   17 ar
    26   27   26 1
    27   28   11 1
    28   29   28 ar
    29   30   29 1
    30   31   29 ar
    31   32   31 1
    32   33   31 ar
    33   34   33 1
    34   35   33 ar
    35   36   35 1
    36   37   28 ar
    37   38   37 1
    38   39   40 1
    39   41   39 1
    40   42   39 1
    41   43    1 1
    42   44   43 1
    43   45   14 1
    44   46   45 2
    45   47   45 2
    46   48    6 1
    47    7    9 ar
    48   11   43 1
    49   24   26 ar
    50   35   37 ar
    51   39   48 1
@<TRIPOS>SUBSTRUCTURE
     1 RES1 1

@<TRIPOS>CRYSIN
   9.7561   10.0258   10.8942 116.4150  91.8430  97.9630   2 1

