# MOL2 file generated by ConQuest
# Please check atom types

@<TRIPOS>MOLECULE
LULYEW
    31    32     1
SMALL
USER_CHARGES
****
Generated from CSD

@<TRIPOS>ATOM
      1 O1         2.6722    9.9317    5.9289 O.2       1 RES1   -1.0000
      2 O2         7.8609    8.2102    8.8445 O.2       1 RES1    0.0000
      3 O3         8.0961    7.0807    7.0135 O.2       1 RES1    0.0000
      4 N1         7.4726    7.8675    7.7229 N.pl3     1 RES1    0.0000
      5 N2         3.0345    8.5812    3.6734 N.pl3     1 RES1    1.0000
      6 C1         3.7688    9.4552    6.3373 C.ar      1 RES1    0.0000
      7 C2         4.2870    9.7451    7.6412 C.ar      1 RES1    0.0000
      8 C3         5.4626    9.2382    8.0648 C.ar      1 RES1    0.0000
      9 C4         6.2315    8.4129    7.2319 C.ar      1 RES1    0.0000
     10 C5         5.8068    8.1007    5.9764 C.ar      1 RES1    0.0000
     11 C6         4.5854    8.6035    5.5101 C.ar      1 RES1    0.0000
     12 C7         4.1567    8.2203    4.2157 C.2       1 RES1    0.0000
     13 C8         2.5691    8.1128    2.3790 C.3       1 RES1    0.0000
     14 C9         1.5179    7.0321    2.5043 C.ar      1 RES1    0.0000
     15 C10        0.5014    6.9469    1.5641 C.ar      1 RES1    0.0000
     16 C11       -0.4375    5.9371    1.6534 C.ar      1 RES1    0.0000
     17 C12       -0.3860    5.0267    2.6686 C.ar      1 RES1    0.0000
     18 C13        0.6097    5.1139    3.6126 C.ar      1 RES1    0.0000
     19 C14        1.5524    6.1013    3.5233 C.ar      1 RES1    0.0000
     20 H1         2.5062    9.1449    4.2166 H         1 RES1    0.0000
     21 H2         3.7996   10.2946    8.2101 H         1 RES1    0.0000
     22 H3         5.7659    9.4369    8.9214 H         1 RES1    0.0000
     23 H4         6.3259    7.5552    5.4303 H         1 RES1    0.0000
     24 H5         4.7196    7.6728    3.7190 H         1 RES1    0.0000
     25 H6         3.3229    7.7661    1.8756 H         1 RES1    0.0000
     26 H7         2.1993    8.8610    1.8832 H         1 RES1    0.0000
     27 H8         0.4520    7.5674    0.8737 H         1 RES1    0.0000
     28 H9        -1.1119    5.8783    1.0162 H         1 RES1    0.0000
     29 H10       -1.0218    4.3514    2.7218 H         1 RES1    0.0000
     30 H11        0.6425    4.5015    4.3116 H         1 RES1    0.0000
     31 H12        2.2287    6.1460    4.1606 H         1 RES1    0.0000
@<TRIPOS>BOND
     1    1    6 1
     2    2    4 2
     3    3    4 2
     4    4    9 1
     5    5   12 2
     6    6    7 ar
     7    7    8 ar
     8    8    9 ar
     9    9   10 ar
    10   10   11 ar
    11   11    6 ar
    12   12   11 1
    13   13    5 1
    14   14   13 1
    15   15   14 ar
    16   16   15 ar
    17   17   16 ar
    18   18   17 ar
    19   19   14 ar
    20   20    5 1
    21   21    7 1
    22   22    8 1
    23   23   10 1
    24   24   12 1
    25   25   13 1
    26   26   13 1
    27   27   15 1
    28   28   16 1
    29   29   17 1
    30   30   18 1
    31   31   19 1
    32   18   19 ar
@<TRIPOS>SUBSTRUCTURE
     1 RES1 1

@<TRIPOS>CRYSIN
   6.3350   20.2770    9.9304  90.0000 106.9920  90.0000  14 1

