# MOL2 file generated by ConQuest
# Please check atom types

@<TRIPOS>MOLECULE
LUPGUY
    35    37     1
SMALL
NO_CHARGES
****
Generated from CSD

@<TRIPOS>ATOM
      1 O1         3.4552    1.1215    7.8000 O.3       1 RES1    0.0000
      2 O2         3.4090   -3.1033    8.3753 O.2       1 RES1    0.0000
      3 O3         9.9120    2.9553   13.7750 O.2       1 RES1    0.0000
      4 O4        10.3937    4.1465   12.0308 O.2       1 RES1    0.0000
      5 N1         5.4552   -0.8066   10.0621 N.2       1 RES1    0.0000
      6 N2         4.7224   -1.4405    9.0751 N.am      1 RES1    0.0000
      7 N3         9.7548    3.2498   12.5900 N.pl3     1 RES1    0.0000
      8 C1         7.1198    0.7922   11.6967 C.ar      1 RES1    0.0000
      9 C2         7.9719    1.5692   12.4547 C.ar      1 RES1    0.0000
     10 C3         8.7966    2.4761   11.8007 C.ar      1 RES1    0.0000
     11 C4         8.7661    2.6585   10.4280 C.ar      1 RES1    0.0000
     12 C5         7.9019    1.8783    9.6796 C.ar      1 RES1    0.0000
     13 C6         7.0849    0.9287   10.2985 C.ar      1 RES1    0.0000
     14 C7         6.2011    0.0822    9.4989 C.2       1 RES1    0.0000
     15 C8         6.0961    0.1108    7.9927 C.3       1 RES1    0.0000
     16 C9         4.9080   -0.8272    7.7269 C.3       1 RES1    0.0000
     17 C10        3.6761   -0.1271    7.2676 C.2       1 RES1    0.0000
     18 C11        2.6822   -0.4496    6.4168 C.2       1 RES1    0.0000
     19 C12        1.7783    0.6592    6.4093 C.2       1 RES1    0.0000
     20 C13        2.2823    1.5723    7.2503 C.2       1 RES1    0.0000
     21 C14        3.9867   -2.5618    9.3063 C.2       1 RES1    0.0000
     22 C15        3.9482   -3.0747   10.7203 C.3       1 RES1    0.0000
     23 H1         6.5453    0.1644   12.1096 H         1 RES1    0.0000
     24 H2         7.9870    1.5017   13.4249 H         1 RES1    0.0000
     25 H3         9.3557    3.2837   10.0062 H         1 RES1    0.0000
     26 H4         7.8777    1.9846    8.7093 H         1 RES1    0.0000
     27 H5         6.9029   -0.2349    7.5996 H         1 RES1    0.0000
     28 H6         5.9494    0.9762    7.6657 H         1 RES1    0.0000
     29 H7         5.1446   -1.5207    7.0951 H         1 RES1    0.0000
     30 H8         2.6163   -1.2492    5.9346 H         1 RES1    0.0000
     31 H9         0.9609    0.7369    5.9087 H         1 RES1    0.0000
     32 H10        2.0065    2.4426    7.5542 H         1 RES1    0.0000
     33 H11        3.1395   -3.5553   10.8560 H         1 RES1    0.0000
     34 H12        3.9838   -2.3839   11.3908 H         1 RES1    0.0000
     35 H13        4.7058   -3.6213   10.8690 H         1 RES1    0.0000
@<TRIPOS>BOND
     1    1   17 1
     2    2   21 2
     3    3    7 2
     4    4    7 2
     5    5    6 1
     6    6   16 1
     7    7   10 1
     8    8    9 ar
     9    9   10 ar
    10   10   11 ar
    11   11   12 ar
    12   12   13 ar
    13   13    8 ar
    14   14    5 2
    15   15   14 1
    16   16   15 1
    17   17   16 1
    18   18   17 2
    19   19   18 1
    20   20    1 1
    21   21    6 1
    22   22   21 1
    23   23    8 1
    24   24    9 1
    25   25   11 1
    26   26   12 1
    27   27   15 1
    28   28   15 1
    29   29   16 1
    30   30   18 1
    31   31   19 1
    32   32   20 1
    33   33   22 1
    34   34   22 1
    35   35   22 1
    36   13   14 1
    37   19   20 2
@<TRIPOS>SUBSTRUCTURE
     1 RES1 1

@<TRIPOS>CRYSIN
   8.9521   14.6790   10.8300  90.0000  91.6200  90.0000 231 1

