# MOL2 file generated by ConQuest
# Please check atom types

@<TRIPOS>MOLECULE
LUQLOY
    35    36     1
SMALL
NO_CHARGES
****
Generated from CSD

@<TRIPOS>ATOM
      1 O1        21.3559    5.0400    8.4360 O.3       1 RES1    0.0000
      2 H1        21.2320    5.2443    7.6508 H         1 RES1    0.0000
      3 O2        20.3331    5.1496    6.2105 O.2       1 RES1    0.0000
      4 O3        14.7415    2.2343    6.6240 O.2       1 RES1    0.0000
      5 O4        14.0572    2.4016    4.5914 O.2       1 RES1    0.0000
      6 O5        20.4629    2.7665   14.2353 O.3       1 RES1    0.0000
      7 N1        14.8819    2.6227    5.4730 N.pl3     1 RES1    0.0000
      8 C1        20.3569    4.0122   10.2770 C.ar      1 RES1    0.0000
      9 C2        21.4677    4.3001   11.0691 C.ar      1 RES1    0.0000
     10 H2        22.1754    4.7765   10.6986 H         1 RES1    0.0000
     11 C3        21.5486    3.9019   12.3816 C.ar      1 RES1    0.0000
     12 H3        22.3128    4.0849   12.8799 H         1 RES1    0.0000
     13 C4        20.4827    3.2248   12.9565 C.ar      1 RES1    0.0000
     14 C5        19.3640    2.9471   12.1946 C.ar      1 RES1    0.0000
     15 H4        18.6459    2.4959   12.5767 H         1 RES1    0.0000
     16 C6        19.2999    3.3289   10.8833 C.ar      1 RES1    0.0000
     17 H5        18.5390    3.1297   10.3873 H         1 RES1    0.0000
     18 C7        21.5492    3.1066   15.0786 C.3       1 RES1    0.0000
     19 H6        22.3616    2.7500   14.7139 H         1 RES1    0.0000
     20 H7        21.4029    2.7378   15.9532 H         1 RES1    0.0000
     21 H8        21.6197    4.0617   15.1413 H         1 RES1    0.0000
     22 C8        20.3221    4.4262    8.8855 C.2       1 RES1    0.0000
     23 C9        19.2443    4.1697    8.0120 C.2       1 RES1    0.0000
     24 H9        18.4841    3.7456    8.3396 H         1 RES1    0.0000
     25 C10       19.2938    4.5314    6.6984 C.2       1 RES1    0.0000
     26 C11       18.2114    4.2361    5.7018 C.ar      1 RES1    0.0000
     27 C12       17.0402    3.5622    6.0688 C.ar      1 RES1    0.0000
     28 H10       16.9025    3.2813    6.9434 H         1 RES1    0.0000
     29 C13       16.1078    3.3316    5.0943 C.ar      1 RES1    0.0000
     30 C14       16.2626    3.7024    3.7969 C.ar      1 RES1    0.0000
     31 H11       15.6019    3.5217    3.1662 H         1 RES1    0.0000
     32 C15       17.4191    4.3516    3.4392 C.ar      1 RES1    0.0000
     33 H12       17.5498    4.6127    2.5565 H         1 RES1    0.0000
     34 C16       18.3873    4.6182    4.3858 C.ar      1 RES1    0.0000
     35 H13       19.1649    5.0597    4.1349 H         1 RES1    0.0000
@<TRIPOS>BOND
     1    1    2 1
     2    3   25 2
     3    4    7 2
     4    5    7 2
     5    6   13 1
     6    7   29 1
     7    8    9 ar
     8    9   10 1
     9   11    9 ar
    10   12   11 1
    11   13   11 ar
    12   14   13 ar
    13   15   14 1
    14   16    8 ar
    15   17   16 1
    16   18    6 1
    17   19   18 1
    18   20   18 1
    19   21   18 1
    20   22    1 1
    21   23   22 2
    22   24   23 1
    23   25   23 1
    24   26   25 1
    25   27   26 ar
    26   28   27 1
    27   29   27 ar
    28   30   29 ar
    29   31   30 1
    30   32   30 ar
    31   33   32 1
    32   34   26 ar
    33   35   34 1
    34    8   22 1
    35   14   16 ar
    36   32   34 ar
@<TRIPOS>SUBSTRUCTURE
     1 RES1 1

@<TRIPOS>CRYSIN
  30.5320    3.9274   11.6150  90.0000  90.0000  90.0000  29 1

