# MOL2 file generated by ConQuest
# Please check atom types

@<TRIPOS>MOLECULE
LURYOM
    25    24     1
SMALL
NO_CHARGES
****
Generated from CSD

@<TRIPOS>ATOM
      1 O1         2.4945   -1.4412   17.4984 O.2       1 RES1    0.0000
      2 O2         0.4675   -0.8003   16.9988 O.2       1 RES1    0.0000
      3 O3         1.9684    1.0907   13.5142 O.2       1 RES1    0.0000
      4 O4        -0.0871    0.8991   12.8019 O.2       1 RES1    0.0000
      5 N1         2.1915    0.3957   16.2956 N.3       1 RES1    0.0000
      6 N2         0.2995    1.1449   14.9637 N.3       1 RES1    0.0000
      7 N3         1.6957   -0.6637   16.9712 N.pl3     1 RES1    0.0000
      8 N4         0.7466    1.0539   13.6961 N.pl3     1 RES1    0.0000
      9 C1         1.2662    1.4795   15.9934 C.3       1 RES1    0.0000
     10 H1         0.7911    1.7207   16.8028 H         1 RES1    0.0000
     11 H2         1.7743    2.2547   15.7070 H         1 RES1    0.0000
     12 C2         3.6349    0.6432   16.3525 C.3       1 RES1    0.0000
     13 H3         3.8938    1.1831   15.5889 H         1 RES1    0.0000
     14 H4         4.1035   -0.2038   16.2903 H         1 RES1    0.0000
     15 C3         4.0610    1.3517   17.6277 C.3       1 RES1    0.0000
     16 H5         5.0105    1.4903   17.6150 H         1 RES1    0.0000
     17 H6         3.8264    0.8130   18.3873 H         1 RES1    0.0000
     18 H7         3.6146    2.1999   17.6877 H         1 RES1    0.0000
     19 C4        -1.1400    1.2801   15.1963 C.3       1 RES1    0.0000
     20 H8        -1.3412    1.0162   16.1086 H         1 RES1    0.0000
     21 H9        -1.6160    0.6796   14.6004 H         1 RES1    0.0000
     22 C5        -1.6297    2.6936   14.9698 C.3       1 RES1    0.0000
     23 H10       -2.5746    2.7351   15.1347 H         1 RES1    0.0000
     24 H11       -1.4509    2.9534   14.0626 H         1 RES1    0.0000
     25 H12       -1.1741    3.2900   15.5689 H         1 RES1    0.0000
@<TRIPOS>BOND
     1    1    7 2
     2    2    7 2
     3    3    8 2
     4    4    8 2
     5    5    7 1
     6    6    8 1
     7    9    5 1
     8   10    9 1
     9   11    9 1
    10   12    5 1
    11   13   12 1
    12   14   12 1
    13   15   12 1
    14   16   15 1
    15   17   15 1
    16   18   15 1
    17   19    6 1
    18   20   19 1
    19   21   19 1
    20   22   19 1
    21   23   22 1
    22   24   22 1
    23   25   22 1
    24    6    9 1
@<TRIPOS>SUBSTRUCTURE
     1 RES1 1

@<TRIPOS>CRYSIN
   8.5310    5.7740   18.5000  90.0000 100.8210  90.0000  14 1

