# MOL2 file generated by ConQuest
# Please check atom types

@<TRIPOS>MOLECULE
LURZIH
    25    24     1
SMALL
NO_CHARGES
****
Generated from CSD

@<TRIPOS>ATOM
      1 O1         0.7347    4.2316   -0.5886 O.2       1 RES1    0.0000
      2 O2         2.3530    5.6553   -0.2745 O.2       1 RES1    0.0000
      3 O3         2.1561    4.5408    4.0480 O.2       1 RES1    0.0000
      4 O4         2.9670    6.5146    4.4883 O.2       1 RES1    0.0000
      5 N1         1.6937    4.6668    0.0423 N.pl3     1 RES1    0.0000
      6 N2         2.0162    4.0402    1.1946 N.3       1 RES1    0.0000
      7 N3         3.3392    5.5907    2.5123 N.3       1 RES1    0.0000
      8 N4         2.8060    5.5506    3.7538 N.pl3     1 RES1    0.0000
      9 C1         1.3643    2.7727    1.4597 C.3       1 RES1    0.0000
     10 H1         0.5176    2.7484    1.0086 H         1 RES1    0.0000
     11 H2         1.2268    2.6743    2.4046 H         1 RES1    0.0000
     12 H3         1.9178    2.0556    1.1411 H         1 RES1    0.0000
     13 C2         3.3225    4.3610    1.7564 C.3       1 RES1    0.0000
     14 H4         3.6015    3.6333    2.3349 H         1 RES1    0.0000
     15 H5         3.9663    4.4274    1.0345 H         1 RES1    0.0000
     16 C3         4.1910    6.7279    2.1368 C.3       1 RES1    0.0000
     17 H6         3.8157    7.5358    2.5191 H         1 RES1    0.0000
     18 H7         4.1726    6.8249    1.1719 H         1 RES1    0.0000
     19 C4         5.6165    6.6051    2.5789 C.3       1 RES1    0.0000
     20 H8         5.9959    5.7872    2.2214 H         1 RES1    0.0000
     21 H9         5.6504    6.5541    3.5477 H         1 RES1    0.0000
     22 C5         6.4341    7.7887    2.1089 C.3       1 RES1    0.0000
     23 H10        7.3405    7.6916    2.4096 H         1 RES1    0.0000
     24 H11        6.0630    8.5976    2.4683 H         1 RES1    0.0000
     25 H12        6.4172    7.8277    1.1500 H         1 RES1    0.0000
@<TRIPOS>BOND
     1    1    5 2
     2    2    5 2
     3    3    8 2
     4    4    8 2
     5    5    6 1
     6    6    9 1
     7    7    8 1
     8    9   10 1
     9   11    9 1
    10   12    9 1
    11   13    6 1
    12   14   13 1
    13   15   13 1
    14   16    7 1
    15   17   16 1
    16   18   16 1
    17   19   16 1
    18   20   19 1
    19   21   19 1
    20   22   19 1
    21   23   22 1
    22   24   22 1
    23   25   22 1
    24    7   13 1
@<TRIPOS>SUBSTRUCTURE
     1 RES1 1

@<TRIPOS>CRYSIN
   5.9850   15.1260   10.5210  90.0000 108.8450  90.0000  14 1

