# MOL2 file generated by ConQuest
# Please check atom types

@<TRIPOS>MOLECULE
LUVNAS
    19    19     1
SMALL
NO_CHARGES
****
Generated from CSD

@<TRIPOS>ATOM
      1 O1         3.5714   -1.0829    8.6043 O.2       1 RES1    0.0000
      2 O2         3.8733   -2.2422    6.7793 O.2       1 RES1    0.0000
      3 N1         4.7381   -0.2110    6.9300 N.3       1 RES1    0.0000
      4 N2         6.1772    0.6720    8.6719 N.3       1 RES1    0.0000
      5 N3         8.2339    0.5360    9.1807 N.2       1 RES1    0.0000
      6 N4         4.0402   -1.2396    7.4749 N.pl3     1 RES1    0.0000
      7 N5         5.2087    0.4432   10.8411 N.3       1 RES1    0.0000
      8 N6         7.5313    0.4034   10.3379 N.2       1 RES1    0.0000
      9 N7         7.4505    0.7002    8.1644 N.2       1 RES1    0.0000
     10 C1         5.5201   -0.4748    5.7157 C.3       1 RES1    0.0000
     11 C2         6.2483    0.4844    9.9955 C.2       1 RES1    0.0000
     12 C3         5.0414    0.9118    7.7886 C.3       1 RES1    0.0000
     13 H1         5.2765    1.7385    7.2206 H         1 RES1    0.0000
     14 H2         4.2624    1.1269    8.3604 H         1 RES1    0.0000
     15 H3         6.2991   -0.9964    5.9162 H         1 RES1    0.0000
     16 H4         4.9352   -0.8521    5.0935 H         1 RES1    0.0000
     17 H5         5.8426    0.3779    5.4369 H         1 RES1    0.0000
     18 H6         5.4127    0.1443   11.6631 H         1 RES1    0.0000
     19 H7         4.4050    0.2611   10.5256 H         1 RES1    0.0000
@<TRIPOS>BOND
     1    1    6 2
     2    2    6 2
     3    3    6 1
     4    4    9 1
     5    5    8 1
     6    7   11 1
     7    8   11 2
     8    9    5 2
     9   10    3 1
    10   11    4 1
    11   12    3 1
    12   13   12 1
    13   14   12 1
    14   15   10 1
    15   16   10 1
    16   17   10 1
    17   18    7 1
    18   19    7 1
    19    4   12 1
@<TRIPOS>SUBSTRUCTURE
     1 RES1 1

@<TRIPOS>CRYSIN
   8.6244    6.8715   12.0481  90.0000  98.2630  90.0000  14 1

