# MOL2 file generated by ConQuest
# Please check atom types

@<TRIPOS>MOLECULE
LUVPEY
    22    22     1
SMALL
NO_CHARGES
****
Generated from CSD

@<TRIPOS>ATOM
      1 O1         8.1494    8.0238    3.3035 O.2       1 RES1    0.0000
      2 N1         6.1554    5.8504    3.7720 N.3       1 RES1    0.0000
      3 O2         7.6727    9.0934    1.4513 O.2       1 RES1    0.0000
      4 N2         7.3656    8.3649    2.4015 N.pl3     1 RES1    0.0000
      5 N3         6.1097    7.8907    2.4543 N.3       1 RES1    0.0000
      6 N4         5.8855    3.6120    2.9868 N.3       1 RES1    0.0000
      7 N5         5.0149    2.9607    2.1624 N.2       1 RES1    0.0000
      8 N6         4.4925    5.1038    2.2296 N.2       1 RES1    0.0000
      9 N7         4.2031    3.8669    1.7272 N.2       1 RES1    0.0000
     10 C1         5.5490    4.9043    3.0185 C.2       1 RES1    0.0000
     11 C2         5.7074    7.2123    3.6860 C.3       1 RES1    0.0000
     12 C3         7.0044    2.9269    3.6174 C.3       1 RES1    0.0000
     13 C4         5.1662    8.4047    1.4738 C.3       1 RES1    0.0000
     14 H1         6.8593    5.7066    4.0956 H         1 RES1    0.0000
     15 H2         7.0090    3.1167    4.5180 H         1 RES1    0.0000
     16 H3         4.7309    7.2317    3.6958 H         1 RES1    0.0000
     17 H4         5.4241    8.1375    0.5732 H         1 RES1    0.0000
     18 H5         5.1337    9.3853    1.5085 H         1 RES1    0.0000
     19 H6         6.8776    1.9854    3.4771 H         1 RES1    0.0000
     20 H7         6.0672    7.6920    4.4576 H         1 RES1    0.0000
     21 H8         4.3082    8.0377    1.7121 H         1 RES1    0.0000
     22 H9         7.8162    3.2314    3.1603 H         1 RES1    0.0000
@<TRIPOS>BOND
     1    1    4 2
     2    2   10 1
     3    3    4 2
     4    4    5 1
     5    5   11 1
     6    6    7 1
     7    7    9 2
     8    8    9 1
     9   10    6 1
    10   11    2 1
    11   12    6 1
    12   13    5 1
    13   14    2 1
    14   15   12 1
    15   16   11 1
    16   17   13 1
    17   18   13 1
    18   19   12 1
    19   20   11 1
    20   21   13 1
    21   22   12 1
    22    8   10 2
@<TRIPOS>SUBSTRUCTURE
     1 RES1 1

@<TRIPOS>CRYSIN
   5.8461   18.4860    8.0667  90.0000 110.7690  90.0000  14 1

