# MOL2 file generated by ConQuest
# Please check atom types

@<TRIPOS>MOLECULE
LUVPOI
    31    31     1
SMALL
NO_CHARGES
****
Generated from CSD

@<TRIPOS>ATOM
      1 O1         4.5175   -0.2773    7.7398 O.2       1 RES1    0.0000
      2 N1         2.0436    1.2453    7.5186 N.3       1 RES1    0.0000
      3 N2         2.9514   -0.5930    6.2249 N.3       1 RES1    0.0000
      4 O2         0.8567    1.6141    5.6847 O.2       1 RES1    0.0000
      5 N3         2.2416    1.2706    9.8803 N.2       1 RES1    0.0000
      6 O3         1.1297    3.2262    7.1201 O.2       1 RES1    0.0000
      7 N4         4.2371   -0.6319    6.5885 N.pl3     1 RES1    0.0000
      8 N5         1.7586    2.3652   12.7049 N.3       1 RES1    0.0000
      9 O4         5.0662   -0.9994    5.7584 O.2       1 RES1    0.0000
     10 C1         2.5541    1.7747    8.7009 C.2       1 RES1    0.0000
     11 N6         3.4254    2.7834    8.7500 N.2       1 RES1    0.0000
     12 N7         1.2920    2.0860    6.7214 N.pl3     1 RES1    0.0000
     13 C2         2.9827    1.9223   12.1281 C.3       1 RES1    0.0000
     14 N8         3.6820    2.9501   10.0325 N.2       1 RES1    0.0000
     15 N9         2.9777    2.0409   10.6771 N.pl3     1 RES1    0.0000
     16 C3         2.0034   -0.1816    7.2264 C.3       1 RES1    0.0000
     17 N10        1.6118    3.6815   12.9771 N.pl3     1 RES1    0.0000
     18 O5         0.6203    4.0132   13.6071 O.2       1 RES1    0.0000
     19 C4         2.6018   -0.8981    4.8436 C.3       1 RES1    0.0000
     20 H1         3.1463   -0.3509    4.2404 H         1 RES1    0.0000
     21 H2         1.6532   -0.7029    4.6962 H         1 RES1    0.0000
     22 H3         2.7719   -1.8469    4.6660 H         1 RES1    0.0000
     23 O6         2.4705    4.4326   12.5649 O.2       1 RES1    0.0000
     24 C5         0.7325    1.4714   13.1614 C.3       1 RES1    0.0000
     25 H4         0.6792    1.5078   14.1388 H         1 RES1    0.0000
     26 H5         0.9472    0.5572   12.8799 H         1 RES1    0.0000
     27 H6        -0.1283    1.7382   12.7771 H         1 RES1    0.0000
     28 H7         1.1377   -0.4262    6.8812 H         1 RES1    0.0000
     29 H8         2.2126   -0.6980    8.0429 H         1 RES1    0.0000
     30 H9         3.6792    2.5326   12.3772 H         1 RES1    0.0000
     31 H10        3.0735    0.9883   12.4107 H         1 RES1    0.0000
@<TRIPOS>BOND
     1    1    7 2
     2    2   10 1
     3    3    7 1
     4    4   12 2
     5    5   10 2
     6    6   12 2
     7    7    9 2
     8    8   13 1
     9   10   11 1
    10   11   14 2
    11   12    2 1
    12   13   15 1
    13   14   15 1
    14   15    5 1
    15   16    2 1
    16   17    8 1
    17   18   17 2
    18   19    3 1
    19   20   19 1
    20   21   19 1
    21   22   19 1
    22   23   17 2
    23   24    8 1
    24   25   24 1
    25   26   24 1
    26   27   24 1
    27   28   16 1
    28   29   16 1
    29   30   13 1
    30   31   13 1
    31    3   16 1
@<TRIPOS>SUBSTRUCTURE
     1 RES1 1

@<TRIPOS>CRYSIN
   9.1750    6.1770   11.1710  90.0000  90.3820  90.0000   4 1

