# MOL2 file generated by ConQuest
# Please check atom types

@<TRIPOS>MOLECULE
LUVPIC
    17    17     1
SMALL
NO_CHARGES
****
Generated from CSD

@<TRIPOS>ATOM
      1 H1         0.6660    0.5248    5.0959 H         1 RES1    0.0000
      2 H2        -0.7709    0.2786    5.6960 H         1 RES1    0.0000
      3 H3        -1.1885    0.6090    7.8888 H         1 RES1    0.0000
      4 H4        -0.0770    0.1037    8.9334 H         1 RES1    0.0000
      5 H5         2.0753   -1.6391    4.7466 H         1 RES1    0.0000
      6 H6        -0.1028    1.6456    8.5239 H         1 RES1    0.0000
      7 N1         0.5829    0.4837    7.0800 N.3       1 RES1    0.0000
      8 O1         2.6560    0.3353    6.3202 O.2       1 RES1    0.0000
      9 N2        -0.6979   -2.2156    5.8625 N.2       1 RES1    0.0000
     10 O2         2.2883    0.9737    8.3815 O.2       1 RES1    0.0000
     11 C1        -0.2916    0.7275    8.2209 C.3       1 RES1    0.0000
     12 N3         0.2894   -1.3530    5.5368 N.3       1 RES1    0.0000
     13 N4         1.9042    0.6052    7.2694 N.pl3     1 RES1    0.0000
     14 N5         1.0063   -3.3340    5.0410 N.2       1 RES1    0.0000
     15 N6        -0.2612   -3.3985    5.5654 N.2       1 RES1    0.0000
     16 C2         1.3118   -2.0524    5.0386 C.2       1 RES1    0.0000
     17 C3         0.1304    0.0831    5.7714 C.3       1 RES1    0.0000
@<TRIPOS>BOND
     1    1   17 1
     2    2   17 1
     3    3   11 1
     4    4   11 1
     5    5   16 1
     6    6   11 1
     7    7   11 1
     8    8   13 2
     9    9   12 1
    10   10   13 2
    11   12   16 1
    12   13    7 1
    13   14   15 1
    14   15    9 2
    15   16   14 2
    16   17    7 1
    17   12   17 1
@<TRIPOS>SUBSTRUCTURE
     1 RES1 1

@<TRIPOS>CRYSIN
   6.0193    6.4786    8.4598  90.0000  98.9520  90.0000   4 1

