# MOL2 file generated by ConQuest
# Please check atom types

@<TRIPOS>MOLECULE
LUVPAU
    24    24     1
SMALL
NO_CHARGES
****
Generated from CSD

@<TRIPOS>ATOM
      1 O1        -0.3268    4.6541    4.1715 O.2       1 RES1    0.0000
      2 N1         1.3144    0.9361    5.1506 N.pl3     1 RES1    0.0000
      3 C1         1.4573    1.6840    3.9062 C.3       1 RES1    0.0000
      4 O2        -0.0406   -0.4761    4.0874 O.2       1 RES1    0.0000
      5 O3         0.8770   -1.0994    5.9565 O.2       1 RES1    0.0000
      6 N2         3.2274    1.3507    7.9302 N.pl3     1 RES1    0.0000
      7 N3         3.5970    1.0715    5.8761 N.2       1 RES1    0.0000
      8 N4         0.4038    2.6423    3.6964 N.3       1 RES1    0.0000
      9 N5         0.6795   -0.3115    5.0509 N.pl3     1 RES1    0.0000
     10 C2         3.5000    1.5497    9.3463 C.3       1 RES1    0.0000
     11 O4         1.2756    3.7936    5.3677 O.2       1 RES1    0.0000
     12 N6         2.0083    1.2396    7.4215 N.2       1 RES1    0.0000
     13 N7         4.1872    1.2682    7.0407 N.2       1 RES1    0.0000
     14 N8         0.4590    3.7642    4.4424 N.pl3     1 RES1    0.0000
     15 C3         2.2889    1.0561    6.1472 C.2       1 RES1    0.0000
     16 C4        -0.4840    2.6121    2.5556 C.3       1 RES1    0.0000
     17 H1         1.4375    1.0919    3.1793 H         1 RES1    0.0000
     18 H2         2.2934    2.1110    3.9265 H         1 RES1    0.0000
     19 H3         3.0211    0.9998    9.8207 H         1 RES1    0.0000
     20 H4        -0.4144    1.7383    2.1650 H         1 RES1    0.0000
     21 H5        -1.3389    2.8177    2.8652 H         1 RES1    0.0000
     22 H6        -0.1692    3.2608    1.9255 H         1 RES1    0.0000
     23 H7         3.5163    2.4769    9.5167 H         1 RES1    0.0000
     24 H8         4.3912    1.3180    9.5628 H         1 RES1    0.0000
@<TRIPOS>BOND
     1    1   14 2
     2    2    3 1
     3    3    8 1
     4    4    9 2
     5    5    9 2
     6    6   10 1
     7    7   13 2
     8    8   14 1
     9    9    2 1
    10   10   19 1
    11   11   14 2
    12   12    6 1
    13   13    6 1
    14   15    2 1
    15   16    8 1
    16   17    3 1
    17   18    3 1
    18   20   16 1
    19   21   16 1
    20   22   16 1
    21   23   10 1
    22   24   10 1
    23    7   15 1
    24   12   15 2
@<TRIPOS>SUBSTRUCTURE
     1 RES1 1

@<TRIPOS>CRYSIN
   9.2526   11.3617    9.5915  90.0000 106.1560  90.0000  14 1

