# MOL2 file generated by ConQuest
# Please check atom types

@<TRIPOS>MOLECULE
LUVREZ
    31    32     1
SMALL
NO_CHARGES
****
Generated from CSD

@<TRIPOS>ATOM
      1 O1         2.0615    7.1504   -0.8565 O.2       1 RES1    0.0000
      2 O2        -2.8340    3.3690    1.5835 O.2       1 RES1    0.0000
      3 O3        -1.6171    1.6221    1.3036 O.2       1 RES1    0.0000
      4 N1         2.8129    6.1132    1.0169 N.am      1 RES1    0.0000
      5 N2        -1.7507    2.8327    1.4000 N.pl3     1 RES1    0.0000
      6 C1         2.8845    7.0830    0.0362 C.2       1 RES1    0.0000
      7 C2         4.0033    8.0837    0.1455 C.3       1 RES1    0.0000
      8 H1         4.1112    8.5461   -0.6821 H         1 RES1    0.0000
      9 H2         4.8069    7.7160    0.3411 H         1 RES1    0.0000
     10 H3         3.8297    8.6739    0.8074 H         1 RES1    0.0000
     11 C3         3.8951    5.8693    1.9315 C.ar      1 RES1    0.0000
     12 C4         3.8001    6.2963    3.2415 C.ar      1 RES1    0.0000
     13 H4         3.0411    6.7491    3.5429 H         1 RES1    0.0000
     14 C5         4.8589    6.0638    4.1053 C.ar      1 RES1    0.0000
     15 H5         4.8200    6.3746    5.0185 H         1 RES1    0.0000
     16 C6         6.0002    5.4275    3.6661 C.ar      1 RES1    0.0000
     17 H6         6.7277    5.3114    4.2668 H         1 RES1    0.0000
     18 C7         6.0837    4.9866    2.3638 C.ar      1 RES1    0.0000
     19 H7         6.8662    4.5580    2.0394 H         1 RES1    0.0000
     20 C8         5.0275    5.2009    1.4909 C.ar      1 RES1    0.0000
     21 H8         5.0529    4.8798    0.5847 H         1 RES1    0.0000
     22 C9         1.6507    5.2800    1.1147 C.ar      1 RES1    0.0000
     23 C10        0.3914    5.8572    1.1875 C.ar      1 RES1    0.0000
     24 H9         0.2754    6.8122    1.1624 H         1 RES1    0.0000
     25 C11       -0.7251    5.0558    1.2884 C.ar      1 RES1    0.0000
     26 H10       -1.5893    5.4047    1.3573 H         1 RES1    0.0000
     27 C12       -0.5591    3.6816    1.3123 C.ar      1 RES1    0.0000
     28 C13        0.6822    3.0826    1.2630 C.ar      1 RES1    0.0000
     29 H11        0.7806    2.1204    1.3086 H         1 RES1    0.0000
     30 C14        1.7952    3.8966    1.1694 C.ar      1 RES1    0.0000
     31 H12        2.6649    3.5174    1.1346 H         1 RES1    0.0000
@<TRIPOS>BOND
     1    1    6 2
     2    2    5 2
     3    3    5 2
     4    4    6 1
     5    5   27 1
     6    6    7 1
     7    7    8 1
     8    9    7 1
     9   10    7 1
    10   11    4 1
    11   12   11 ar
    12   13   12 1
    13   14   12 ar
    14   15   14 1
    15   16   14 ar
    16   17   16 1
    17   18   16 ar
    18   19   18 1
    19   20   11 ar
    20   21   20 1
    21   22    4 1
    22   23   22 ar
    23   24   23 1
    24   25   23 ar
    25   26   25 1
    26   27   25 ar
    27   28   27 ar
    28   29   28 1
    29   30   22 ar
    30   31   30 1
    31   18   20 ar
    32   28   30 ar
@<TRIPOS>SUBSTRUCTURE
     1 RES1 1

@<TRIPOS>CRYSIN
  11.9900   15.0380    6.9656  90.0000  92.2030  90.0000  14 1

