# MOL2 file generated by ConQuest
# Please check atom types

@<TRIPOS>MOLECULE
LUYNUP
    43    48     1
SMALL
NO_CHARGES
****
Generated from CSD

@<TRIPOS>ATOM
      1 O1         8.6590    7.1411    2.2906 O.3       1 RES1    0.0000
      2 O2         5.7515    2.7777    0.2979 O.3       1 RES1    0.0000
      3 N1         7.4627    6.3580    2.1852 N.2       1 RES1    0.0000
      4 N2         6.7440    3.3285    1.2055 N.2       1 RES1    0.0000
      5 C1         6.5512    4.4065    3.5026 C.3       1 RES1    0.0000
      6 C2         7.4441    3.5992    4.5081 C.3       1 RES1    0.0000
      7 C3         8.8814    4.1311    4.4005 C.3       1 RES1    0.0000
      8 C4         8.6612    5.6251    4.0725 C.3       1 RES1    0.0000
      9 C5         7.4572    5.5601    3.1843 C.2       1 RES1    0.0000
     10 C6         9.7184    3.4503    3.3262 C.3       1 RES1    0.0000
     11 C7        10.9694    4.2682    2.9982 C.3       1 RES1    0.0000
     12 C8        10.5400    5.5802    2.3164 C.3       1 RES1    0.0000
     13 C9         9.5968    6.4242    3.1746 C.3       1 RES1    0.0000
     14 C10        5.1665    4.8167    4.1199 C.3       1 RES1    0.0000
     15 C11        4.0589    4.6003    3.0509 C.3       1 RES1    0.0000
     16 C12        4.6286    3.4124    2.2487 C.3       1 RES1    0.0000
     17 C13        6.1010    3.6512    2.2648 C.2       1 RES1    0.0000
     18 C14        3.8113    5.8249    2.1809 C.3       1 RES1    0.0000
     19 C15        3.1354    5.4313    0.8582 C.3       1 RES1    0.0000
     20 C16        4.1016    4.5873    0.0516 C.3       1 RES1    0.0000
     21 C17        4.4347    3.2670    0.7399 C.3       1 RES1    0.0000
     22 H1         6.9237    3.6406    5.4630 H         1 RES1    0.0000
     23 H2         7.2523    2.5177    4.4306 H         1 RES1    0.0000
     24 H3         9.3338    3.9833    5.3447 H         1 RES1    0.0000
     25 H4         8.4793    6.1464    4.8931 H         1 RES1    0.0000
     26 H5         9.1147    3.4278    2.5057 H         1 RES1    0.0000
     27 H6        10.0678    2.5177    3.5918 H         1 RES1    0.0000
     28 H7        11.6563    4.4798    3.8284 H         1 RES1    0.0000
     29 H8        11.5358    3.6287    2.4196 H         1 RES1    0.0000
     30 H9        10.0897    5.2363    1.4733 H         1 RES1    0.0000
     31 H10       11.2072    6.0282    2.1831 H         1 RES1    0.0000
     32 H11       10.1664    7.1629    3.6133 H         1 RES1    0.0000
     33 H12        4.8860    4.1961    4.7855 H         1 RES1    0.0000
     34 H13        5.2037    5.5909    4.5382 H         1 RES1    0.0000
     35 H14        3.1989    4.4089    3.5918 H         1 RES1    0.0000
     36 H15        4.2835    2.6477    2.7530 H         1 RES1    0.0000
     37 H16        4.6888    6.2291    2.0110 H         1 RES1    0.0000
     38 H17        3.3085    6.4655    2.6025 H         1 RES1    0.0000
     39 H18        2.3006    4.9408    1.1184 H         1 RES1    0.0000
     40 H19        2.7169    6.3001    0.3979 H         1 RES1    0.0000
     41 H20        4.9298    5.1535   -0.0645 H         1 RES1    0.0000
     42 H21        3.5714    4.4561   -0.9141 H         1 RES1    0.0000
     43 H22        3.7248    2.6359    0.4517 H         1 RES1    0.0000
@<TRIPOS>BOND
     1    1    3 1
     2    2    4 1
     3    3    9 2
     4    4   17 2
     5    5    6 1
     6    6    7 1
     7    7    8 1
     8    8    9 1
     9    9    5 1
    10   10    7 1
    11   11   10 1
    12   12   11 1
    13   13    1 1
    14   14    5 1
    15   15   14 1
    16   16   15 1
    17   17    5 1
    18   18   15 1
    19   19   18 1
    20   20   19 1
    21   21    2 1
    22   22    6 1
    23   23    6 1
    24   24    7 1
    25   25    8 1
    26   26   10 1
    27   27   10 1
    28   28   11 1
    29   29   11 1
    30   30   12 1
    31   31   12 1
    32   32   13 1
    33   33   14 1
    34   34   14 1
    35   35   15 1
    36   36   16 1
    37   37   18 1
    38   38   18 1
    39   39   19 1
    40   40   19 1
    41   41   20 1
    42   42   20 1
    43   43   21 1
    44    8   13 1
    45   12   13 1
    46   16   17 1
    47   16   21 1
    48   20   21 1
@<TRIPOS>SUBSTRUCTURE
     1 RES1 1

@<TRIPOS>CRYSIN
  10.9552   11.8200   10.7540  90.0000  90.0000  90.0000  19 1

