# MOL2 file generated by ConQuest
# Please check atom types

@<TRIPOS>MOLECULE
LUYPAX
    37    41     1
SMALL
NO_CHARGES
****
Generated from CSD

@<TRIPOS>ATOM
      1 O1        12.0071    2.8768    5.7010 O.3       1 RES1    0.0000
      2 O2         6.4233    2.5856    4.4212 O.3       1 RES1    0.0000
      3 N1        11.0714    2.0381    5.0654 N.2       1 RES1    0.0000
      4 N2         7.7569    3.0841    4.1770 N.2       1 RES1    0.0000
      5 C1         9.7698    2.1173    2.9536 C.3       1 RES1    0.0000
      6 C2         9.9233    2.9077    1.6443 C.3       1 RES1    0.0000
      7 C3        10.0339    4.4165    1.8461 C.3       1 RES1    0.0000
      8 C4        11.3328    4.7741    2.6045 C.3       1 RES1    0.0000
      9 C5        11.4662    3.8959    3.8003 C.2       1 RES1    0.0000
     10 C6        10.7634    2.6545    3.9493 C.2       1 RES1    0.0000
     11 C7        12.2156    3.9505    4.9341 C.2       1 RES1    0.0000
     12 C8         9.8962    0.5610    2.7082 C.3       1 RES1    0.0000
     13 C9         8.6177   -0.1408    3.2432 C.3       1 RES1    0.0000
     14 C10        7.5525    0.9755    3.1395 C.3       1 RES1    0.0000
     15 C11        8.3451    2.2074    3.4524 C.2       1 RES1    0.0000
     16 C12        8.7589   -0.6567    4.6684 C.3       1 RES1    0.0000
     17 C13        7.3794   -0.9328    5.2813 C.3       1 RES1    0.0000
     18 C14        6.6154    0.3774    5.4599 C.3       1 RES1    0.0000
     19 C15        6.4170    1.1346    4.1536 C.3       1 RES1    0.0000
     20 H1         9.1654    2.7336    1.0976 H         1 RES1    0.0000
     21 H2        10.7085    2.6062    1.2019 H         1 RES1    0.0000
     22 H3         9.2872    4.7195    2.3480 H         1 RES1    0.0000
     23 H4        10.0400    4.8445    0.9982 H         1 RES1    0.0000
     24 H5        11.2993    5.6824    2.8806 H         1 RES1    0.0000
     25 H6        12.0809    4.6451    2.0320 H         1 RES1    0.0000
     26 H7        12.8082    4.6594    5.1525 H         1 RES1    0.0000
     27 H8        10.6586    0.2271    3.1671 H         1 RES1    0.0000
     28 H9         9.9875    0.3909    1.7780 H         1 RES1    0.0000
     29 H10        8.3837   -0.8585    2.6670 H         1 RES1    0.0000
     30 H11        7.2107    1.0214    2.2541 H         1 RES1    0.0000
     31 H12        9.2093   -0.0055    5.1936 H         1 RES1    0.0000
     32 H13        9.2642   -1.4613    4.6610 H         1 RES1    0.0000
     33 H14        7.4881   -1.3514    6.1274 H         1 RES1    0.0000
     34 H15        6.8879   -1.5072    4.7052 H         1 RES1    0.0000
     35 H16        7.1021    0.9312    6.0593 H         1 RES1    0.0000
     36 H17        5.7622    0.1828    5.8292 H         1 RES1    0.0000
     37 H18        5.5913    0.8830    3.7561 H         1 RES1    0.0000
@<TRIPOS>BOND
     1    1    3 1
     2    2    4 1
     3    3   10 2
     4    4   15 2
     5    5    6 1
     6    6    7 1
     7    7    8 1
     8    8    9 1
     9    9   10 1
    10   10    5 1
    11   11    1 1
    12   12    5 1
    13   13   12 1
    14   14   13 1
    15   15    5 1
    16   16   13 1
    17   17   16 1
    18   18   17 1
    19   19    2 1
    20   20    6 1
    21   21    6 1
    22   22    7 1
    23   23    7 1
    24   24    8 1
    25   25    8 1
    26   26   11 1
    27   27   12 1
    28   28   12 1
    29   29   13 1
    30   30   14 1
    31   31   16 1
    32   32   16 1
    33   33   17 1
    34   34   17 1
    35   35   18 1
    36   36   18 1
    37   37   19 1
    38    9   11 2
    39   14   15 1
    40   14   19 1
    41   18   19 1
@<TRIPOS>SUBSTRUCTURE
     1 RES1 1

@<TRIPOS>CRYSIN
  13.1650    7.9120    6.2040  90.0000  98.5300  90.0000   4 1

