# MOL2 file generated by ConQuest
# Please check atom types

@<TRIPOS>MOLECULE
LUZXIP
    68    64     2
SMALL
NO_CHARGES
****
Generated from CSD

@<TRIPOS>ATOM
      1 O1        10.4565    1.6578    3.3014 O.3       1 RES1    0.0000
      2 O2         9.8261    4.7449    6.3923 O.2       1 RES1    0.0000
      3 N1         9.7033    4.1429    4.3310 N.3       1 RES1    0.0000
      4 N2         6.9437    2.2155    2.7134 N.pl3     1 RES1    0.0000
      5 N3         8.4700    1.4869    4.4732 N.am      1 RES1    0.0000
      6 H1         7.9941    1.0721    5.0698 H         1 RES1    0.0000
      7 O3        10.2382    0.1268    4.8709 O.2       1 RES1    0.0000
      8 C1         9.7747    2.5844    2.4103 C.3       1 RES1    0.0000
      9 H2        10.4508    3.1106    1.9335 H         1 RES1    0.0000
     10 C2         5.4215    0.5850    3.7515 C.ar      1 RES1    0.0000
     11 H3         6.1489    0.0528    3.9828 H         1 RES1    0.0000
     12 C3         7.8153    2.6123    3.8091 C.3       1 RES1    0.0000
     13 H4         7.2891    3.1106    4.4695 H         1 RES1    0.0000
     14 C4         8.9062    3.5423    3.2334 C.3       1 RES1    0.0000
     15 C5         8.9413    1.8464    1.3942 C.ar      1 RES1    0.0000
     16 C6         9.5485    1.3501    0.2426 C.ar      1 RES1    0.0000
     17 H5        10.4616    1.4753    0.1191 H         1 RES1    0.0000
     18 N4         9.1373    4.1848    5.5166 N.2       1 RES1    0.0000
     19 C7         7.5602    1.6667    1.5813 C.ar      1 RES1    0.0000
     20 C8         8.8179    0.6788   -0.7212 C.ar      1 RES1    0.0000
     21 H6         9.2380    0.3354   -1.4774 H         1 RES1    0.0000
     22 C9         5.6178    1.7754    3.0631 C.ar      1 RES1    0.0000
     23 C10        6.8257    1.0089    0.5913 C.ar      1 RES1    0.0000
     24 H7         5.9083    0.8949    0.6944 H         1 RES1    0.0000
     25 C11        9.7186    1.0396    4.2527 C.2       1 RES1    0.0000
     26 C12        7.4539    0.5223   -0.5389 C.ar      1 RES1    0.0000
     27 H8         6.9527    0.0867   -1.1892 H         1 RES1    0.0000
     28 C13        3.0459    0.9605    3.7355 C.ar      1 RES1    0.0000
     29 H9         2.1860    0.6915    3.9680 H         1 RES1    0.0000
     30 C14        8.3623    4.6509    2.3199 C.3       1 RES1    0.0000
     31 H10        7.9731    4.2373    1.5330 H         1 RES1    0.0000
     32 H11        9.1064    5.1963    2.0243 H         1 RES1    0.0000
     33 C15        7.3183    5.5634    2.9572 C.3       1 RES1    0.0000
     34 H12        6.5648    5.0305    3.2554 H         1 RES1    0.0000
     35 H13        7.7013    6.0009    3.7343 H         1 RES1    0.0000
     36 C16       11.0280    4.7489    4.1081 C.3       1 RES1    0.0000
     37 H14       11.3780    4.4314    3.2600 H         1 RES1    0.0000
     38 H15       11.6308    4.4465    4.8054 H         1 RES1    0.0000
     39 C17        4.1319    0.1948    4.0926 C.ar      1 RES1    0.0000
     40 H16        3.9992   -0.5916    4.5705 H         1 RES1    0.0000
     41 C18        4.5302    2.5456    2.6952 C.ar      1 RES1    0.0000
     42 H17        4.6573    3.3386    2.2274 H         1 RES1    0.0000
     43 C19        3.2426    2.1287    3.0263 C.ar      1 RES1    0.0000
     44 H18        2.5095    2.6396    2.7686 H         1 RES1    0.0000
     45 C20        6.8293    6.6254    1.9732 C.3       1 RES1    0.0000
     46 H19        6.2571    7.2519    2.4430 H         1 RES1    0.0000
     47 H20        7.5954    7.1181    1.6396 H         1 RES1    0.0000
     48 C21       11.0252    6.2695    4.0928 C.3       1 RES1    0.0000
     49 H21       10.4977    6.5812    3.3405 H         1 RES1    0.0000
     50 H22       10.6067    6.5944    4.9064 H         1 RES1    0.0000
     51 C22        6.0630    6.0542    0.7988 C.3       1 RES1    0.0000
     52 H23        6.6193    5.4281    0.3291 H         1 RES1    0.0000
     53 H24        5.8116    6.7658    0.2065 H         1 RES1    0.0000
     54 H25        5.2740    5.6071    1.1154 H         1 RES1    0.0000
     55 C23       12.5262    6.7432    4.2585 C.3       1 RES1    0.0000
     56 H26       12.5307    7.7135    4.2449 H         1 RES1    0.0000
     57 H27       12.8244    6.4700    5.1401 H         1 RES1    0.0000
     58 C24       13.5412    6.2722    3.2713 C.3       1 RES1    0.0000
     59 H28       14.3999    6.6339    3.5005 H         1 RES1    0.0000
     60 H29       13.2928    6.5680    2.3931 H         1 RES1    0.0000
     61 H30       13.5825    5.3132    3.2872 H         1 RES1    0.0000
     62 C25       11.9986    7.0315    3.3553 Du        2 SUP2    0.0000
     63 H31       11.8498    7.9829    3.4756 Du        2 SUP2    0.0000
     64 H32       11.9471    6.8261    2.4089 Du        2 SUP2    0.0000
     65 C26       13.3358    6.6320    3.9124 Du        2 SUP2    0.0000
     66 H33       14.0293    7.1106    3.4540 Du        2 SUP2    0.0000
     67 H34       13.4641    5.6881    3.7899 Du        2 SUP2    0.0000
     68 H35       13.3669    6.8393    4.8497 Du        2 SUP2    0.0000
@<TRIPOS>BOND
     1    1    8 1
     2    2   18 2
     3    3   14 1
     4    4   12 1
     5    5    6 1
     6    7   25 2
     7    8    9 1
     8   10   11 1
     9   12    5 1
    10   13   12 1
    11   14    8 1
    12   15    8 1
    13   16   15 ar
    14   17   16 1
    15   18    3 1
    16   19    4 1
    17   20   16 ar
    18   21   20 1
    19   22    4 1
    20   23   19 ar
    21   24   23 1
    22   25    1 1
    23   26   20 ar
    24   27   26 1
    25   28   29 1
    26   30   14 1
    27   31   30 1
    28   32   30 1
    29   33   30 1
    30   34   33 1
    31   35   33 1
    32   36    3 1
    33   37   36 1
    34   38   36 1
    35   39   10 ar
    36   40   39 1
    37   41   22 ar
    38   42   41 1
    39   43   28 ar
    40   44   43 1
    41   45   33 1
    42   46   45 1
    43   47   45 1
    44   48   36 1
    45   49   48 1
    46   50   48 1
    47   51   45 1
    48   52   51 1
    49   53   51 1
    50   54   51 1
    51   55   48 1
    52   56   55 1
    53   57   55 1
    54   58   55 1
    55   59   58 1
    56   60   58 1
    57   61   58 1
    58    5   25 1
    59   10   22 ar
    60   12   14 1
    61   15   19 ar
    62   23   26 ar
    63   28   39 ar
    64   41   43 ar
@<TRIPOS>SUBSTRUCTURE
     1 RES1 1
     2 SUP2 62

@<TRIPOS>CRYSIN
  10.6121   18.8410   11.9739  90.0000 108.6240  90.0000  14 1

