# MOL2 file generated by ConQuest
# Please check atom types

@<TRIPOS>MOLECULE
MABBUN
    46    47     1
SMALL
NO_CHARGES
****
Generated from CSD

@<TRIPOS>ATOM
      1 O1         3.6099   -0.0260    4.2754 O.3       1 RES1    0.0000
      2 N1         1.0751    1.1682    2.8799 N.2       1 RES1    0.0000
      3 O2        -1.0303    6.6873    5.7047 O.2       1 RES1    0.0000
      4 C1         0.6017    3.9070    4.2051 C.ar      1 RES1    0.0000
      5 H1         0.2319    3.9355    3.3414 H         1 RES1    0.0000
      6 C2         1.5308    2.9594    4.5509 C.ar      1 RES1    0.0000
      7 O3        -1.3080    5.7917    3.7658 O.2       1 RES1    0.0000
      8 N2        -0.7630    5.8371    4.8583 N.pl3     1 RES1    0.0000
      9 C3         2.1030    2.9088    5.8310 C.ar      1 RES1    0.0000
     10 C4         2.0863    1.8276    3.7180 C.3       1 RES1    0.0000
     11 H2         2.8231    2.1625    3.1495 H         1 RES1    0.0000
     12 C5         2.6451    0.8606    4.7666 C.3       1 RES1    0.0000
     13 H3         1.8868    0.3141    5.0932 H         1 RES1    0.0000
     14 C6         3.0788    1.7731    5.9261 C.3       1 RES1    0.0000
     15 H4         3.0044    1.3123    6.7882 H         1 RES1    0.0000
     16 H5         4.0003    2.0846    5.8069 H         1 RES1    0.0000
     17 C7         0.2276    4.8273    5.1830 C.ar      1 RES1    0.0000
     18 C8         1.4635    0.7399    1.7448 C.2       1 RES1    0.0000
     19 H6         2.3244    0.9800    1.4517 H         1 RES1    0.0000
     20 C9         0.7563    4.7961    6.4695 C.ar      1 RES1    0.0000
     21 H7         0.4767    5.4217    7.1126 H         1 RES1    0.0000
     22 C10        1.6978    3.8369    6.7890 C.ar      1 RES1    0.0000
     23 H8         2.0658    3.8096    7.6533 H         1 RES1    0.0000
     24 C11        0.1117    1.7796   -0.7629 C.3       1 RES1    0.0000
     25 H9        -0.8155    1.7757   -0.4785 H         1 RES1    0.0000
     26 H10        0.1622    2.0456   -1.6950 H         1 RES1    0.0000
     27 H11        0.6141    2.4065   -0.2190 H         1 RES1    0.0000
     28 C12        1.1543   -1.5732    0.9470 C.3       1 RES1    0.0000
     29 H12        0.7540   -2.1002    0.2244 H         1 RES1    0.0000
     30 H13        2.1254   -1.5745    0.8164 H         1 RES1    0.0000
     31 C13        0.6351   -0.1155    0.8551 C.3       1 RES1    0.0000
     32 H14       -0.3049   -0.0883    1.1652 H         1 RES1    0.0000
     33 C14        0.6986    0.3842   -0.6007 C.3       1 RES1    0.0000
     34 H15        1.6329    0.3933   -0.8975 H         1 RES1    0.0000
     35 H16        0.2076   -0.2388   -1.1760 H         1 RES1    0.0000
     36 C15        1.2889   -3.6772    2.3466 C.3       1 RES1    0.0000
     37 H17        2.2662   -3.7058    2.2790 H         1 RES1    0.0000
     38 H18        0.9210   -4.1601    1.5788 H         1 RES1    0.0000
     39 C16        0.8322   -2.2403    2.2898 C.3       1 RES1    0.0000
     40 H19        1.2669   -1.7367    3.0089 H         1 RES1    0.0000
     41 H20       -0.1350   -2.2053    2.4412 H         1 RES1    0.0000
     42 C17        0.8618   -4.3730    3.6171 C.3       1 RES1    0.0000
     43 H21        1.2006   -3.8849    4.3849 H         1 RES1    0.0000
     44 H22        1.2173   -5.2764    3.6280 H         1 RES1    0.0000
     45 H23       -0.1069   -4.4067    3.6577 H         1 RES1    0.0000
     46 H24        4.3138    0.4154    3.9334 H         1 RES1    0.0000
@<TRIPOS>BOND
     1    1   12 1
     2    2   10 1
     3    3    8 2
     4    4    5 1
     5    6    4 ar
     6    7    8 2
     7    8   17 1
     8    9    6 ar
     9   10    6 1
    10   11   10 1
    11   12   10 1
    12   13   12 1
    13   14    9 1
    14   15   14 1
    15   16   14 1
    16   17    4 ar
    17   18    2 2
    18   19   18 1
    19   20   17 ar
    20   21   20 1
    21   22    9 ar
    22   23   22 1
    23   24   25 1
    24   26   24 1
    25   27   24 1
    26   28   29 1
    27   30   28 1
    28   31   18 1
    29   32   31 1
    30   33   24 1
    31   34   33 1
    32   35   33 1
    33   36   37 1
    34   38   36 1
    35   39   28 1
    36   40   39 1
    37   41   39 1
    38   42   36 1
    39   43   42 1
    40   44   42 1
    41   45   42 1
    42   46    1 1
    43   12   14 1
    44   20   22 ar
    45   28   31 1
    46   31   33 1
    47   36   39 1
@<TRIPOS>SUBSTRUCTURE
     1 RES1 1

@<TRIPOS>CRYSIN
   4.7719   12.9800   27.0340  90.0000  90.0000  90.0000  19 1

