# MOL2 file generated by ConQuest
# Please check atom types

@<TRIPOS>MOLECULE
MABBIC
    40    40     2
SMALL
NO_CHARGES
****
Generated from CSD

@<TRIPOS>ATOM
      1 C1         1.5199    4.9855    1.4538 C.ar      1 RES1    0.0000
      2 C2         2.3176    4.8956    0.3126 C.ar      1 RES1    0.0000
      3 H1         2.1529    5.4596   -0.4081 H         1 RES1    0.0000
      4 C3         3.3540    3.9745    0.2411 C.ar      1 RES1    0.0000
      5 H2         3.8812    3.9305   -0.5232 H         1 RES1    0.0000
      6 C4         3.6063    3.1272    1.2920 C.ar      1 RES1    0.0000
      7 H3         4.3020    2.5126    1.2402 H         1 RES1    0.0000
      8 C5         2.8297    3.1913    2.4121 C.ar      1 RES1    0.0000
      9 H4         2.9982    2.6200    3.1264 H         1 RES1    0.0000
     10 C6         1.7948    4.1023    2.4887 C.ar      1 RES1    0.0000
     11 H5         1.2683    4.1248    3.2540 H         1 RES1    0.0000
     12 C7         0.3482    5.9422    1.4997 C.3       1 RES1    0.0000
     13 H6         0.0838    6.0666    0.5641 H         1 RES1    0.0000
     14 C8        -0.8906    5.3444    2.1900 C.3       1 RES1    0.0000
     15 H7        -1.1157    4.4977    1.7728 H         1 RES1    0.0000
     16 H8        -0.6904    5.1760    3.1232 H         1 RES1    0.0000
     17 C9        -2.0638    6.2802    2.0901 C.3       1 RES1    0.0000
     18 H9        -2.2941    6.4141    1.1582 H         1 RES1    0.0000
     19 H10       -2.8305    5.8892    2.5370 H         1 RES1    0.0000
     20 C10       -0.6580    8.1802    2.0608 C.3       1 RES1    0.0000
     21 H11       -0.4903    9.0208    2.5150 H         1 RES1    0.0000
     22 H12       -0.9118    8.3873    1.1472 H         1 RES1    0.0000
     23 C11        0.6451    7.3763    2.0312 C.3       1 RES1    0.0000
     24 C12        1.6944    8.0781    1.1633 C.3       1 RES1    0.0000
     25 H13        2.4800    7.5111    1.1204 H         1 RES1    0.0000
     26 H14        1.3416    8.1519    0.2632 H         1 RES1    0.0000
     27 C13        2.1234    9.4358    1.6076 C.2       1 RES1    0.0000
     28 C14        3.2558    9.8984    2.1265 C.2       1 RES1    0.0000
     29 H15        4.0119    9.3998    2.3353 H         1 RES1    0.0000
     30 C15        3.0903   11.3077    2.3027 C.2       1 RES1    0.0000
     31 H16        3.7166   11.9039    2.6458 H         1 RES1    0.0000
     32 C16        1.8855   11.5916    1.8864 C.2       1 RES1    0.0000
     33 H17        1.5138   12.4445    1.8941 H         1 RES1    0.0000
     34 N1         1.2086    7.2939    3.4474 N.pl3     1 RES1    0.0000
     35 O1        -1.7473    7.5402    2.6929 O.3       1 RES1    0.0000
     36 O2         0.5205    7.3144    4.3996 O.2       1 RES1    0.0000
     37 O3         2.4135    7.0682    3.5188 O.2       1 RES1    0.0000
     38 O4         1.2389   10.4637    1.4343 O.3       1 RES1    0.0000
     39 O5         0.6073    7.9745    4.2641 Du        2 SUP2    0.0000
     40 O6         2.1778    6.6652    3.7031 Du        2 SUP2    0.0000
@<TRIPOS>BOND
     1    1    2 ar
     2    2    3 1
     3    4    2 ar
     4    5    4 1
     5    6    4 ar
     6    7    6 1
     7    8    6 ar
     8    9    8 1
     9   10    1 ar
    10   11   10 1
    11   12    1 1
    12   13   12 1
    13   14   12 1
    14   15   14 1
    15   16   14 1
    16   17   14 1
    17   18   17 1
    18   19   17 1
    19   20   21 1
    20   22   20 1
    21   23   12 1
    22   24   23 1
    23   25   24 1
    24   26   24 1
    25   27   24 1
    26   28   27 2
    27   29   28 1
    28   30   28 1
    29   31   30 1
    30   32   30 2
    31   33   32 1
    32   34   23 1
    33   35   17 1
    34   36   34 2
    35   37   34 2
    36   38   27 1
    37    8   10 ar
    38   20   23 1
    39   20   35 1
    40   32   38 1
@<TRIPOS>SUBSTRUCTURE
     1 RES1 1
     2 SUP2 39

@<TRIPOS>CRYSIN
   7.5540   12.0680   15.7580  90.0000  90.0000  90.0000  19 1

