# MOL2 file generated by ConQuest
# Please check atom types

@<TRIPOS>MOLECULE
MABPAJ
    31    33     1
SMALL
NO_CHARGES
****
Generated from CSD

@<TRIPOS>ATOM
      1 N1         5.7499    0.2734    2.1793 N.3       1 RES1    0.0000
      2 H1         6.5327    0.5843    2.0066 H         1 RES1    0.0000
      3 N2         3.6193    0.7798    2.9350 N.am      1 RES1    0.0000
      4 H2         3.1496    1.3976    3.3066 H         1 RES1    0.0000
      5 O1         1.7712   -0.2540    2.1824 O.2       1 RES1    0.0000
      6 C1         5.2575   -0.7842    1.4371 C.ar      1 RES1    0.0000
      7 C2         3.9061   -1.0433    1.4487 C.ar      1 RES1    0.0000
      8 C3         3.3989   -2.0808    0.6919 C.ar      1 RES1    0.0000
      9 H3         2.4850   -2.2493    0.7118 H         1 RES1    0.0000
     10 O2         6.1504    6.5860    5.4241 O.2       1 RES1    0.0000
     11 N3         6.1947    5.5578    6.0291 N.pl3     1 RES1    0.0000
     12 C4         5.9873    4.3161    5.1907 C.ar      1 RES1    0.0000
     13 C5         5.9511    3.1332    5.8292 C.ar      1 RES1    0.0000
     14 H4         6.1013    3.0898    6.7450 H         1 RES1    0.0000
     15 C6         5.6996    2.0313    5.1425 C.ar      1 RES1    0.0000
     16 H5         5.6772    1.2148    5.5863 H         1 RES1    0.0000
     17 C7         5.4737    2.0671    3.7985 C.ar      1 RES1    0.0000
     18 C8         5.0600    0.7925    3.1129 C.3       1 RES1    0.0000
     19 H6         5.1754    0.1361    3.8310 H         1 RES1    0.0000
     20 C9         4.2029   -2.8679   -0.0890 C.ar      1 RES1    0.0000
     21 H7         3.8452   -3.5655   -0.5893 H         1 RES1    0.0000
     22 C10        3.0028   -0.1518    2.2190 C.2       1 RES1    0.0000
     23 O3         6.3338    5.4241    7.1909 O.2       1 RES1    0.0000
     24 C11        5.8028    4.4239    3.8278 C.ar      1 RES1    0.0000
     25 H8         5.8573    5.2465    3.3966 H         1 RES1    0.0000
     26 C12        5.5331    3.2582    3.1245 C.ar      1 RES1    0.0000
     27 H9         5.3939    3.2851    2.2054 H         1 RES1    0.0000
     28 C13        6.0812   -1.5819    0.6427 C.ar      1 RES1    0.0000
     29 H10        6.9972   -1.4209    0.6249 H         1 RES1    0.0000
     30 C14        5.5557   -2.6015   -0.1151 C.ar      1 RES1    0.0000
     31 H11        6.1167   -3.1163   -0.6490 H         1 RES1    0.0000
@<TRIPOS>BOND
     1    1    2 1
     2    3    4 1
     3    5   22 2
     4    6    1 1
     5    7    6 ar
     6    8    7 ar
     7    9    8 1
     8   10   11 2
     9   11   12 1
    10   12   13 ar
    11   13   14 1
    12   15   13 ar
    13   16   15 1
    14   17   15 ar
    15   18    1 1
    16   19   18 1
    17   20    8 ar
    18   21   20 1
    19   22    3 1
    20   23   11 2
    21   24   12 ar
    22   25   24 1
    23   26   17 ar
    24   27   26 1
    25   28    6 ar
    26   29   28 1
    27   30   20 ar
    28   31   30 1
    29    3   18 1
    30    7   22 1
    31   17   18 1
    32   24   26 ar
    33   28   30 ar
@<TRIPOS>SUBSTRUCTURE
     1 RES1 1

@<TRIPOS>CRYSIN
   6.9074    8.6886   10.5020  85.3670  89.7400  79.8320   2 1

