# MOL2 file generated by ConQuest
# Please check atom types

@<TRIPOS>MOLECULE
MABZOF
    41    42     1
SMALL
NO_CHARGES
****
Generated from CSD

@<TRIPOS>ATOM
      1 N1         2.1686    3.0119    3.2658 N.ar      1 RES1    0.0000
      2 C1         1.0709    2.3631    2.7624 C.ar      1 RES1    0.0000
      3 N2         0.9702    1.0779    3.0900 N.3       1 RES1    0.0000
      4 N3         0.1133    2.8615    1.9747 N.ar      1 RES1    0.0000
      5 C2         0.1997    4.1651    1.6738 C.ar      1 RES1    0.0000
      6 C3        -1.8711    3.9247    0.3840 C.3       1 RES1    0.0000
      7 C4        -2.9565    4.8358   -0.1248 C.3       1 RES1    0.0000
      8 C5        -4.1695    4.0813   -0.6392 C.3       1 RES1    0.0000
      9 C6        -5.2242    5.0089   -1.1977 C.3       1 RES1    0.0000
     10 N4        -0.7259    4.6845    0.8799 N.3       1 RES1    0.0000
     11 C7         1.2482    4.9928    2.2251 C.ar      1 RES1    0.0000
     12 N5         1.3677    6.3333    2.1348 N.2       1 RES1    0.0000
     13 O1         0.5202    6.9520    1.4152 O.2       1 RES1    0.0000
     14 C8         2.2183    4.2918    3.0015 C.ar      1 RES1    0.0000
     15 O2         3.2364    5.0188    3.4674 O.3       1 RES1    0.0000
     16 C9         4.2739    4.3167    4.2176 C.3       1 RES1    0.0000
     17 C10        5.1445    5.3724    4.8230 C.ar      1 RES1    0.0000
     18 C11        5.9856    6.1367    4.0177 C.ar      1 RES1    0.0000
     19 C12        6.7656    7.1411    4.5657 C.ar      1 RES1    0.0000
     20 C13        6.7247    7.3735    5.9237 C.ar      1 RES1    0.0000
     21 C14        5.8955    6.6299    6.7334 C.ar      1 RES1    0.0000
     22 C15        5.1029    5.6341    6.1833 C.ar      1 RES1    0.0000
     23 H1         0.2959    0.5989    2.7903 H         1 RES1    0.0000
     24 H2         1.5782    0.7063    3.6061 H         1 RES1    0.0000
     25 H3        -2.2320    3.3609    1.1141 H         1 RES1    0.0000
     26 H4        -1.5758    3.3265   -0.3473 H         1 RES1    0.0000
     27 H5        -2.5916    5.3959   -0.8547 H         1 RES1    0.0000
     28 H6        -3.2395    5.4400    0.6068 H         1 RES1    0.0000
     29 H7        -3.8842    3.4504   -1.3462 H         1 RES1    0.0000
     30 H8        -4.5607    3.5523    0.1009 H         1 RES1    0.0000
     31 H9        -5.4714    5.6699   -0.5174 H         1 RES1    0.0000
     32 H10       -6.0161    4.4886   -1.4499 H         1 RES1    0.0000
     33 H11       -4.8702    5.4689   -1.9875 H         1 RES1    0.0000
     34 H12       -0.6466    5.5281    0.6399 H         1 RES1    0.0000
     35 H13        4.8025    3.7354    3.6162 H         1 RES1    0.0000
     36 H14        3.8687    3.7547    4.9249 H         1 RES1    0.0000
     37 H15        6.0247    5.9673    3.0843 H         1 RES1    0.0000
     38 H16        7.3268    7.6677    4.0082 H         1 RES1    0.0000
     39 H17        7.2718    8.0505    6.3027 H         1 RES1    0.0000
     40 H18        5.8667    6.7989    7.6676 H         1 RES1    0.0000
     41 H19        4.5266    5.1274    6.7438 H         1 RES1    0.0000
@<TRIPOS>BOND
     1    1    2 ar
     2    2    3 1
     3    3   23 1
     4    4    2 ar
     5    5    4 ar
     6    6    7 1
     7    7    8 1
     8    8    9 1
     9    9   31 1
    10   10    5 1
    11   11    5 ar
    12   12   11 1
    13   13   12 2
    14   14    1 ar
    15   15   14 1
    16   16   15 1
    17   17   16 1
    18   18   17 ar
    19   19   18 ar
    20   20   19 ar
    21   21   20 ar
    22   22   17 ar
    23   24    3 1
    24   25    6 1
    25   26    6 1
    26   27    7 1
    27   28    7 1
    28   29    8 1
    29   30    8 1
    30   32    9 1
    31   33    9 1
    32   34   10 1
    33   35   16 1
    34   36   16 1
    35   37   18 1
    36   38   19 1
    37   39   20 1
    38   40   21 1
    39   41   22 1
    40    6   10 1
    41   11   14 ar
    42   21   22 ar
@<TRIPOS>SUBSTRUCTURE
     1 RES1 1

@<TRIPOS>CRYSIN
   7.6146   13.7686   16.1215  90.0000 116.6180  90.0000  14 1

