# MOL2 file generated by ConQuest
# Please check atom types

@<TRIPOS>MOLECULE
MABZUL
    65    66     1
SMALL
NO_CHARGES
****
Generated from CSD

@<TRIPOS>ATOM
      1 N1         1.4377    0.3017   11.6124 N.ar      1 RES1    0.0000
      2 C1         0.4257    0.6441   10.7582 C.ar      1 RES1    0.0000
      3 N2        -0.7968    0.3833   11.1849 N.3       1 RES1    0.0000
      4 N3         0.5399    1.2161    9.5495 N.ar      1 RES1    0.0000
      5 C2         1.7720    1.5230    9.1498 C.ar      1 RES1    0.0000
      6 C3         0.7917    2.6214    7.1908 C.3       1 RES1    0.0000
      7 C4         0.5496    1.8215    5.9205 C.3       1 RES1    0.0000
      8 C5        -0.7621    2.2754    5.2865 C.3       1 RES1    0.0000
      9 C6        -1.1954    1.5315    4.0305 C.3       1 RES1    0.0000
     10 C7        -2.5824    1.9709    3.5847 C.3       1 RES1    0.0000
     11 C8        -3.0887    1.3729    2.2825 C.3       1 RES1    0.0000
     12 C9        -4.4461    1.9384    1.8813 C.3       1 RES1    0.0000
     13 C10       -4.9759    1.4630    0.5376 C.3       1 RES1    0.0000
     14 C11       -6.3258    2.0799    0.1828 C.3       1 RES1    0.0000
     15 C12       -6.9022    1.6333   -1.1466 C.3       1 RES1    0.0000
     16 C13       -8.2528    2.2618   -1.4530 C.3       1 RES1    0.0000
     17 C14       -8.8631    1.8016   -2.7639 C.3       1 RES1    0.0000
     18 N4         1.9270    2.1516    7.9819 N.3       1 RES1    0.0000
     19 C15        2.9409    1.1923    9.9412 C.ar      1 RES1    0.0000
     20 O1         4.4874    2.0458    8.5459 O.2       1 RES1    0.0000
     21 N5         4.2287    1.4338    9.6396 N.2       1 RES1    0.0000
     22 C16        2.6406    0.5775   11.2024 C.ar      1 RES1    0.0000
     23 C17        4.5985   -0.3458   14.1143 C.ar      1 RES1    0.0000
     24 C18        4.9151    0.5013   15.1640 C.ar      1 RES1    0.0000
     25 C19        6.0689    0.3111   15.9045 C.ar      1 RES1    0.0000
     26 C20        6.9398   -0.7092   15.5715 C.ar      1 RES1    0.0000
     27 C21        6.6451   -1.5554   14.5209 C.ar      1 RES1    0.0000
     28 C22        5.4616   -1.3887   13.8100 C.ar      1 RES1    0.0000
     29 C23        3.3266   -0.1676   13.3385 C.3       1 RES1    0.0000
     30 O2         3.6780    0.2906   12.0007 O.3       1 RES1    0.0000
     31 H1        -1.4909    0.5844   10.6828 H         1 RES1    0.0000
     32 H2        -0.9179    0.0089   11.9716 H         1 RES1    0.0000
     33 H3         0.9442    3.5686    6.9471 H         1 RES1    0.0000
     34 H4        -0.0244    2.5834    7.7515 H         1 RES1    0.0000
     35 H5         0.5038    0.8559    6.1343 H         1 RES1    0.0000
     36 H6         1.2973    1.9632    5.2856 H         1 RES1    0.0000
     37 H7        -1.4801    2.1865    5.9616 H         1 RES1    0.0000
     38 H8        -0.6831    3.2374    5.0645 H         1 RES1    0.0000
     39 H9        -0.5459    1.7064    3.3040 H         1 RES1    0.0000
     40 H10       -1.2005    0.5582    4.2095 H         1 RES1    0.0000
     41 H11       -3.2255    1.7417    4.3022 H         1 RES1    0.0000
     42 H12       -2.5814    2.9571    3.4936 H         1 RES1    0.0000
     43 H13       -3.1620    0.3911    2.3817 H         1 RES1    0.0000
     44 H14       -2.4336    1.5575    1.5625 H         1 RES1    0.0000
     45 H15       -5.1044    1.6985    2.5796 H         1 RES1    0.0000
     46 H16       -4.3808    2.9257    1.8615 H         1 RES1    0.0000
     47 H17       -5.0665    0.4772    0.5559 H         1 RES1    0.0000
     48 H18       -4.3199    1.6926   -0.1685 H         1 RES1    0.0000
     49 H19       -6.9718    1.8546    0.8971 H         1 RES1    0.0000
     50 H20       -6.2277    3.0645    0.1685 H         1 RES1    0.0000
     51 H21       -7.0012    0.6486   -1.1393 H         1 RES1    0.0000
     52 H22       -6.2671    1.8688   -1.8679 H         1 RES1    0.0000
     53 H23       -8.8785    2.0463   -0.7181 H         1 RES1    0.0000
     54 H24       -8.1479    3.2460   -1.4783 H         1 RES1    0.0000
     55 H25       -8.2514    2.0113   -3.4999 H         1 RES1    0.0000
     56 H26       -9.7163    2.2624   -2.9060 H         1 RES1    0.0000
     57 H27       -9.0158    0.8344   -2.7313 H         1 RES1    0.0000
     58 H28        2.7421    2.2870    7.6778 H         1 RES1    0.0000
     59 H29        4.3335    1.2207   15.3788 H         1 RES1    0.0000
     60 H30        6.2621    0.8814   16.6402 H         1 RES1    0.0000
     61 H31        7.7416   -0.8294   16.0674 H         1 RES1    0.0000
     62 H32        7.2494   -2.2499   14.2838 H         1 RES1    0.0000
     63 H33        5.2424   -1.9935   13.1109 H         1 RES1    0.0000
     64 H34        2.8370   -1.0264   13.2856 H         1 RES1    0.0000
     65 H35        2.7456    0.4978   13.7847 H         1 RES1    0.0000
@<TRIPOS>BOND
     1    1    2 ar
     2    2    3 1
     3    3   31 1
     4    4    2 ar
     5    5    4 ar
     6    6    7 1
     7    7    8 1
     8    8    9 1
     9    9   10 1
    10   10   11 1
    11   11   12 1
    12   12   13 1
    13   13   14 1
    14   14   15 1
    15   15   16 1
    16   16   17 1
    17   17   55 1
    18   18    5 1
    19   19    5 ar
    20   20   21 2
    21   21   19 1
    22   22    1 ar
    23   23   24 ar
    24   24   25 ar
    25   25   26 ar
    26   26   27 ar
    27   27   28 ar
    28   28   23 ar
    29   29   23 1
    30   30   22 1
    31   32    3 1
    32   33    6 1
    33   34    6 1
    34   35    7 1
    35   36    7 1
    36   37    8 1
    37   38    8 1
    38   39    9 1
    39   40    9 1
    40   41   10 1
    41   42   10 1
    42   43   11 1
    43   44   11 1
    44   45   12 1
    45   46   12 1
    46   47   13 1
    47   48   13 1
    48   49   14 1
    49   50   14 1
    50   51   15 1
    51   52   15 1
    52   53   16 1
    53   54   16 1
    54   56   17 1
    55   57   17 1
    56   58   18 1
    57   59   24 1
    58   60   25 1
    59   61   26 1
    60   62   27 1
    61   63   28 1
    62   64   29 1
    63   65   29 1
    64    6   18 1
    65   19   22 ar
    66   29   30 1
@<TRIPOS>SUBSTRUCTURE
     1 RES1 1

@<TRIPOS>CRYSIN
   7.3567    7.7784   21.4725  92.0000  99.8400 108.7600   2 1

