# MOL2 file generated by ConQuest
# Please check atom types

@<TRIPOS>MOLECULE
MABZOX01
    24    24     1
SMALL
NO_CHARGES
****
Generated from CSD

@<TRIPOS>ATOM
      1 C1         0.6504    4.4640    3.2566 C.ar      1 RES1    0.0000
      2 C2         1.1635    3.6497    5.4694 C.ar      1 RES1    0.0000
      3 H1         1.0954    2.9680    6.0989 H         1 RES1    0.0000
      4 C3         1.9253    5.7991    4.8022 C.ar      1 RES1    0.0000
      5 H2         2.3909    6.5855    4.9744 H         1 RES1    0.0000
      6 N1         2.4366    4.9860    7.0315 N.3       1 RES1    0.0000
      7 C4         1.8445    4.8201    5.8005 C.ar      1 RES1    0.0000
      8 C5         0.5902    3.4850    4.2283 C.ar      1 RES1    0.0000
      9 H3         0.1481    2.6887    4.0386 H         1 RES1    0.0000
     10 C6         1.3381    5.6282    3.5829 C.ar      1 RES1    0.0000
     11 H4         1.4001    6.3087    2.9523 H         1 RES1    0.0000
     12 C7         0.0021    4.2541    1.9732 C.2       1 RES1    0.0000
     13 H5        -0.4172    3.4404    1.8087 H         1 RES1    0.0000
     14 N2        -0.0128    5.1408    1.0704 N.2       1 RES1    0.0000
     15 O1        -0.7229    4.7334   -0.0739 O.3       1 RES1    0.0000
     16 H6        -0.6771    5.3179   -0.6461 H         1 RES1    0.0000
     17 C8         2.2492    4.0207    8.0744 C.3       1 RES1    0.0000
     18 H7         1.3208    3.9891    8.3174 H         1 RES1    0.0000
     19 H8         2.7717    4.2708    8.8397 H         1 RES1    0.0000
     20 H9         2.5289    3.1562    7.7647 H         1 RES1    0.0000
     21 C9         2.9710    6.2425    7.4430 C.3       1 RES1    0.0000
     22 H10        3.4442    6.6450    6.7107 H         1 RES1    0.0000
     23 H11        3.5746    6.1087    8.1783 H         1 RES1    0.0000
     24 H12        2.2554    6.8202    7.7171 H         1 RES1    0.0000
@<TRIPOS>BOND
     1    1    8 ar
     2    2    3 1
     3    4    5 1
     4    6    7 1
     5    7    2 ar
     6    8    2 ar
     7    9    8 1
     8   10    1 ar
     9   11   10 1
    10   12    1 1
    11   13   12 1
    12   14   12 2
    13   15   14 1
    14   16   15 1
    15   17    6 1
    16   18   17 1
    17   19   17 1
    18   20   17 1
    19   21    6 1
    20   22   21 1
    21   23   21 1
    22   24   21 1
    23    4    7 ar
    24    4   10 ar
@<TRIPOS>SUBSTRUCTURE
     1 RES1 1

@<TRIPOS>CRYSIN
   7.7156    6.1923   19.1653  90.0000  96.0320  90.0000  14 1

