# MOL2 file generated by ConQuest
# Please check atom types

@<TRIPOS>MOLECULE
MACBIC
    40    41     1
SMALL
NO_CHARGES
****
Generated from CSD

@<TRIPOS>ATOM
      1 N1        -0.2053    5.1368    4.6209 N.ar      1 RES1    0.0000
      2 C1        -0.3115    4.6062    5.8878 C.ar      1 RES1    0.0000
      3 N2        -1.0182    5.3539    6.7241 N.3       1 RES1    0.0000
      4 N3         0.1866    3.4569    6.3432 N.ar      1 RES1    0.0000
      5 N4         1.4197    1.5852    5.8800 N.3       1 RES1    0.0000
      6 C2         1.0904    3.1696    4.1085 C.ar      1 RES1    0.0000
      7 N5         1.8016    2.5468    3.1410 N.2       1 RES1    0.0000
      8 O1         2.3379    1.4228    3.4299 O.2       1 RES1    0.0000
      9 C3         0.8884    2.7272    5.4675 C.ar      1 RES1    0.0000
     10 C4         1.3078    1.0546    7.2338 C.3       1 RES1    0.0000
     11 C5         1.9016   -0.3314    7.2878 C.3       1 RES1    0.0000
     12 C6         1.8382   -0.9583    8.6672 C.3       1 RES1    0.0000
     13 C7         2.5021   -2.3329    8.6916 C.3       1 RES1    0.0000
     14 C8         0.4889    4.4160    3.7862 C.ar      1 RES1    0.0000
     15 C9         0.7662    6.5555    0.8832 C.ar      1 RES1    0.0000
     16 C10        1.5584    7.6648    0.8767 C.ar      1 RES1    0.0000
     17 N6         2.1980    8.1447   -0.2072 N.ar      1 RES1    0.0000
     18 C11        2.0491    7.4525   -1.3305 C.ar      1 RES1    0.0000
     19 C12        1.2803    6.3473   -1.4321 C.ar      1 RES1    0.0000
     20 C13        0.6048    5.8959   -0.3162 C.ar      1 RES1    0.0000
     21 C14        0.0962    6.1196    2.1559 C.3       1 RES1    0.0000
     22 O2         0.6802    4.8437    2.5277 O.3       1 RES1    0.0000
     23 H1        -1.1443    5.0927    7.5333 H         1 RES1    0.0000
     24 H2        -1.3529    6.1008    6.4573 H         1 RES1    0.0000
     25 H3         1.8638    1.1224    5.3068 H         1 RES1    0.0000
     26 H4         0.3753    1.0220    7.4961 H         1 RES1    0.0000
     27 H5         1.7771    1.6366    7.8522 H         1 RES1    0.0000
     28 H6         2.8282   -0.2873    7.0050 H         1 RES1    0.0000
     29 H7         1.4277   -0.9003    6.6604 H         1 RES1    0.0000
     30 H8         0.9096   -1.0465    8.9372 H         1 RES1    0.0000
     31 H9         2.2815   -0.3771    9.3048 H         1 RES1    0.0000
     32 H10        1.9949   -2.9427    8.1491 H         1 RES1    0.0000
     33 H11        2.5325   -2.6570    9.5941 H         1 RES1    0.0000
     34 H12        3.3940   -2.2627    8.3458 H         1 RES1    0.0000
     35 H13        1.6664    8.1227    1.6789 H         1 RES1    0.0000
     36 H14        2.4992    7.7448   -2.0890 H         1 RES1    0.0000
     37 H15        1.2063    5.8959   -2.2420 H         1 RES1    0.0000
     38 H16        0.0453    5.1539   -0.3728 H         1 RES1    0.0000
     39 H17        0.2452    6.7750    2.8552 H         1 RES1    0.0000
     40 H18       -0.8594    6.0257    2.0183 H         1 RES1    0.0000
@<TRIPOS>BOND
     1    1    2 ar
     2    2    3 1
     3    3   23 1
     4    4    2 ar
     5    5    9 1
     6    6    7 1
     7    7    8 2
     8    9    4 ar
     9   10    5 1
    10   11   10 1
    11   12   11 1
    12   13   12 1
    13   14    1 ar
    14   15   16 ar
    15   16   17 ar
    16   17   18 ar
    17   18   19 ar
    18   19   20 ar
    19   20   15 ar
    20   21   15 1
    21   22   14 1
    22   24    3 1
    23   25    5 1
    24   26   10 1
    25   27   10 1
    26   28   11 1
    27   29   11 1
    28   30   12 1
    29   31   12 1
    30   32   13 1
    31   33   13 1
    32   34   13 1
    33   35   16 1
    34   36   18 1
    35   37   19 1
    36   38   20 1
    37   39   21 1
    38   40   21 1
    39    6    9 ar
    40    6   14 ar
    41   21   22 1
@<TRIPOS>SUBSTRUCTURE
     1 RES1 1

@<TRIPOS>CRYSIN
  28.3925    8.1627   15.1540  90.0000 121.9700  90.0000  15 1

