# MOL2 file generated by ConQuest
# Please check atom types

@<TRIPOS>MOLECULE
MACINA10
    29    29     1
SMALL
NO_CHARGES
****
Generated from CSD

@<TRIPOS>ATOM
      1 C1         5.0665    0.1500    4.0067 C.ar      1 RES1    0.0000
      2 C2         3.7078    0.3755    3.8455 C.ar      1 RES1    0.0000
      3 C3         2.8424    0.3548    4.9245 C.ar      1 RES1    0.0000
      4 C4         3.2596    0.0249    6.2372 C.ar      1 RES1    0.0000
      5 C5         4.6599   -0.1436    6.3757 C.ar      1 RES1    0.0000
      6 C6         5.5152   -0.0853    5.3133 C.ar      1 RES1    0.0000
      7 C7         5.9500    0.1735    2.8493 C.2       1 RES1    0.0000
      8 C8         7.2503   -0.0740    2.8240 C.2       1 RES1    0.0000
      9 C9         8.0332   -0.0370    1.5924 C.2       1 RES1    0.0000
     10 O1         7.4553    0.1941    0.5003 O.3       1 RES1    0.0000
     11 O2         9.2662   -0.2368    1.6735 O.2       1 RES1    0.0000
     12 N1         1.5012    0.8547    4.6386 N.pl3     1 RES1    0.0000
     13 O3         0.9492    0.4786    3.6215 O.2       1 RES1    0.0000
     14 O4         1.0267    1.6860    5.4056 O.2       1 RES1    0.0000
     15 N2         2.4214   -0.1557    7.2909 N.3       1 RES1    0.0000
     16 C10        1.0365   -0.5703    7.1410 C.3       1 RES1    0.0000
     17 C11        2.9755   -0.3079    8.6271 C.3       1 RES1    0.0000
     18 H1         3.3470    0.6187    3.0157 H         1 RES1    0.0000
     19 H2         4.9926   -0.3200    7.2168 H         1 RES1    0.0000
     20 H3         6.4028   -0.2773    5.4911 H         1 RES1    0.0000
     21 H4         5.5271    0.3840    2.0221 H         1 RES1    0.0000
     22 H5         7.7179   -0.3200    3.5561 H         1 RES1    0.0000
     23 H6         7.8775    0.2489   -0.1395 H         1 RES1    0.0000
     24 H7         0.4406    0.2062    7.1994 H         1 RES1    0.0000
     25 H8         0.8675   -0.9387    6.2755 H         1 RES1    0.0000
     26 H9         0.8593   -1.2089    7.7398 H         1 RES1    0.0000
     27 H10        3.6319    0.3484    8.7508 H         1 RES1    0.0000
     28 H11        2.2863   -0.1991    9.2564 H         1 RES1    0.0000
     29 H12        3.4292   -1.1378    8.7857 H         1 RES1    0.0000
@<TRIPOS>BOND
     1    1    2 ar
     2    2    3 ar
     3    3    4 ar
     4    4    5 ar
     5    5    6 ar
     6    6    1 ar
     7    7    1 1
     8    8    7 2
     9    9    8 1
    10   10    9 1
    11   11    9 2
    12   12    3 1
    13   13   12 2
    14   14   12 2
    15   15    4 1
    16   16   15 1
    17   17   15 1
    18   18    2 1
    19   19    5 1
    20   20    6 1
    21   21    7 1
    22   22    8 1
    23   23   10 1
    24   24   16 1
    25   25   16 1
    26   26   16 1
    27   27   17 1
    28   28   17 1
    29   29   17 1
@<TRIPOS>SUBSTRUCTURE
     1 RES1 1

@<TRIPOS>CRYSIN
  18.2130    7.1110    8.7360  90.0000  93.8800  90.0000  14 1

