# MOL2 file generated by ConQuest
# Please check atom types

@<TRIPOS>MOLECULE
MACLUY
    34    34     1
SMALL
NO_CHARGES
****
Generated from CSD

@<TRIPOS>ATOM
      1 N1        10.7767    4.8851    7.4718 N.am      1 RES1    0.0000
      2 C1        10.6276    5.1163    6.0368 C.3       1 RES1    0.0000
      3 C2        11.9247    4.3346    7.9788 C.2       1 RES1    0.0000
      4 N2        12.8463    3.9424    7.1196 N.3       1 RES1    0.0000
      5 C3        14.0763    3.2947    7.5315 C.3       1 RES1    0.0000
      6 C4        15.2122    4.2672    7.6374 C.2       1 RES1    0.0000
      7 O1        15.2262    5.3377    7.0997 O.2       1 RES1    0.0000
      8 O2        16.2163    3.7758    8.3527 O.3       1 RES1    0.0000
      9 C5        14.5268    2.2110    6.4877 C.3       1 RES1    0.0000
     10 C6        13.5034    1.2100    6.0622 C.3       1 RES1    0.0000
     11 C7        12.6684    1.6355    4.9169 C.2       1 RES1    0.0000
     12 O3        12.5189    2.8247    4.5955 O.2       1 RES1    0.0000
     13 O4        12.0704    0.6567    4.3248 O.3       1 RES1    0.0000
     14 N3        12.1519    4.1353    9.2616 N.2       1 RES1    0.0000
     15 C8        11.2490    4.5213   10.1380 C.2       1 RES1    0.0000
     16 N4        11.4606    4.2672   11.4109 N.3       1 RES1    0.0000
     17 C9        10.0043    5.1426    9.7261 C.2       1 RES1    0.0000
     18 N5         8.9926    5.5605   10.5083 N.2       1 RES1    0.0000
     19 O5         9.1704    5.4821   11.7721 O.2       1 RES1    0.0000
     20 C10        9.7499    5.2967    8.3155 C.2       1 RES1    0.0000
     21 O6         8.7040    5.7487    7.8529 O.2       1 RES1    0.0000
     22 H1        11.3441    5.7049    5.7236 H         1 RES1    0.0000
     23 H2         9.7596    5.5376    5.8621 H         1 RES1    0.0000
     24 H3        10.6761    4.2603    5.5615 H         1 RES1    0.0000
     25 H4        12.7092    4.0791    6.2604 H         1 RES1    0.0000
     26 H5        13.9345    2.8573    8.4188 H         1 RES1    0.0000
     27 H6        17.3773    4.1916    8.0974 H         1 RES1    0.0000
     28 H7        14.8510    2.6803    5.6792 H         1 RES1    0.0000
     29 H8        15.2957    1.7188    6.8706 H         1 RES1    0.0000
     30 H9        13.9636    0.3679    5.8213 H         1 RES1    0.0000
     31 H10       12.9092    1.0177    6.8308 H         1 RES1    0.0000
     32 H11       11.3169    0.9379    3.4068 H         1 RES1    0.0000
     33 H12       12.1927    3.8486   11.6599 H         1 RES1    0.0000
     34 H13       10.8684    4.5158   12.0130 H         1 RES1    0.0000
@<TRIPOS>BOND
     1    1    2 1
     2    2   22 1
     3    3    1 1
     4    4    3 1
     5    5    4 1
     6    6    5 1
     7    7    6 2
     8    8    6 1
     9    9    5 1
    10   10    9 1
    11   11   10 1
    12   12   11 2
    13   13   11 1
    14   14    3 2
    15   15   14 1
    16   16   15 1
    17   17   15 2
    18   18   17 1
    19   19   18 2
    20   20    1 1
    21   21   20 2
    22   23    2 1
    23   24    2 1
    24   25    4 1
    25   26    5 1
    26   27    8 1
    27   28    9 1
    28   29    9 1
    29   30   10 1
    30   31   10 1
    31   32   13 1
    32   33   16 1
    33   34   16 1
    34   17   20 1
@<TRIPOS>SUBSTRUCTURE
     1 RES1 1

@<TRIPOS>CRYSIN
  19.4182    6.9420    9.0534  90.0000  90.0000  90.0000  18 1

