# MOL2 file generated by ConQuest
# Please check atom types

@<TRIPOS>MOLECULE
MADKUZ
    26    26     1
SMALL
NO_CHARGES
****
Generated from CSD

@<TRIPOS>ATOM
      1 C1        -3.3017    9.8402    8.1166 C.ar      1 RES1    0.0000
      2 C2        -2.2526    8.9491    8.0878 C.ar      1 RES1    0.0000
      3 C3        -2.1676    8.0338    7.0528 C.ar      1 RES1    0.0000
      4 C4        -3.1717    8.0578    6.1010 C.ar      1 RES1    0.0000
      5 C5        -4.2007    8.9708    6.2281 C.ar      1 RES1    0.0000
      6 C6        -1.0491    7.0087    6.9848 C.3       1 RES1    0.0000
      7 C7         0.2061    7.5595    6.2815 C.3       1 RES1    0.0000
      8 C8         0.8102    8.7575    6.9744 C.3       1 RES1    0.0000
      9 C9        -0.0397    7.8017    4.8017 C.3       1 RES1    0.0000
     10 N1        -4.2851    9.8632    7.2113 N.ar      1 RES1    0.0000
     11 N2         1.2198    6.3981    6.3380 N.pl3     1 RES1    0.0000
     12 O1        -0.6691    6.5849    8.2756 O.3       1 RES1    0.0000
     13 O2         0.8606    5.3028    5.9469 O.2       1 RES1    0.0000
     14 O3         2.3237    6.6074    6.7538 O.2       1 RES1    0.0000
     15 H1        -3.3270   10.4638    8.8066 H         1 RES1    0.0000
     16 H2        -1.6074    8.9616    8.7574 H         1 RES1    0.0000
     17 H3        -3.1543    7.4655    5.3842 H         1 RES1    0.0000
     18 H4        -4.8748    8.9616    5.5877 H         1 RES1    0.0000
     19 H5        -1.3705    6.2304    6.4840 H         1 RES1    0.0000
     20 H6         1.6448    8.9819    6.5557 H         1 RES1    0.0000
     21 H7         0.9621    8.5492    7.8996 H         1 RES1    0.0000
     22 H8         0.2089    9.5020    6.9091 H         1 RES1    0.0000
     23 H9        -0.6598    8.5269    4.6946 H         1 RES1    0.0000
     24 H10       -0.4028    7.0084    4.4033 H         1 RES1    0.0000
     25 H11        0.7895    8.0251    4.3723 H         1 RES1    0.0000
     26 H12       -1.2677    6.0333    8.5132 H         1 RES1    0.0000
@<TRIPOS>BOND
     1    1    2 ar
     2    2    3 ar
     3    3    4 ar
     4    4    5 ar
     5    5   10 ar
     6    6    3 1
     7    7    6 1
     8    8    7 1
     9    9    7 1
    10   10    1 ar
    11   11    7 1
    12   12    6 1
    13   13   11 2
    14   14   11 2
    15   15    1 1
    16   16    2 1
    17   17    4 1
    18   18    5 1
    19   19    6 1
    20   20    8 1
    21   21    8 1
    22   22    8 1
    23   23    9 1
    24   24    9 1
    25   25    9 1
    26   26   12 1
@<TRIPOS>SUBSTRUCTURE
     1 RES1 1

@<TRIPOS>CRYSIN
   8.8723   10.1571   10.8561  90.0000  99.4600  90.0000 231 1

