# MOL2 file generated by ConQuest
# Please check atom types

@<TRIPOS>MOLECULE
MAGHEI
    43    45     1
SMALL
NO_CHARGES
****
Generated from CSD

@<TRIPOS>ATOM
      1 O1         7.1454    8.7822    0.2749 O.2       1 RES1    0.0000
      2 N1         7.2715    7.8437    1.1532 N.pl3     1 RES1    0.0000
      3 C1         7.4556    5.8139    3.2459 C.3       1 RES1    0.0000
      4 C2         6.9327    6.1091    4.6780 C.3       1 RES1    0.0000
      5 C3         6.3502    7.4946    4.8723 C.3       1 RES1    0.0000
      6 C4         5.7735    7.6852    6.2555 C.3       1 RES1    0.0000
      7 C5         7.9897    4.3551    3.2331 C.3       1 RES1    0.0000
      8 C6         8.5398    3.8890    1.9038 C.3       1 RES1    0.0000
      9 C7         9.2720    2.5676    2.0423 C.3       1 RES1    0.0000
     10 C8         8.5560    6.7675    2.8852 C.ar      1 RES1    0.0000
     11 C9         8.4412    7.7522    1.8938 C.ar      1 RES1    0.0000
     12 C10        9.4677    8.6475    1.5903 C.ar      1 RES1    0.0000
     13 C11       10.6546    8.5380    2.2845 C.ar      1 RES1    0.0000
     14 C12       10.7988    7.6024    3.2628 C.ar      1 RES1    0.0000
     15 C13        9.7719    6.7374    3.5779 C.ar      1 RES1    0.0000
     16 C14        6.2787    5.9306    2.2747 C.ar      1 RES1    0.0000
     17 C15        6.1955    6.9181    1.3014 C.ar      1 RES1    0.0000
     18 C16        5.0884    7.0420    0.4594 C.ar      1 RES1    0.0000
     19 C17        4.0379    6.1699    0.5926 C.ar      1 RES1    0.0000
     20 C18        4.0900    5.1888    1.5654 C.ar      1 RES1    0.0000
     21 C19        5.1911    5.0737    2.4038 C.ar      1 RES1    0.0000
     22 H1         6.1441    5.3404    4.9237 H         1 RES1    0.0000
     23 H2         7.6632    5.9696    5.3725 H         1 RES1    0.0000
     24 H3         5.4200    7.6041    4.2852 H         1 RES1    0.0000
     25 H4         7.0152    8.1716    4.7287 H         1 RES1    0.0000
     26 H5         5.2137    8.6932    6.2174 H         1 RES1    0.0000
     27 H6         6.3873    7.3458    7.0178 H         1 RES1    0.0000
     28 H7         5.1043    6.9686    6.5184 H         1 RES1    0.0000
     29 H8         8.6628    4.3555    3.9147 H         1 RES1    0.0000
     30 H9         7.1651    3.7437    3.6106 H         1 RES1    0.0000
     31 H10        9.1763    4.5892    1.5536 H         1 RES1    0.0000
     32 H11        7.9174    3.8129    1.2529 H         1 RES1    0.0000
     33 H12        9.7334    2.2802    1.2677 H         1 RES1    0.0000
     34 H13        8.7307    1.8339    2.5505 H         1 RES1    0.0000
     35 H14       10.1283    2.7087    2.6537 H         1 RES1    0.0000
     36 H15        9.3203    9.3390    0.8785 H         1 RES1    0.0000
     37 H16       11.4385    9.2054    2.0172 H         1 RES1    0.0000
     38 H17       11.5713    7.5492    3.7706 H         1 RES1    0.0000
     39 H18        9.9029    6.0317    4.3138 H         1 RES1    0.0000
     40 H19        5.1493    7.7785   -0.1829 H         1 RES1    0.0000
     41 H20        3.2175    6.2551   -0.0219 H         1 RES1    0.0000
     42 H21        3.3419    4.4438    1.5825 H         1 RES1    0.0000
     43 H22        5.1680    4.2949    3.1692 H         1 RES1    0.0000
@<TRIPOS>BOND
     1    1    2 1
     2    2   11 1
     3    3    4 1
     4    4    5 1
     5    5    6 1
     6    6   26 1
     7    7    3 1
     8    8    7 1
     9    9    8 1
    10   10    3 1
    11   11   10 ar
    12   12   11 ar
    13   13   12 ar
    14   14   13 ar
    15   15   10 ar
    16   16    3 1
    17   17    2 1
    18   18   17 ar
    19   19   18 ar
    20   20   19 ar
    21   21   16 ar
    22   22    4 1
    23   23    4 1
    24   24    5 1
    25   25    5 1
    26   27    6 1
    27   28    6 1
    28   29    7 1
    29   30    7 1
    30   31    8 1
    31   32    8 1
    32   33    9 1
    33   34    9 1
    34   35    9 1
    35   36   12 1
    36   37   13 1
    37   38   14 1
    38   39   15 1
    39   40   18 1
    40   41   19 1
    41   42   20 1
    42   43   21 1
    43   14   15 ar
    44   16   17 ar
    45   20   21 ar
@<TRIPOS>SUBSTRUCTURE
     1 RES1 1

@<TRIPOS>CRYSIN
  12.0600   12.4660   10.8920  90.0000  90.0000  90.0000  19 1

