# MOL2 file generated by ConQuest
# Please check atom types

@<TRIPOS>MOLECULE
MAJTIB
    18    19     1
SMALL
NO_CHARGES
****
Generated from CSD

@<TRIPOS>ATOM
      1 N1         4.5296    2.5821   17.5704 N.am      1 RES1    0.0000
      2 C1         4.4993    3.6257   16.6689 C.2       1 RES1    0.0000
      3 O1         5.2285    4.5887   16.6765 O.2       1 RES1    0.0000
      4 C2         3.5273    1.6430   17.3412 C.2       1 RES1    0.0000
      5 O2         3.3276    0.6442   17.9926 O.2       1 RES1    0.0000
      6 C3         2.8119    2.1225   16.1210 C.ar      1 RES1    0.0000
      7 C4         1.7453    1.5589   15.4334 C.ar      1 RES1    0.0000
      8 C5         1.3363    2.2850   14.3153 C.ar      1 RES1    0.0000
      9 N2         0.2215    1.7277   13.5156 N.pl3     1 RES1    0.0000
     10 O3        -0.1737    0.6011   13.7931 O.2       1 RES1    0.0000
     11 O4        -0.2555    2.4208   12.6246 O.2       1 RES1    0.0000
     12 C6         1.8813    3.4712   13.9025 C.ar      1 RES1    0.0000
     13 C7         2.9457    4.0172   14.6103 C.ar      1 RES1    0.0000
     14 C8         3.3865    3.3173   15.7233 C.ar      1 RES1    0.0000
     15 H1         5.0846    2.4139   18.2817 H         1 RES1    0.0000
     16 H2         1.3390    0.7647   15.6964 H         1 RES1    0.0000
     17 H3         1.5424    3.9081   13.1555 H         1 RES1    0.0000
     18 H4         3.3441    4.8160   14.3483 H         1 RES1    0.0000
@<TRIPOS>BOND
     1    1    2 1
     2    2    3 2
     3    4    1 1
     4    5    4 2
     5    6    4 1
     6    7    6 ar
     7    8    7 ar
     8    9    8 1
     9   10    9 2
    10   11    9 2
    11   12    8 ar
    12   13   12 ar
    13   14    2 1
    14   15    1 1
    15   16    7 1
    16   17   12 1
    17   18   13 1
    18    6   14 ar
    19   13   14 ar
@<TRIPOS>SUBSTRUCTURE
     1 RES1 1

@<TRIPOS>CRYSIN
   5.3114    5.6812   24.6450  90.0000  90.0000  90.0000  19 1

