# MOL2 file generated by ConQuest
# Please check atom types

@<TRIPOS>MOLECULE
MAKRUO
    47    48     1
SMALL
NO_CHARGES
****
Generated from CSD

@<TRIPOS>ATOM
      1 O1        10.8928   -2.2401    5.8274 O.2       1 RES1    0.0000
      2 O2        10.0233   -3.7648    7.0362 O.2       1 RES1    0.0000
      3 O3         8.0041    3.2063   12.5959 O.2       1 RES1    0.0000
      4 N1        10.3079   -2.6098    6.8305 N.pl3     1 RES1    0.0000
      5 C1         9.9172   -1.6104    7.8185 C.ar      1 RES1    0.0000
      6 C2         9.9766   -0.2727    7.4779 C.ar      1 RES1    0.0000
      7 H1        10.2802   -0.0186    6.6369 H         1 RES1    0.0000
      8 C3         9.5874    0.6724    8.3831 C.ar      1 RES1    0.0000
      9 H2         9.6361    1.5733    8.1590 H         1 RES1    0.0000
     10 C4         9.1141    0.2941    9.6452 C.ar      1 RES1    0.0000
     11 C5         8.6355    1.2749   10.6244 C.2       1 RES1    0.0000
     12 H3         8.5521    0.9880   11.5046 H         1 RES1    0.0000
     13 C6         8.3136    2.5256   10.3688 C.2       1 RES1    0.0000
     14 H4         8.4165    2.8468    9.5027 H         1 RES1    0.0000
     15 C7         7.7947    3.4393   11.4111 C.2       1 RES1    0.0000
     16 C8         6.9990    4.5901   11.0161 C.2       1 RES1    0.0000
     17 H5         6.6678    5.1183   11.7070 H         1 RES1    0.0000
     18 C9         6.6948    4.9684    9.8030 C.2       1 RES1    0.0000
     19 H6         7.0459    4.4616    9.1056 H         1 RES1    0.0000
     20 C10        5.8457    6.1277    9.4265 C.3       1 RES1    0.0000
     21 H7         5.5514    6.5503   10.2600 H         1 RES1    0.0000
     22 C11        5.0352    4.9584    7.3354 C.3       1 RES1    0.0000
     23 H8         5.7323    5.4624    6.9089 H         1 RES1    0.0000
     24 H9         4.2712    4.9156    6.7555 H         1 RES1    0.0000
     25 H10        5.3489    4.0704    7.5193 H         1 RES1    0.0000
     26 C12        6.6252    7.2085    8.6192 C.2       1 RES1    0.0000
     27 C13        9.1038   -1.0651    9.9640 C.ar      1 RES1    0.0000
     28 H11        8.8382   -1.3320   10.8138 H         1 RES1    0.0000
     29 C14        9.4804   -2.0116    9.0468 C.ar      1 RES1    0.0000
     30 H12        9.4381   -2.9154    9.2590 H         1 RES1    0.0000
     31 C15        3.8570    6.8944    8.2515 C.3       1 RES1    0.0000
     32 H13        3.0808    6.5931    7.7543 H         1 RES1    0.0000
     33 H14        3.5310    7.3612    9.0370 H         1 RES1    0.0000
     34 C16        4.5847    7.8495    7.4235 C.3       1 RES1    0.0000
     35 H15        4.5340    7.5597    6.4998 H         1 RES1    0.0000
     36 H16        4.1437    8.7118    7.4844 H         1 RES1    0.0000
     37 C17        8.0101    7.4483    8.9718 C.3       1 RES1    0.0000
     38 H17        8.3852    8.0965    8.3701 H         1 RES1    0.0000
     39 H18        8.5051    6.6288    8.9065 H         1 RES1    0.0000
     40 H19        8.0594    7.7810    9.8704 H         1 RES1    0.0000
     41 C18        5.9666    8.0137    7.7804 C.2       1 RES1    0.0000
     42 H20        6.4330    8.7261    7.4028 H         1 RES1    0.0000
     43 C19        3.7519    4.7985    9.6169 C.3       1 RES1    0.0000
     44 H21        4.2719    4.0618    9.9444 H         1 RES1    0.0000
     45 H22        3.0034    4.4658    9.1165 H         1 RES1    0.0000
     46 H23        3.4341    5.3196   10.3590 H         1 RES1    0.0000
     47 C20        4.6227    5.6780    8.7117 C.3       1 RES1    0.0000
@<TRIPOS>BOND
     1    1    4 2
     2    2    4 2
     3    3   15 2
     4    4    5 1
     5    5    6 ar
     6    6    7 1
     7    8    6 ar
     8    9    8 1
     9   10    8 ar
    10   11   10 1
    11   12   11 1
    12   13   11 2
    13   14   13 1
    14   15   13 1
    15   16   15 1
    16   17   16 1
    17   18   16 2
    18   19   18 1
    19   20   18 1
    20   21   20 1
    21   22   23 1
    22   24   22 1
    23   25   22 1
    24   26   20 1
    25   27   10 ar
    26   28   27 1
    27   29    5 ar
    28   30   29 1
    29   31   32 1
    30   33   31 1
    31   34   31 1
    32   35   34 1
    33   36   34 1
    34   37   26 1
    35   38   37 1
    36   39   37 1
    37   40   37 1
    38   41   26 2
    39   42   41 1
    40   43   44 1
    41   45   43 1
    42   46   43 1
    43   47   20 1
    44   22   47 1
    45   27   29 ar
    46   31   47 1
    47   34   41 1
    48   43   47 1
@<TRIPOS>SUBSTRUCTURE
     1 RES1 1

@<TRIPOS>CRYSIN
  11.8610   14.2770   10.9753  90.0000  97.5510  90.0000  14 1

