# MOL2 file generated by ConQuest
# Please check atom types

@<TRIPOS>MOLECULE
MAKSEZ
    47    48     1
SMALL
NO_CHARGES
****
Generated from CSD

@<TRIPOS>ATOM
      1 O1         3.3906   10.8284    9.2630 O.2       1 RES1    0.0000
      2 O2        11.7499    9.1342    9.9974 O.2       1 RES1    0.0000
      3 N1        10.6857    9.6586    9.7686 N.pl3     1 RES1    0.0000
      4 C1         9.4619    8.8554    9.8803 C.ar      1 RES1    0.0000
      5 C2         8.2438    9.4822    9.6800 C.ar      1 RES1    0.0000
      6 H1         8.2069   10.3989    9.5300 H         1 RES1    0.0000
      7 C3         7.0765    8.7270    9.7043 C.ar      1 RES1    0.0000
      8 C4         5.7975    9.4012    9.4564 C.2       1 RES1    0.0000
      9 H2         5.8077   10.3307    9.4769 H         1 RES1    0.0000
     10 C5         4.6346    8.8326    9.2075 C.2       1 RES1    0.0000
     11 H3         4.5704    7.9046    9.2006 H         1 RES1    0.0000
     12 C6         3.4324    9.6476    8.9376 C.2       1 RES1    0.0000
     13 C7         2.2952    9.0601    8.2282 C.2       1 RES1    0.0000
     14 H4         1.5315    9.5870    8.1553 H         1 RES1    0.0000
     15 C8         2.2401    7.8579    7.6803 C.2       1 RES1    0.0000
     16 H5         2.9650    7.2941    7.8238 H         1 RES1    0.0000
     17 C9         1.1363    7.3307    6.8628 C.2       1 RES1    0.0000
     18 C10       -0.1449    7.4358    7.2447 C.2       1 RES1    0.0000
     19 C11       -1.2847    7.0278    6.3428 C.3       1 RES1    0.0000
     20 H6        -1.6537    6.1893    6.6612 H         1 RES1    0.0000
     21 H7        -1.9842    7.6979    6.3938 H         1 RES1    0.0000
     22 C12       -0.8688    6.8637    4.9044 C.3       1 RES1    0.0000
     23 H8        -1.5753    6.4194    4.4114 H         1 RES1    0.0000
     24 H9        -0.7273    7.7374    4.5064 H         1 RES1    0.0000
     25 O3        10.5711   10.8248    9.4648 O.2       1 RES1    0.0000
     26 C13        9.5686    7.5084   10.1154 C.ar      1 RES1    0.0000
     27 H10       10.3978    7.1109   10.2549 H         1 RES1    0.0000
     28 C14        8.4089    6.7591   10.1388 C.ar      1 RES1    0.0000
     29 H11        8.4573    5.8430   10.2946 H         1 RES1    0.0000
     30 C15        7.1785    7.3500    9.9353 C.ar      1 RES1    0.0000
     31 H12        6.4098    6.8275    9.9521 H         1 RES1    0.0000
     32 C16        0.3780    6.0689    4.8085 C.3       1 RES1    0.0000
     33 H13        0.6051    5.9549    3.8721 H         1 RES1    0.0000
     34 H14        0.2173    5.1877    5.1827 H         1 RES1    0.0000
     35 C17        1.5698    6.7034    5.5334 C.3       1 RES1    0.0000
     36 C18        2.6040    5.5883    5.7524 C.3       1 RES1    0.0000
     37 H15        2.8141    5.1760    4.9108 H         1 RES1    0.0000
     38 H16        2.2422    4.9299    6.3496 H         1 RES1    0.0000
     39 H17        3.4025    5.9623    6.1330 H         1 RES1    0.0000
     40 C19        2.2301    7.7725    4.6620 C.3       1 RES1    0.0000
     41 H18        2.5395    7.3730    3.8456 H         1 RES1    0.0000
     42 H19        2.9740    8.1550    5.1341 H         1 RES1    0.0000
     43 H20        1.5919    8.4598    4.4600 H         1 RES1    0.0000
     44 C20       -0.5966    7.9590    8.5816 C.3       1 RES1    0.0000
     45 H21        0.1283    7.9015    9.2095 H         1 RES1    0.0000
     46 H22       -1.3354    7.4348    8.8979 H         1 RES1    0.0000
     47 H23       -0.8691    8.8753    8.4912 H         1 RES1    0.0000
@<TRIPOS>BOND
     1    1   12 2
     2    2    3 2
     3    3    4 1
     4    4    5 ar
     5    5    6 1
     6    7    5 ar
     7    8    7 1
     8    9    8 1
     9   10    8 2
    10   11   10 1
    11   12   10 1
    12   13   12 1
    13   14   13 1
    14   15   13 2
    15   16   15 1
    16   17   15 1
    17   18   17 2
    18   19   18 1
    19   20   19 1
    20   21   19 1
    21   22   19 1
    22   23   22 1
    23   24   22 1
    24   25    3 2
    25   26    4 ar
    26   27   26 1
    27   28   26 ar
    28   29   28 1
    29   30    7 ar
    30   31   30 1
    31   32   22 1
    32   33   32 1
    33   34   32 1
    34   35   17 1
    35   36   35 1
    36   37   36 1
    37   38   36 1
    38   39   36 1
    39   40   35 1
    40   41   40 1
    41   42   40 1
    42   43   40 1
    43   44   18 1
    44   45   44 1
    45   46   44 1
    46   47   44 1
    47   28   30 ar
    48   32   35 1
@<TRIPOS>SUBSTRUCTURE
     1 RES1 1

@<TRIPOS>CRYSIN
  15.0889   10.6546   22.1010  90.0000  90.0000  90.0000  61 1

