# MOL2 file generated by ConQuest
# Please check atom types

@<TRIPOS>MOLECULE
MAKSAV
    47    48     1
SMALL
NO_CHARGES
****
Generated from CSD

@<TRIPOS>ATOM
      1 O1        11.4838   -3.7865    1.5186 O.2       1 RES1    0.0000
      2 C1         7.6732    8.8622    1.7250 C.3       1 RES1    0.0000
      3 H1         8.0403    8.4928    0.9061 H         1 RES1    0.0000
      4 H2         8.1027    9.7195    1.8729 H         1 RES1    0.0000
      5 O2         8.7266    3.9839   -0.2259 O.2       1 RES1    0.0000
      6 O3        11.3227   -2.2566    0.0519 O.2       1 RES1    0.0000
      7 N1        11.2223   -2.6444    1.1908 N.pl3     1 RES1    0.0000
      8 C2        10.8022   -1.7007    2.2216 C.ar      1 RES1    0.0000
      9 C3        10.3833   -0.4516    1.8177 C.ar      1 RES1    0.0000
     10 H3        10.3704   -0.2225    0.9171 H         1 RES1    0.0000
     11 C4         9.9783    0.4620    2.7900 C.ar      1 RES1    0.0000
     12 C5         9.4711    1.7967    2.4478 C.2       1 RES1    0.0000
     13 H4         9.2715    2.3621    3.1597 H         1 RES1    0.0000
     14 C6         9.2682    2.2737    1.2482 C.2       1 RES1    0.0000
     15 H5         9.4600    1.7160    0.5286 H         1 RES1    0.0000
     16 C7         8.7615    3.6246    0.9403 C.2       1 RES1    0.0000
     17 C8         8.3034    4.5017    2.0196 C.2       1 RES1    0.0000
     18 H6         8.3530    4.1965    2.8970 H         1 RES1    0.0000
     19 C9         7.8263    5.6972    1.7934 C.2       1 RES1    0.0000
     20 H7         7.8197    5.9809    0.9072 H         1 RES1    0.0000
     21 C10        7.2905    6.6584    2.8065 C.3       1 RES1    0.0000
     22 H8         7.3715    6.2476    3.6916 H         1 RES1    0.0000
     23 C11        8.0373    7.9779    2.8253 C.3       1 RES1    0.0000
     24 C12        6.2059    9.1047    1.5109 C.3       1 RES1    0.0000
     25 H9         5.9172    9.8307    2.0848 H         1 RES1    0.0000
     26 H10        6.0596    9.3757    0.5904 H         1 RES1    0.0000
     27 C13        5.8021    6.8553    2.5041 C.2       1 RES1    0.0000
     28 C14        5.3831    7.8923    1.8022 C.2       1 RES1    0.0000
     29 H11        4.5158    7.8652    1.4656 H         1 RES1    0.0000
     30 C15        4.9374    5.6628    2.8065 C.3       1 RES1    0.0000
     31 H12        4.0130    5.9167    2.7569 H         1 RES1    0.0000
     32 H13        5.1341    5.3404    3.6894 H         1 RES1    0.0000
     33 H14        5.1142    4.9696    2.1664 H         1 RES1    0.0000
     34 C16       10.8491   -2.0840    3.5338 C.ar      1 RES1    0.0000
     35 H15       11.1249   -2.9398    3.7744 H         1 RES1    0.0000
     36 C17       10.4786   -1.1754    4.4785 C.ar      1 RES1    0.0000
     37 H16       10.5175   -1.4050    5.3791 H         1 RES1    0.0000
     38 C18       10.0458    0.0856    4.1132 C.ar      1 RES1    0.0000
     39 H17        9.7948    0.6904    4.7732 H         1 RES1    0.0000
     40 C19        7.5259    8.7310    4.1662 C.3       1 RES1    0.0000
     41 H18        7.7757    9.6567    4.1276 H         1 RES1    0.0000
     42 H19        7.9270    8.3216    4.9354 H         1 RES1    0.0000
     43 H20        6.5706    8.6597    4.2280 H         1 RES1    0.0000
     44 C20        9.5567    7.7753    2.9279 C.3       1 RES1    0.0000
     45 H21        9.8708    7.3103    2.1499 H         1 RES1    0.0000
     46 H22        9.7588    7.2618    3.7137 H         1 RES1    0.0000
     47 H23        9.9899    8.6311    2.9864 H         1 RES1    0.0000
@<TRIPOS>BOND
     1    1    7 2
     2    2    3 1
     3    4    2 1
     4    5   16 2
     5    6    7 2
     6    7    8 1
     7    8    9 ar
     8    9   10 1
     9   11    9 ar
    10   12   11 1
    11   13   12 1
    12   14   12 2
    13   15   14 1
    14   16   14 1
    15   17   16 1
    16   18   17 1
    17   19   17 2
    18   20   19 1
    19   21   19 1
    20   22   21 1
    21   23    2 1
    22   24    2 1
    23   25   24 1
    24   26   24 1
    25   27   21 1
    26   28   24 1
    27   29   28 1
    28   30   27 1
    29   31   30 1
    30   32   30 1
    31   33   30 1
    32   34    8 ar
    33   35   34 1
    34   36   34 ar
    35   37   36 1
    36   38   11 ar
    37   39   38 1
    38   40   23 1
    39   41   40 1
    40   42   40 1
    41   43   40 1
    42   44   23 1
    43   45   44 1
    44   46   44 1
    45   47   44 1
    46   21   23 1
    47   27   28 2
    48   36   38 ar
@<TRIPOS>SUBSTRUCTURE
     1 RES1 1

@<TRIPOS>CRYSIN
  11.7950   14.2640   11.0530  90.0000  93.1510  90.0000  14 1

