# MOL2 file generated by ConQuest
# Please check atom types

@<TRIPOS>MOLECULE
MALKOC
    43    46     1
SMALL
NO_CHARGES
****
Generated from CSD

@<TRIPOS>ATOM
      1 C1         2.8679   15.2769    0.4401 C.2       1 RES1    0.0000
      2 C2        -2.6507   18.1351    2.4584 C.ar      1 RES1    0.0000
      3 N1         3.3299   14.5796    1.4240 N.2       1 RES1    0.0000
      4 N2         3.4611   15.3101   -0.8261 N.am      1 RES1    0.0000
      5 C3         5.1958   13.8879    0.0193 C.ar      1 RES1    0.0000
      6 C4         0.9248   16.0382    1.7179 C.2       1 RES1    0.0000
      7 H1         1.2002   15.4589    2.3922 H         1 RES1    0.0000
      8 O1        -4.4435   18.7093    3.7919 O.2       1 RES1    0.0000
      9 N3        -3.9219   18.8173    2.6964 N.pl3     1 RES1    0.0000
     10 C5         4.4949   13.8522    1.2238 C.ar      1 RES1    0.0000
     11 C6        -0.9106   16.7299    3.2064 C.ar      1 RES1    0.0000
     12 H2        -0.5189   16.2214    3.8805 H         1 RES1    0.0000
     13 C7        -0.2970   16.7980    1.9609 C.ar      1 RES1    0.0000
     14 C8         1.6738   16.0918    0.6392 C.2       1 RES1    0.0000
     15 H3         1.4289   16.6830   -0.0364 H         1 RES1    0.0000
     16 C9        -0.8951   17.5817    0.9780 C.ar      1 RES1    0.0000
     17 H4        -0.4905   17.6544    0.1440 H         1 RES1    0.0000
     18 C10        4.6627   14.6428   -1.0922 C.2       1 RES1    0.0000
     19 C11        6.3771   13.1622   -0.1152 C.ar      1 RES1    0.0000
     20 H5         6.8527   13.1964   -0.9142 H         1 RES1    0.0000
     21 O2         5.1698   14.7111   -2.1975 O.2       1 RES1    0.0000
     22 C12       -2.0858   17.3996    3.4621 C.ar      1 RES1    0.0000
     23 H6        -2.4870   17.3519    4.3003 H         1 RES1    0.0000
     24 C13       -2.0668   18.2483    1.2150 C.ar      1 RES1    0.0000
     25 H7        -2.4613   18.7662    0.5516 H         1 RES1    0.0000
     26 O3        -4.4198   19.4498    1.7815 O.2       1 RES1    0.0000
     27 C14        2.8699   16.0719   -1.9054 C.ar      1 RES1    0.0000
     28 C15        6.8364   12.4064    0.9131 C.ar      1 RES1    0.0000
     29 H8         7.6314   11.9333    0.8205 H         1 RES1    0.0000
     30 C16        4.9780   13.0545    2.2626 C.ar      1 RES1    0.0000
     31 H9         4.5139   13.0139    3.0669 H         1 RES1    0.0000
     32 C17        3.4246   17.2788   -2.2535 C.ar      1 RES1    0.0000
     33 H10        4.1837   17.5889   -1.8145 H         1 RES1    0.0000
     34 C18        2.8564   18.0227   -3.2486 C.ar      1 RES1    0.0000
     35 H11        3.2325   18.8395   -3.4833 H         1 RES1    0.0000
     36 C19        1.7516   15.6111   -2.5672 C.ar      1 RES1    0.0000
     37 H12        1.3801   14.7884   -2.3436 H         1 RES1    0.0000
     38 C20        1.7401   17.5772   -3.9024 C.ar      1 RES1    0.0000
     39 H13        1.3585   18.0910   -4.5761 H         1 RES1    0.0000
     40 C21        6.1227   12.3361    2.1059 C.ar      1 RES1    0.0000
     41 H14        6.4292   11.7961    2.7981 H         1 RES1    0.0000
     42 C22        1.1894   16.3804   -3.5643 C.ar      1 RES1    0.0000
     43 H15        0.4296   16.0795   -4.0072 H         1 RES1    0.0000
@<TRIPOS>BOND
     1    1    3 2
     2    2    9 1
     3    3   10 1
     4    4    1 1
     5    5   10 ar
     6    6    7 1
     7    8    9 2
     8    9   26 2
     9   10   30 ar
    10   11   12 1
    11   13    6 1
    12   14    1 1
    13   15   14 1
    14   16   13 ar
    15   17   16 1
    16   18    4 1
    17   19    5 ar
    18   20   19 1
    19   21   18 2
    20   22    2 ar
    21   23   22 1
    22   24    2 ar
    23   25   24 1
    24   27    4 1
    25   28   19 ar
    26   29   28 1
    27   30   31 1
    28   32   27 ar
    29   33   32 1
    30   34   32 ar
    31   35   34 1
    32   36   27 ar
    33   37   36 1
    34   38   34 ar
    35   39   38 1
    36   40   28 ar
    37   41   40 1
    38   42   36 ar
    39   43   42 1
    40    5   18 1
    41    6   14 2
    42   11   13 ar
    43   11   22 ar
    44   16   24 ar
    45   30   40 ar
    46   38   42 ar
@<TRIPOS>SUBSTRUCTURE
     1 RES1 1

@<TRIPOS>CRYSIN
   6.7654   15.5930   17.3470  90.0000  90.0000  90.0000  19 1

