# MOL2 file generated by ConQuest
# Please check atom types

@<TRIPOS>MOLECULE
MAMCIN
    43    45     1
SMALL
NO_CHARGES
****
Generated from CSD

@<TRIPOS>ATOM
      1 N1         6.1488   12.2336   -0.8715 N.pl3     1 RES1    0.0000
      2 N2         4.9071    0.0051    8.4939 N.pl3     1 RES1    0.0000
      3 O1         8.8396    5.5056    3.4434 O.2       1 RES1    0.0000
      4 O2         6.4991   12.2778   -2.0540 O.2       1 RES1    0.0000
      5 O3         5.4644   13.1030   -0.3355 O.2       1 RES1    0.0000
      6 O4         4.5611   -1.0935    8.0701 O.2       1 RES1    0.0000
      7 O5         4.7519    0.3504    9.6658 O.2       1 RES1    0.0000
      8 C1         7.6917    5.8359    3.7433 C.2       1 RES1    0.0000
      9 C2         6.8803    4.9884    4.6712 C.2       1 RES1    0.0000
     10 C3         5.6192    5.5812    5.2406 C.3       1 RES1    0.0000
     11 H1         5.8422    6.1524    6.0169 H         1 RES1    0.0000
     12 H2         5.0236    4.8545    5.5542 H         1 RES1    0.0000
     13 C4         4.9022    6.4062    4.1927 C.3       1 RES1    0.0000
     14 H3         4.0547    6.7545    4.5676 H         1 RES1    0.0000
     15 H4         4.6839    5.8367    3.4147 H         1 RES1    0.0000
     16 C5         5.7755    7.5652    3.7475 C.3       1 RES1    0.0000
     17 H5         5.2961    8.0876    3.0571 H         1 RES1    0.0000
     18 H6         5.9427    8.1631    4.5189 H         1 RES1    0.0000
     19 C6         7.0881    7.0972    3.1910 C.2       1 RES1    0.0000
     20 C7         7.7446    7.6839    2.1727 C.2       1 RES1    0.0000
     21 H7         8.5557    7.2700    1.9011 H         1 RES1    0.0000
     22 C8         7.3511    8.8930    1.4324 C.ar      1 RES1    0.0000
     23 C9         7.5855    8.9257    0.0508 C.ar      1 RES1    0.0000
     24 H8         8.0226    8.1942   -0.3702 H         1 RES1    0.0000
     25 C10        7.1840   10.0182   -0.7101 C.ar      1 RES1    0.0000
     26 H9         7.3288   10.0363   -1.6485 H         1 RES1    0.0000
     27 C11        6.5717   11.0746   -0.0707 C.ar      1 RES1    0.0000
     28 C12        6.3595   11.1018    1.2936 C.ar      1 RES1    0.0000
     29 H10        5.9469   11.8499    1.7097 H         1 RES1    0.0000
     30 C13        6.7649   10.0033    2.0411 C.ar      1 RES1    0.0000
     31 H11        6.6417   10.0088    2.9833 H         1 RES1    0.0000
     32 C14        7.2809    3.7304    4.8819 C.2       1 RES1    0.0000
     33 H12        8.0400    3.4311    4.3966 H         1 RES1    0.0000
     34 C15        6.6476    2.7675    5.8028 C.ar      1 RES1    0.0000
     35 C16        6.3955    1.4509    5.4047 C.ar      1 RES1    0.0000
     36 H13        6.6205    1.1747    4.5236 H         1 RES1    0.0000
     37 C17        5.8222    0.5451    6.2791 C.ar      1 RES1    0.0000
     38 H14        5.6466   -0.3473    6.0028 H         1 RES1    0.0000
     39 C18        5.5093    0.9555    7.5564 C.ar      1 RES1    0.0000
     40 C19        5.7541    2.2440    7.9975 C.ar      1 RES1    0.0000
     41 H15        5.5396    2.5034    8.8857 H         1 RES1    0.0000
     42 C20        6.3195    3.1464    7.1117 C.ar      1 RES1    0.0000
     43 H16        6.4880    4.0364    7.3956 H         1 RES1    0.0000
@<TRIPOS>BOND
     1    1    4 2
     2    2    6 2
     3    3    8 2
     4    5    1 2
     5    7    2 2
     6    8    9 1
     7    9   10 1
     8   10   11 1
     9   12   10 1
    10   13   10 1
    11   14   13 1
    12   15   13 1
    13   16   13 1
    14   17   16 1
    15   18   16 1
    16   19    8 1
    17   20   19 2
    18   21   20 1
    19   22   20 1
    20   23   22 ar
    21   24   23 1
    22   25   23 ar
    23   26   25 1
    24   27    1 1
    25   28   27 ar
    26   29   28 1
    27   30   22 ar
    28   31   30 1
    29   32    9 2
    30   33   32 1
    31   34   32 1
    32   35   34 ar
    33   36   35 1
    34   37   35 ar
    35   38   37 1
    36   39    2 1
    37   40   39 ar
    38   41   40 1
    39   42   34 ar
    40   43   42 1
    41   16   19 1
    42   25   27 ar
    43   28   30 ar
    44   37   39 ar
    45   40   42 ar
@<TRIPOS>SUBSTRUCTURE
     1 RES1 1

@<TRIPOS>CRYSIN
   7.5132    7.8133   16.1313  77.5370  89.5460  65.6000   2 1

