# MOL2 file generated by ConQuest
# Please check atom types

@<TRIPOS>MOLECULE
MAMDOU
    42    44     1
SMALL
NO_CHARGES
****
Generated from CSD

@<TRIPOS>ATOM
      1 O1        20.4727    2.1145    6.8970 O.2       1 RES1    0.0000
      2 O2        22.8312    5.9759    7.3121 O.2       1 RES1    0.0000
      3 O3        20.4996    4.6336    8.0821 O.3       1 RES1    0.0000
      4 O4        19.4480    5.3511    6.2218 O.2       1 RES1    0.0000
      5 O5        14.2831   10.5428    8.7974 O.2       1 RES1    0.0000
      6 O6        13.2176    6.5080   10.5633 O.2       1 RES1    0.0000
      7 N1        21.4707    4.1434    7.2220 N.am      1 RES1    0.0000
      8 N2        14.1088    8.4766    9.7877 N.am      1 RES1    0.0000
      9 C1        21.3851    2.8725    6.6942 C.2       1 RES1    0.0000
     10 C2        22.6033    2.7026    5.8601 C.3       1 RES1    0.0000
     11 C3        23.4258    3.9603    6.0510 C.3       1 RES1    0.0000
     12 C4        22.6072    4.8581    6.9198 C.2       1 RES1    0.0000
     13 C5        19.4512    5.2578    7.4049 C.2       1 RES1    0.0000
     14 C6        18.4661    5.7660    8.3991 C.3       1 RES1    0.0000
     15 C7        18.8623    7.1698    8.8426 C.3       1 RES1    0.0000
     16 C8        17.8538    7.7180    9.8388 C.3       1 RES1    0.0000
     17 C9        16.4444    7.7413    9.2659 C.3       1 RES1    0.0000
     18 C10       16.0456    6.3497    8.7983 C.3       1 RES1    0.0000
     19 C11       17.0519    5.7654    7.8147 C.3       1 RES1    0.0000
     20 C12       15.4761    8.3265   10.2852 C.3       1 RES1    0.0000
     21 C13       13.6239    9.5857    9.1059 C.2       1 RES1    0.0000
     22 C14       12.1820    9.3090    8.8542 C.2       1 RES1    0.0000
     23 C15       11.8883    8.1333    9.3354 C.2       1 RES1    0.0000
     24 C16       13.0996    7.5548    9.9766 C.2       1 RES1    0.0000
     25 H1        22.3647    2.5923    4.9478 H         1 RES1    0.0000
     26 H2        23.0940    1.9387    6.1513 H         1 RES1    0.0000
     27 H3        23.5931    4.3710    5.2063 H         1 RES1    0.0000
     28 H4        24.2557    3.7531    6.4647 H         1 RES1    0.0000
     29 H5        18.4837    5.1880    9.1531 H         1 RES1    0.0000
     30 H6        18.8878    7.7412    8.0808 H         1 RES1    0.0000
     31 H7        19.7242    7.1386    9.2399 H         1 RES1    0.0000
     32 H8        17.8675    7.1607   10.6179 H         1 RES1    0.0000
     33 H9        18.1100    8.5973   10.0846 H         1 RES1    0.0000
     34 H10       16.4473    8.3080    8.5022 H         1 RES1    0.0000
     35 H11       15.9967    5.7718    9.5552 H         1 RES1    0.0000
     36 H12       15.1987    6.3897    8.3769 H         1 RES1    0.0000
     37 H13       17.0493    6.2859    7.0201 H         1 RES1    0.0000
     38 H14       16.8089    4.8697    7.6074 H         1 RES1    0.0000
     39 H15       15.4492    7.7446   11.0403 H         1 RES1    0.0000
     40 H16       15.7927    9.1743   10.5494 H         1 RES1    0.0000
     41 H17       11.5723    9.8841    8.4087 H         1 RES1    0.0000
     42 H18       11.0288    7.7173    9.3016 H         1 RES1    0.0000
@<TRIPOS>BOND
     1    1    9 2
     2    2   12 2
     3    3    7 1
     4    4   13 2
     5    5   21 2
     6    6   24 2
     7    7    9 1
     8    8   20 1
     9    9   10 1
    10   10   11 1
    11   11   12 1
    12   12    7 1
    13   13    3 1
    14   14   13 1
    15   15   14 1
    16   16   15 1
    17   17   16 1
    18   18   17 1
    19   19   14 1
    20   20   17 1
    21   21    8 1
    22   22   21 1
    23   23   22 2
    24   24    8 1
    25   25   10 1
    26   26   10 1
    27   27   11 1
    28   28   11 1
    29   29   14 1
    30   30   15 1
    31   31   15 1
    32   32   16 1
    33   33   16 1
    34   34   17 1
    35   35   18 1
    36   36   18 1
    37   37   19 1
    38   38   19 1
    39   39   20 1
    40   40   20 1
    41   41   22 1
    42   42   23 1
    43   18   19 1
    44   23   24 1
@<TRIPOS>SUBSTRUCTURE
     1 RES1 1

@<TRIPOS>CRYSIN
  20.2030   17.0210    9.6430  90.0000  90.0000  90.0000  61 1

