# MOL2 file generated by ConQuest
# Please check atom types

@<TRIPOS>MOLECULE
MAMFOW
    31    32     1
SMALL
NO_CHARGES
****
Generated from CSD

@<TRIPOS>ATOM
      1 O1         3.3569    5.6574   11.0067 O.2       1 RES1    0.0000
      2 O2         3.0311    7.0419    9.3948 O.2       1 RES1    0.0000
      3 N1         3.2007    5.9165    9.8298 N.pl3     1 RES1    0.0000
      4 C1         3.2713    2.7370    7.0376 C.ar      1 RES1    0.0000
      5 C2         2.8908    4.0200    6.6520 C.ar      1 RES1    0.0000
      6 C3         2.8667    5.0561    7.5572 C.ar      1 RES1    0.0000
      7 C4         3.2058    4.8057    8.8658 C.ar      1 RES1    0.0000
      8 C5         3.5745    3.5481    9.2961 C.ar      1 RES1    0.0000
      9 C6         3.5979    2.5237    8.3708 C.ar      1 RES1    0.0000
     10 C7         3.3221    1.6114    6.0923 C.2       1 RES1    0.0000
     11 C8         3.0420    1.6415    4.8109 C.2       1 RES1    0.0000
     12 C9         3.0843    0.5413    3.8433 C.ar      1 RES1    0.0000
     13 C10        2.7339    0.7866    2.5206 C.ar      1 RES1    0.0000
     14 C11        2.7468   -0.2372    1.5836 C.ar      1 RES1    0.0000
     15 C12        3.1316   -1.5148    1.9187 C.ar      1 RES1    0.0000
     16 C13        3.4810   -1.7627    3.2319 C.ar      1 RES1    0.0000
     17 C14        3.4592   -0.7556    4.1772 C.ar      1 RES1    0.0000
     18 C15        3.1596   -2.6146    0.8747 C.3       1 RES1    0.0000
     19 H1         2.6171    4.1783    5.7726 H         1 RES1    0.0000
     20 H2         2.5573    5.9328    7.2774 H         1 RES1    0.0000
     21 H3         3.7521    3.3452   10.2284 H         1 RES1    0.0000
     22 H4         3.8977    1.6312    8.7000 H         1 RES1    0.0000
     23 H5         3.5595    0.7606    6.5015 H         1 RES1    0.0000
     24 H6         2.8067    2.4888    4.3500 H         1 RES1    0.0000
     25 H7         2.4890    1.6847    2.2573 H         1 RES1    0.0000
     26 H8         2.5332   -0.0394    0.6819 H         1 RES1    0.0000
     27 H9         3.7554   -2.6542    3.5388 H         1 RES1    0.0000
     28 H10        3.7083   -1.0018    5.0907 H         1 RES1    0.0000
     29 H11        3.0653   -2.2531    0.0564 H         1 RES1    0.0000
     30 H12        2.4886   -3.1925    1.0275 H         1 RES1    0.0000
     31 H13        3.9454   -3.0556    0.9217 H         1 RES1    0.0000
@<TRIPOS>BOND
     1    1    3 2
     2    2    3 2
     3    3    7 1
     4    4    5 ar
     5    5    6 ar
     6    6    7 ar
     7    7    8 ar
     8    8    9 ar
     9    9    4 ar
    10   10    4 1
    11   11   10 2
    12   12   11 1
    13   13   12 ar
    14   14   13 ar
    15   15   14 ar
    16   16   15 ar
    17   17   12 ar
    18   18   15 1
    19   19    5 1
    20   20    6 1
    21   21    8 1
    22   22    9 1
    23   23   10 1
    24   24   11 1
    25   25   13 1
    26   26   14 1
    27   27   16 1
    28   28   17 1
    29   29   18 1
    30   30   18 1
    31   31   18 1
    32   16   17 ar
@<TRIPOS>SUBSTRUCTURE
     1 RES1 1

@<TRIPOS>CRYSIN
   7.3390    7.5210   12.2300  98.6600  99.2600 111.1300   2 1

