# MOL2 file generated by ConQuest
# Please check atom types

@<TRIPOS>MOLECULE
MAMGIQ
    69    73     1
SMALL
NO_CHARGES
****
Generated from CSD

@<TRIPOS>ATOM
      1 O1        -0.2826    1.9278    5.6815 O.3       1 RES1    0.0000
      2 O2        -0.3660    2.9439    9.1430 O.3       1 RES1    0.0000
      3 O3        -2.4262    3.6686    8.6366 O.2       1 RES1    0.0000
      4 N1        -0.8254    0.8523    4.8927 N.3       1 RES1    0.0000
      5 C1        -2.2401    1.1458    4.4501 C.3       1 RES1    0.0000
      6 C2        -2.5559    2.6203    4.2087 C.3       1 RES1    0.0000
      7 C3        -3.2157    0.5860    5.4907 C.3       1 RES1    0.0000
      8 C4        -2.2577    0.3518    3.1738 C.ar      1 RES1    0.0000
      9 C5        -3.3561   -0.1287    2.4629 C.ar      1 RES1    0.0000
     10 C6        -3.1388   -0.8453    1.2957 C.ar      1 RES1    0.0000
     11 C7        -1.8681   -1.0785    0.8609 C.ar      1 RES1    0.0000
     12 C8        -0.7727   -0.6191    1.5609 C.ar      1 RES1    0.0000
     13 C9        -0.9760    0.0945    2.7351 C.ar      1 RES1    0.0000
     14 C10        0.0463    0.6583    3.6867 C.3       1 RES1    0.0000
     15 C11        0.6757    1.9469    3.1407 C.3       1 RES1    0.0000
     16 C12        1.1143   -0.3709    4.0359 C.3       1 RES1    0.0000
     17 C13       -0.4226    1.6564    7.0883 C.3       1 RES1    0.0000
     18 C14        0.3901    0.4684    7.5549 C.3       1 RES1    0.0000
     19 C15        1.9031    0.7026    7.5429 C.3       1 RES1    0.0000
     20 C16        2.6665   -0.5166    8.0735 C.3       1 RES1    0.0000
     21 C17        4.1659   -0.2794    8.0837 C.3       1 RES1    0.0000
     22 C18        4.5239    0.9850    8.8334 C.3       1 RES1    0.0000
     23 C19        3.7719    2.1871    8.2960 C.3       1 RES1    0.0000
     24 C20        2.2657    1.9640    8.3028 C.3       1 RES1    0.0000
     25 C21        1.5076    3.1480    7.7140 C.3       1 RES1    0.0000
     26 C22        0.0177    2.9650    7.7311 C.3       1 RES1    0.0000
     27 C23       -1.5882    3.3832    9.4598 C.2       1 RES1    0.0000
     28 C24       -1.7853    3.5148   10.9249 C.ar      1 RES1    0.0000
     29 C25       -0.7619    3.2414   11.8269 C.ar      1 RES1    0.0000
     30 C26       -0.9685    3.4103   13.1808 C.ar      1 RES1    0.0000
     31 C27       -2.1761    3.8706   13.6429 C.ar      1 RES1    0.0000
     32 C28       -3.1895    4.1470   12.7546 C.ar      1 RES1    0.0000
     33 C29       -3.0035    3.9500   11.4093 C.ar      1 RES1    0.0000
     34 H1        -3.4457    2.8042    3.8853 H         1 RES1    0.0000
     35 H2        -1.9338    2.9851    3.5258 H         1 RES1    0.0000
     36 H3        -2.3799    3.1058    4.9807 H         1 RES1    0.0000
     37 H4        -3.2088    1.1860    6.2986 H         1 RES1    0.0000
     38 H5        -2.8873   -0.3216    5.7166 H         1 RES1    0.0000
     39 H6        -4.1085    0.5629    5.0834 H         1 RES1    0.0000
     40 H7        -4.2457    0.1106    2.8070 H         1 RES1    0.0000
     41 H8        -3.9451   -1.1458    0.8044 H         1 RES1    0.0000
     42 H9        -1.7435   -1.4875    0.1027 H         1 RES1    0.0000
     43 H10        0.1298   -0.7739    1.2837 H         1 RES1    0.0000
     44 H11        1.2084    1.7790    2.4989 H         1 RES1    0.0000
     45 H12       -0.0550    2.6233    2.8925 H         1 RES1    0.0000
     46 H13        1.3011    2.3318    3.8339 H         1 RES1    0.0000
     47 H14        1.6624   -0.5930    3.2862 H         1 RES1    0.0000
     48 H15        1.7700    0.0000    4.6212 H         1 RES1    0.0000
     49 H16        0.6842   -1.1961    4.5014 H         1 RES1    0.0000
     50 H17       -1.3611    1.4976    7.3460 H         1 RES1    0.0000
     51 H18        0.1487    0.2714    8.4637 H         1 RES1    0.0000
     52 H19        0.1772   -0.2915    7.0106 H         1 RES1    0.0000
     53 H20        2.1388    0.8141    6.6221 H         1 RES1    0.0000
     54 H21        2.4155   -1.3569    7.5138 H         1 RES1    0.0000
     55 H22        2.3074   -0.7538    9.0028 H         1 RES1    0.0000
     56 H23        4.6363   -1.0252    8.5578 H         1 RES1    0.0000
     57 H24        4.5135   -0.2111    7.1201 H         1 RES1    0.0000
     58 H25        5.5559    1.1659    8.7975 H         1 RES1    0.0000
     59 H26        4.2493    0.8744    9.8073 H         1 RES1    0.0000
     60 H27        4.0571    2.3921    7.3940 H         1 RES1    0.0000
     61 H28        1.9678    1.8092    9.2938 H         1 RES1    0.0000
     62 H29        1.8075    3.3068    6.7607 H         1 RES1    0.0000
     63 H30        1.6960    3.9902    8.1693 H         1 RES1    0.0000
     64 H31       -0.5047    3.6988    7.2981 H         1 RES1    0.0000
     65 H32        0.0878    2.9047   11.5017 H         1 RES1    0.0000
     66 H33       -0.1798    3.1661   13.7952 H         1 RES1    0.0000
     67 H34       -2.2570    3.9802   14.5654 H         1 RES1    0.0000
     68 H35       -4.0441    4.4727   13.0935 H         1 RES1    0.0000
     69 H36       -3.6697    4.2114   10.7829 H         1 RES1    0.0000
@<TRIPOS>BOND
     1    1    4 1
     2    2   26 1
     3    3   27 2
     4    4    5 1
     5    5    6 1
     6    6   34 1
     7    7    5 1
     8    8    5 1
     9    9    8 ar
    10   10    9 ar
    11   11   10 ar
    12   12   11 ar
    13   13    8 ar
    14   14    4 1
    15   15   14 1
    16   16   14 1
    17   17    1 1
    18   18   17 1
    19   19   18 1
    20   20   19 1
    21   21   20 1
    22   22   21 1
    23   23   22 1
    24   24   19 1
    25   25   24 1
    26   26   17 1
    27   27    2 1
    28   28   27 1
    29   29   28 ar
    30   30   29 ar
    31   31   30 ar
    32   32   31 ar
    33   33   28 ar
    34   35    6 1
    35   36    6 1
    36   37    7 1
    37   38    7 1
    38   39    7 1
    39   40    9 1
    40   41   10 1
    41   42   11 1
    42   43   12 1
    43   44   15 1
    44   45   15 1
    45   46   15 1
    46   47   16 1
    47   48   16 1
    48   49   16 1
    49   50   17 1
    50   51   18 1
    51   52   18 1
    52   53   19 1
    53   54   20 1
    54   55   20 1
    55   56   21 1
    56   57   21 1
    57   58   22 1
    58   59   22 1
    59   60   23 1
    60   61   24 1
    61   62   25 1
    62   63   25 1
    63   64   26 1
    64   65   29 1
    65   66   30 1
    66   67   31 1
    67   68   32 1
    68   69   33 1
    69   12   13 ar
    70   13   14 1
    71   23   24 1
    72   25   26 1
    73   32   33 ar
@<TRIPOS>SUBSTRUCTURE
     1 RES1 1

@<TRIPOS>CRYSIN
  14.9040   10.0510   17.2890  90.0000  98.1200  90.0000 231 1

