# MOL2 file generated by ConQuest
# Please check atom types

@<TRIPOS>MOLECULE
MAMHOY
    38    39     1
SMALL
NO_CHARGES
****
Generated from CSD

@<TRIPOS>ATOM
      1 C1         4.1123   12.7242   11.1469 C.ar      1 RES1    0.0000
      2 C2         3.7288   12.3797    9.8681 C.ar      1 RES1    0.0000
      3 H1         3.8852   11.5026    9.5378 H         1 RES1    0.0000
      4 C3         3.1150   13.3282    9.0782 C.ar      1 RES1    0.0000
      5 H2         2.8334   13.0934    8.2008 H         1 RES1    0.0000
      6 C4         2.8997   14.6277    9.5447 C.ar      1 RES1    0.0000
      7 C5         3.2947   14.9274   10.8530 C.ar      1 RES1    0.0000
      8 H3         3.1437   15.8013   11.1914 H         1 RES1    0.0000
      9 C6         3.8967   13.9898   11.6643 C.ar      1 RES1    0.0000
     10 H4         4.1556   14.2061   12.5526 H         1 RES1    0.0000
     11 C7         2.2808   15.6124    8.6643 C.2       1 RES1    0.0000
     12 H5         1.8109   15.2803    7.9084 H         1 RES1    0.0000
     13 C8         2.3145   16.9421    8.8239 C.2       1 RES1    0.0000
     14 H6         2.7601   17.2828    9.5918 H         1 RES1    0.0000
     15 C9         1.7261   17.8917    7.9202 C.2       1 RES1    0.0000
     16 H7         1.2471   17.5636    7.1692 H         1 RES1    0.0000
     17 C10        1.8209   19.2195    8.0874 C.2       1 RES1    0.0000
     18 H8         2.2912   19.5297    8.8525 H         1 RES1    0.0000
     19 C11        1.2689   20.2100    7.2042 C.2       1 RES1    0.0000
     20 H9         0.7944   19.9156    6.4355 H         1 RES1    0.0000
     21 C12        1.3917   21.5285    7.4142 C.2       1 RES1    0.0000
     22 H10        1.8542   21.7873    8.2027 H         1 RES1    0.0000
     23 C13        0.8973   22.6091    6.5712 C.ar      1 RES1    0.0000
     24 C14        0.2103   22.3879    5.3719 C.ar      1 RES1    0.0000
     25 H11        0.0423   21.4957    5.0892 H         1 RES1    0.0000
     26 C15       -0.2278   23.4386    4.5913 C.ar      1 RES1    0.0000
     27 H12       -0.6919   23.2774    3.7782 H         1 RES1    0.0000
     28 C16        0.0237   24.7315    5.0181 C.ar      1 RES1    0.0000
     29 C17        0.6972   24.9980    6.1929 C.ar      1 RES1    0.0000
     30 H13        0.8650   25.8931    6.4653 H         1 RES1    0.0000
     31 C18        1.1219   23.9345    6.9643 C.ar      1 RES1    0.0000
     32 H14        1.5772   24.1050    7.7800 H         1 RES1    0.0000
     33 N1         4.7817   11.7290   11.9856 N.pl3     1 RES1    0.0000
     34 N2        -0.4742   25.8513    4.2186 N.pl3     1 RES1    0.0000
     35 O1         4.9626   10.6085   11.5230 O.2       1 RES1    0.0000
     36 O2         5.1488   12.0604   13.1066 O.2       1 RES1    0.0000
     37 O3        -1.1396   25.6024    3.2235 O.2       1 RES1    0.0000
     38 O4        -0.2222   26.9893    4.5929 O.2       1 RES1    0.0000
@<TRIPOS>BOND
     1    1    2 ar
     2    2    3 1
     3    4    2 ar
     4    5    4 1
     5    6    4 ar
     6    7    6 ar
     7    8    7 1
     8    9    1 ar
     9   10    9 1
    10   11    6 1
    11   12   11 1
    12   13   11 2
    13   14   13 1
    14   15   13 1
    15   16   15 1
    16   17   15 2
    17   18   17 1
    18   19   17 1
    19   20   19 1
    20   21   19 2
    21   22   21 1
    22   23   21 1
    23   24   23 ar
    24   25   24 1
    25   26   24 ar
    26   27   26 1
    27   28   26 ar
    28   29   28 ar
    29   30   29 1
    30   31   23 ar
    31   32   31 1
    32   33    1 1
    33   34   28 1
    34   35   33 2
    35   36   33 2
    36   37   34 2
    37   38   34 2
    38    7    9 ar
    39   29   31 ar
@<TRIPOS>SUBSTRUCTURE
     1 RES1 1

@<TRIPOS>CRYSIN
   3.8710   21.4400   18.7091  90.0000  95.5550  90.0000  14 1

