# MOL2 file generated by ConQuest
# Please check atom types

@<TRIPOS>MOLECULE
MANNUL
    45    47     1
SMALL
NO_CHARGES
****
Generated from CSD

@<TRIPOS>ATOM
      1 O1         8.4462   10.8383    7.2043 O.2       1 RES1    0.0000
      2 O2         6.4807   15.3952   -0.3718 O.2       1 RES1    0.0000
      3 O3         6.4856   13.4476   -1.2942 O.2       1 RES1    0.0000
      4 O4         8.2801    8.3100    4.8964 O.2       1 RES1    0.0000
      5 O5         7.3309    6.6696    3.7324 O.3       1 RES1    0.0000
      6 N1         6.6886    9.4668    7.4226 N.am      1 RES1    0.0000
      7 N2         6.5631   14.1866   -0.3159 N.pl3     1 RES1    0.0000
      8 C1         7.4438   10.3357    6.7171 C.2       1 RES1    0.0000
      9 C2         6.9531   10.6708    5.3343 C.2       1 RES1    0.0000
     10 C3         7.4589   11.7813    4.7820 C.2       1 RES1    0.0000
     11 C4         7.1817   12.3655    3.4530 C.ar      1 RES1    0.0000
     12 C5         7.3083   13.7421    3.2947 C.ar      1 RES1    0.0000
     13 C6         7.0918   14.3656    2.0753 C.ar      1 RES1    0.0000
     14 C7         6.7760   13.5602    1.0039 C.ar      1 RES1    0.0000
     15 C8         6.6727   12.2047    1.1084 C.ar      1 RES1    0.0000
     16 C9         6.8679   11.5996    2.3300 C.ar      1 RES1    0.0000
     17 C10        5.8454    9.8559    4.7345 C.ar      1 RES1    0.0000
     18 C11        4.5792   10.4347    4.6694 C.ar      1 RES1    0.0000
     19 C12        3.4994    9.7713    4.1066 C.ar      1 RES1    0.0000
     20 C13        3.6696    8.5061    3.5841 C.ar      1 RES1    0.0000
     21 C14        4.9120    7.8942    3.6528 C.ar      1 RES1    0.0000
     22 C15        6.0012    8.5496    4.2312 C.ar      1 RES1    0.0000
     23 C16        7.3170    7.8571    4.3177 C.2       1 RES1    0.0000
     24 C17        7.0599    8.9050    8.6827 C.ar      1 RES1    0.0000
     25 C18        7.4015    9.7090    9.7451 C.ar      1 RES1    0.0000
     26 C19        7.7417    9.1067   10.9513 C.ar      1 RES1    0.0000
     27 C20        7.7333    7.7504   11.0898 C.ar      1 RES1    0.0000
     28 C21        7.3966    6.9654   10.0331 C.ar      1 RES1    0.0000
     29 C22        7.0638    7.5470    8.8281 C.ar      1 RES1    0.0000
     30 H1         8.1415   12.3165    5.3523 H         1 RES1    0.0000
     31 H2         7.5159   14.2696    4.0353 H         1 RES1    0.0000
     32 H3         7.1613   15.3303    1.9112 H         1 RES1    0.0000
     33 H4         6.5312   11.7075    0.3747 H         1 RES1    0.0000
     34 H5         6.8504   10.6347    2.3768 H         1 RES1    0.0000
     35 H6         4.5182   11.3089    5.0507 H         1 RES1    0.0000
     36 H7         2.5928   10.1907    4.0774 H         1 RES1    0.0000
     37 H8         2.9155    8.0737    3.1927 H         1 RES1    0.0000
     38 H9         5.1279    7.0075    3.3479 H         1 RES1    0.0000
     39 H10        7.3733   10.6712    9.6181 H         1 RES1    0.0000
     40 H11        7.9492    9.6548   11.6291 H         1 RES1    0.0000
     41 H12        7.9373    7.3640   11.9572 H         1 RES1    0.0000
     42 H13        7.3479    6.0353   10.1103 H         1 RES1    0.0000
     43 H14        6.8916    7.0097    8.1171 H         1 RES1    0.0000
     44 H15        6.0056    9.1034    7.0218 H         1 RES1    0.0000
     45 H16        8.3035    6.3332    3.9377 H         1 RES1    0.0000
@<TRIPOS>BOND
     1    1    8 2
     2    2    7 2
     3    3    7 2
     4    4   23 2
     5    5   23 1
     6    6    8 1
     7    7   14 1
     8    8    9 1
     9    9   10 2
    10   10   11 1
    11   11   12 ar
    12   12   13 ar
    13   13   14 ar
    14   14   15 ar
    15   15   16 ar
    16   16   11 ar
    17   17    9 1
    18   18   17 ar
    19   19   18 ar
    20   20   19 ar
    21   21   20 ar
    22   22   17 ar
    23   23   22 1
    24   24    6 1
    25   25   24 ar
    26   26   25 ar
    27   27   26 ar
    28   28   27 ar
    29   29   24 ar
    30   30   10 1
    31   31   12 1
    32   32   13 1
    33   33   15 1
    34   34   16 1
    35   35   18 1
    36   36   19 1
    37   37   20 1
    38   38   21 1
    39   39   25 1
    40   40   26 1
    41   41   27 1
    42   42   28 1
    43   43   29 1
    44   44    6 1
    45   45    5 1
    46   21   22 ar
    47   28   29 ar
@<TRIPOS>SUBSTRUCTURE
     1 RES1 1

@<TRIPOS>CRYSIN
   7.5687   11.0720   22.2470  90.0000  94.7150  90.0000 231 1

