# MOL2 file generated by ConQuest
# Please check atom types

@<TRIPOS>MOLECULE
MAPFOA
    57    61     1
SMALL
USER_CHARGES
****
Generated from CSD

@<TRIPOS>ATOM
      1 N1        15.8932    6.6196    0.6121 N.pl3     1 RES1    0.0000
      2 O1        10.3520   12.5145    1.7533 O.2       1 RES1   -1.0000
      3 N2        13.7069   11.0214   -2.5954 N.2       1 RES1    0.0000
      4 N3        15.1822    8.3399   -0.7577 N.ar      1 RES1    0.0000
      5 N4        14.5882   10.0677   -2.1705 N.pl3     1 RES1    0.0000
      6 N5        15.6556    5.6459    1.5238 N.2       1 RES1    0.0000
      7 N6         9.1207   12.2126    1.8446 N.pl3     1 RES1    1.0000
      8 C1        15.7696   10.1342   -2.8401 C.2       1 RES1    0.0000
      9 H1        16.5236    9.5724   -2.7138 H         1 RES1    0.0000
     10 C2        10.8901    7.3990    1.9420 C.ar      1 RES1    0.0000
     11 H2        11.3995    6.5974    1.9776 H         1 RES1    0.0000
     12 C3        14.8746    7.5299    0.2585 C.ar      1 RES1    0.0000
     13 C4        12.9861    9.2999   -0.5198 C.ar      1 RES1    0.0000
     14 H3        12.3438    9.9272   -0.8324 H         1 RES1    0.0000
     15 C5        11.3817    8.5057    1.2442 C.ar      1 RES1    0.0000
     16 C6        13.6784    7.5458    0.9429 C.ar      1 RES1    0.0000
     17 H4        13.5276    6.9533    1.6705 H         1 RES1    0.0000
     18 C7        10.6262    9.6780    1.2329 C.ar      1 RES1    0.0000
     19 H5        10.9608   10.4458    0.7850 H         1 RES1    0.0000
     20 C8        14.2364    9.1996   -1.1055 C.ar      1 RES1    0.0000
     21 C9        17.1546    6.5446    0.1078 C.2       1 RES1    0.0000
     22 H6        17.5430    7.1180   -0.5425 H         1 RES1    0.0000
     23 C10        8.6119   10.9802    1.8893 C.2       1 RES1    0.0000
     24 C11       12.7004    8.4456    0.5478 C.ar      1 RES1    0.0000
     25 N7         7.2698   11.0858    2.0186 N.3       1 RES1    0.0000
     26 C12       17.7502    5.4864    0.7181 C.2       1 RES1    0.0000
     27 H7        18.6347    5.1674    0.5855 H         1 RES1    0.0000
     28 C13        9.3863    9.7371    1.8691 C.ar      1 RES1    0.0000
     29 C14        9.6659    7.4644    2.5803 C.ar      1 RES1    0.0000
     30 H8         9.3463    6.7083    3.0582 H         1 RES1    0.0000
     31 C15       15.6644   11.1597   -3.7251 C.2       1 RES1    0.0000
     32 H9        16.3230   11.4607   -4.3398 H         1 RES1    0.0000
     33 C16       14.3808   11.6751   -3.5368 C.2       1 RES1    0.0000
     34 H10       14.0289   12.4101   -4.0255 H         1 RES1    0.0000
     35 C17       16.7839    4.9689    1.5818 C.2       1 RES1    0.0000
     36 H11       16.9237    4.2170    2.1455 H         1 RES1    0.0000
     37 C18        8.0501   13.2624    1.7638 C.3       1 RES1    0.0000
     38 C19        8.9006    8.6124    2.5344 C.ar      1 RES1    0.0000
     39 H12        8.0479    8.6346    2.9535 H         1 RES1    0.0000
     40 C20        6.8545   12.4851    2.3464 C.3       1 RES1    0.0000
     41 C21        8.4522   14.4917    2.5445 C.3       1 RES1    0.0000
     42 H13        8.6830   14.2350    3.4615 H         1 RES1    0.0000
     43 H14        7.7057   15.1264    2.5602 H         1 RES1    0.0000
     44 H15        9.2277   14.9109    2.1168 H         1 RES1    0.0000
     45 C22        5.5128   12.8061    1.7221 C.3       1 RES1    0.0000
     46 H16        5.5752   12.7174    0.7477 H         1 RES1    0.0000
     47 H17        5.2562   13.7239    1.9503 H         1 RES1    0.0000
     48 H18        4.8365   12.1841    2.0637 H         1 RES1    0.0000
     49 C23        7.9106   13.6003    0.2727 C.3       1 RES1    0.0000
     50 H19        8.7717   13.9193   -0.0718 H         1 RES1    0.0000
     51 H20        7.2341   14.3005    0.1579 H         1 RES1    0.0000
     52 H21        7.6388   12.7988   -0.2196 H         1 RES1    0.0000
     53 C24        6.7605   12.5358    3.8705 C.3       1 RES1    0.0000
     54 H22        6.1087   11.8736    4.1805 H         1 RES1    0.0000
     55 H23        6.4768   13.4314    4.1504 H         1 RES1    0.0000
     56 H24        7.6386   12.3362    4.2580 H         1 RES1    0.0000
     57 O2         6.4238   10.1364    2.0063 O.2       1 RES1    0.0000
@<TRIPOS>BOND
     1    1    6 1
     2    2    7 1
     3    3    5 1
     4    4   12 ar
     5    5    8 1
     6    6   35 2
     7    7   23 2
     8    8    9 1
     9   10   11 1
    10   12    1 1
    11   13   14 1
    12   15   10 ar
    13   16   12 ar
    14   17   16 1
    15   18   15 ar
    16   19   18 1
    17   20    4 ar
    18   21    1 1
    19   22   21 1
    20   23   25 1
    21   24   13 ar
    22   25   40 1
    23   26   21 2
    24   27   26 1
    25   28   18 ar
    26   29   10 ar
    27   30   29 1
    28   31    8 2
    29   32   31 1
    30   33    3 2
    31   34   33 1
    32   35   26 1
    33   36   35 1
    34   37    7 1
    35   38   28 ar
    36   39   38 1
    37   40   37 1
    38   41   37 1
    39   42   41 1
    40   43   41 1
    41   44   41 1
    42   45   40 1
    43   46   45 1
    44   47   45 1
    45   48   45 1
    46   49   37 1
    47   50   49 1
    48   51   49 1
    49   52   49 1
    50   53   40 1
    51   54   53 1
    52   55   53 1
    53   56   53 1
    54   57   25 1
    55    5   20 1
    56   13   20 ar
    57   15   24 1
    58   16   24 ar
    59   23   28 1
    60   29   38 ar
    61   31   33 1
@<TRIPOS>SUBSTRUCTURE
     1 RES1 1

@<TRIPOS>CRYSIN
  14.5840   10.5609   15.2400  90.0000 109.6650  90.0000  14 1

