# MOL2 file generated by ConQuest
# Please check atom types

@<TRIPOS>MOLECULE
MAPJOE
   113    89     2
SMALL
NO_CHARGES
****
Generated from CSD

@<TRIPOS>ATOM
      1 C1         3.2046    9.0363   16.1690 C.ar      1 RES1    0.0000
      2 C2         3.2653   10.4204   16.2614 C.ar      1 RES1    0.0000
      3 H1         3.7543   10.7963   16.9563 H         1 RES1    0.0000
      4 C3         2.6416   11.2676   15.3715 C.ar      1 RES1    0.0000
      5 H2         2.7171   12.1876   15.4843 H         1 RES1    0.0000
      6 C4         1.8953   10.7617   14.3021 C.ar      1 RES1    0.0000
      7 C5         1.8121    9.3561   14.1764 C.ar      1 RES1    0.0000
      8 C6         2.4638    8.4970   15.1150 C.ar      1 RES1    0.0000
      9 C7         2.3365    7.1104   14.8868 C.ar      1 RES1    0.0000
     10 H3         2.7630    6.5222   15.4664 H         1 RES1    0.0000
     11 C8         1.6127    6.5962   13.8508 C.ar      1 RES1    0.0000
     12 H4         1.5426    5.6738   13.7559 H         1 RES1    0.0000
     13 C9         0.9641    7.4469   12.9147 C.ar      1 RES1    0.0000
     14 C10        0.2074    6.9398   11.8402 C.ar      1 RES1    0.0000
     15 H5         0.1199    6.0198   11.7325 H         1 RES1    0.0000
     16 C11       -0.4082    7.7965   10.9426 C.ar      1 RES1    0.0000
     17 H6        -0.9073    7.4541   10.2374 H         1 RES1    0.0000
     18 C12       -0.2780    9.1652   11.1042 C.ar      1 RES1    0.0000
     19 H7        -0.6801    9.7367   10.4913 H         1 RES1    0.0000
     20 C13        0.4401    9.7021   12.1633 C.ar      1 RES1    0.0000
     21 C14        1.0672    8.8478   13.0840 C.ar      1 RES1    0.0000
     22 C15        1.2789   11.6507   13.3635 C.ar      1 RES1    0.0000
     23 H8         1.3487   12.5718   13.4635 H         1 RES1    0.0000
     24 C16        0.5787   11.1030   12.3095 C.ar      1 RES1    0.0000
     25 H9         0.1892   11.6674   11.6812 H         1 RES1    0.0000
     26 C17        3.8870    8.1545   17.1641 C.3       1 RES1    0.0000
     27 H10        4.3129    8.7201   17.8257 H         1 RES1    0.0000
     28 H11        4.5899    7.6689   16.7025 H         1 RES1    0.0000
     29 C18        3.0161    7.1489   17.8896 C.2       1 RES1    0.0000
     30 O1         1.8507    7.4256   18.1481 O.2       1 RES1    0.0000
     31 N1         3.6029    5.9889   18.2001 N.am      1 RES1    0.0000
     32 H12        4.4116    5.8838   17.9257 H         1 RES1    0.0000
     33 C19        3.0212    4.8768   18.9564 C.3       1 RES1    0.0000
     34 C20        2.4863    5.3389   20.3240 C.3       1 RES1    0.0000
     35 H13        1.7153    5.9089   20.1799 H         1 RES1    0.0000
     36 H14        2.1864    4.5605   20.8184 H         1 RES1    0.0000
     37 C21        3.4900    6.0878   21.1662 C.3       1 RES1    0.0000
     38 H15        4.2976    5.5736   21.2365 H         1 RES1    0.0000
     39 H16        3.1264    6.2346   22.0417 H         1 RES1    0.0000
     40 H17        3.6845    6.9338   20.7569 H         1 RES1    0.0000
     41 C22        1.8876    4.1979   18.1596 C.3       1 RES1    0.0000
     42 H18        1.4730    3.5260   18.7233 H         1 RES1    0.0000
     43 H19        1.2128    4.8636   17.9539 H         1 RES1    0.0000
     44 C23        2.3248    3.5386   16.8645 C.3       1 RES1    0.0000
     45 H20        2.7293    4.1942   16.2921 H         1 RES1    0.0000
     46 H21        1.5612    3.1573   16.4255 H         1 RES1    0.0000
     47 H22        2.9610    2.8458   17.0564 H         1 RES1    0.0000
     48 C24        4.2073    3.9202   19.1962 C.2       1 RES1    0.0000
     49 O2         5.3573    4.2763   18.9605 O.2       1 RES1    0.0000
     50 N2         3.9185    2.7116   19.6808 N.am      1 RES1    0.0000
     51 H23        3.0942    2.4843   19.7747 H         1 RES1    0.0000
     52 C25        4.9691    1.7582   20.0606 C.3       1 RES1    0.0000
     53 C26        4.3145    0.3673   20.0719 C.3       1 RES1    0.0000
     54 H24        3.6187    0.3627   20.7492 H         1 RES1    0.0000
     55 H25        3.8864    0.2243   19.2131 H         1 RES1    0.0000
     56 C27        5.2467   -0.7960   20.3394 C.3       1 RES1    0.0000
     57 H26        5.9294   -0.8209   19.6644 H         1 RES1    0.0000
     58 H27        4.7479   -1.6168   20.3209 H         1 RES1    0.0000
     59 H28        5.6540   -0.6885   21.2031 H         1 RES1    0.0000
     60 C28        5.5786    2.1570   21.4165 C.3       1 RES1    0.0000
     61 H29        6.2380    1.4915   21.6699 H         1 RES1    0.0000
     62 H30        6.0394    3.0045   21.3134 H         1 RES1    0.0000
     63 C29        4.5630    2.2886   22.5402 C.3       1 RES1    0.0000
     64 H31        3.9125    2.9544   22.3084 H         1 RES1    0.0000
     65 H32        5.0120    2.5475   23.3496 H         1 RES1    0.0000
     66 H33        4.1233    1.4450   22.6751 H         1 RES1    0.0000
     67 C30        6.0777    1.7582   18.9966 C.2       1 RES1    0.0000
     68 O3         7.2525    1.7097   19.2369 O.2       1 RES1    0.0000
     69 O4         5.5740    1.7206   17.7516 O.3       1 RES1    0.0000
     70 C31        6.5525    1.8889   16.6925 C.3       1 RES1    0.0000
     71 H34        7.0197    1.0548   16.5306 H         1 RES1    0.0000
     72 H35        7.2033    2.5642   16.9410 H         1 RES1    0.0000
     73 C32        5.8006    2.3158   15.4602 C.ar      1 RES1    0.0000
     74 C33        5.3008    1.3637   14.5893 C.ar      1 RES1    0.0000
     75 H36        5.4606    0.4618   14.7509 H         1 RES1    0.0000
     76 C34        4.5686    1.7408   13.4856 C.ar      1 RES1    0.0000
     77 H37        4.2192    1.1002   12.9096 H         1 RES1    0.0000
     78 C35        4.3645    3.0689   13.2509 C.ar      1 RES1    0.0000
     79 C36        4.8814    4.0452   14.0636 C.ar      1 RES1    0.0000
     80 H38        4.7543    4.9459   13.8687 H         1 RES1    0.0000
     81 C37        5.5957    3.6525   15.1807 C.ar      1 RES1    0.0000
     82 H39        5.9428    4.2980   15.7536 H         1 RES1    0.0000
     83 N3         3.5800    3.4557   12.0636 N.pl3     1 RES1    0.0000
     84 O5         3.4898    4.6264   11.7715 O.2       1 RES1    0.0000
     85 O6         3.0733    2.5635   11.3978 O.2       1 RES1    0.0000
     86 C38        3.3107    9.0757   16.3050 Du        2 SUP2    0.0000
     87 C39        3.5200   10.4276   16.5896 Du        2 SUP2    0.0000
     88 C40        2.9607   11.3941   15.7844 Du        2 SUP2    0.0000
     89 C41        2.1775   11.0302   14.6893 Du        2 SUP2    0.0000
     90 C42        1.9461    9.6985   14.3816 Du        2 SUP2    0.0000
     91 C43        2.5345    8.7201   15.1997 Du        2 SUP2    0.0000
     92 C44        2.3205    7.3753   14.8509 Du        2 SUP2    0.0000
     93 C45        1.5634    7.0066   13.7661 Du        2 SUP2    0.0000
     94 C46        0.9549    7.9898   12.9788 Du        2 SUP2    0.0000
     95 C47        0.2256    7.5770   11.8582 Du        2 SUP2    0.0000
     96 C48       -0.3575    8.5674   11.0760 Du        2 SUP2    0.0000
     97 C49       -0.1026    9.8918   11.3478 Du        2 SUP2    0.0000
     98 C50        0.6414   10.3095   12.4377 Du        2 SUP2    0.0000
     99 C51        1.1720    9.3322   13.2763 Du        2 SUP2    0.0000
    100 C52        1.6469   12.0349   13.8687 Du        2 SUP2    0.0000
    101 C53        0.9052   11.6340   12.7762 Du        2 SUP2    0.0000
    102 C54        4.0273    8.0674   17.1589 Du        2 SUP2    0.0000
    103 H40        4.0355   10.6746   17.3231 Du        2 SUP2    0.0000
    104 H41        3.1054   12.2938   15.9716 Du        2 SUP2    0.0000
    105 H42        2.7033    6.7095   15.3766 Du        2 SUP2    0.0000
    106 H43        1.4566    6.1069   13.5533 Du        2 SUP2    0.0000
    107 H44        0.1327    6.6797   11.6453 Du        2 SUP2    0.0000
    108 H45       -0.9088    8.3263   10.3682 Du        2 SUP2    0.0000
    109 H46       -0.4495   10.5433   10.7759 Du        2 SUP2    0.0000
    110 H47        1.7907   12.9358   14.0534 Du        2 SUP2    0.0000
    111 H48        0.5535   12.3034   12.2300 Du        2 SUP2    0.0000
    112 H49        4.5754    8.5292   17.8129 Du        2 SUP2    0.0000
    113 H50        4.6118    7.5281   16.6050 Du        2 SUP2    0.0000
@<TRIPOS>BOND
     1    1    2 ar
     2    2    3 1
     3    4    2 ar
     4    5    4 1
     5    6    4 ar
     6    7    6 ar
     7    8    1 ar
     8    9    8 ar
     9   10    9 1
    10   11    9 ar
    11   12   11 1
    12   13   11 ar
    13   14   13 ar
    14   15   14 1
    15   16   14 ar
    16   17   16 1
    17   18   16 ar
    18   19   18 1
    19   20   18 ar
    20   21    7 ar
    21   22    6 ar
    22   23   22 1
    23   24   20 ar
    24   25   24 1
    25   26    1 1
    26   27   26 1
    27   28   26 1
    28   29   26 1
    29   30   29 2
    30   31   29 1
    31   32   31 1
    32   33   31 1
    33   34   33 1
    34   35   34 1
    35   36   34 1
    36   37   34 1
    37   38   37 1
    38   39   37 1
    39   40   37 1
    40   41   33 1
    41   42   41 1
    42   43   41 1
    43   44   41 1
    44   45   44 1
    45   46   44 1
    46   47   44 1
    47   48   33 1
    48   49   48 2
    49   50   48 1
    50   51   50 1
    51   52   50 1
    52   53   52 1
    53   54   53 1
    54   55   53 1
    55   56   53 1
    56   57   56 1
    57   58   56 1
    58   59   56 1
    59   60   52 1
    60   61   60 1
    61   62   60 1
    62   63   60 1
    63   64   63 1
    64   65   63 1
    65   66   63 1
    66   67   52 1
    67   68   67 2
    68   69   67 1
    69   70   69 1
    70   71   70 1
    71   72   70 1
    72   73   70 1
    73   74   73 ar
    74   75   74 1
    75   76   74 ar
    76   77   76 1
    77   78   76 ar
    78   79   78 ar
    79   80   79 1
    80   81   73 ar
    81   82   81 1
    82   83   78 1
    83   84   83 2
    84   85   83 2
    85    7    8 ar
    86   13   21 ar
    87   20   21 ar
    88   22   24 ar
    89   79   81 ar
@<TRIPOS>SUBSTRUCTURE
     1 RES1 1
     2 SUP2 86

@<TRIPOS>CRYSIN
  10.6818   11.9323   25.6913  90.0000  93.4477  90.0000 231 1

