# MOL2 file generated by ConQuest
# Please check atom types

@<TRIPOS>MOLECULE
MAPNAU
    27    28     1
SMALL
USER_CHARGES
****
Generated from CSD

@<TRIPOS>ATOM
      1 H1         0.8694   -0.1537    0.9859 H         1 RES1    0.0000
      2 H2         4.0719    1.9708    0.6318 H         1 RES1    0.0000
      3 C1         2.2703    1.1273    0.4841 C.2       1 RES1    0.0000
      4 C2         3.7986    0.4410    2.0238 C.3       1 RES1    0.0000
      5 H3         3.7514    1.0324    2.8170 H         1 RES1    0.0000
      6 H4         4.6691   -0.0313    2.0202 H         1 RES1    0.0000
      7 C3         2.6334   -0.5397    1.9918 C.3       1 RES1    0.0000
      8 H5         2.8707   -1.3701    1.5071 H         1 RES1    0.0000
      9 H6         2.3275   -0.7695    2.9055 H         1 RES1    0.0000
     10 C4         2.3820    2.7591   -1.3147 C.3       1 RES1    0.0000
     11 H7         3.1267    3.1700   -0.8069 H         1 RES1    0.0000
     12 H8         1.7643    3.4845   -1.5836 H         1 RES1    0.0000
     13 C5         2.9414    2.1054   -2.5615 C.ar      1 RES1    0.0000
     14 C6         4.0818    2.6345   -3.1625 C.ar      1 RES1    0.0000
     15 H9         4.5032    3.3975   -2.7848 H         1 RES1    0.0000
     16 C7         4.6069    2.0516   -4.3108 C.ar      1 RES1    0.0000
     17 H10        5.3783    2.4238   -4.7205 H         1 RES1    0.0000
     18 C8         4.0058    0.9278   -4.8583 C.ar      1 RES1    0.0000
     19 H11        4.3667    0.5288   -5.6420 H         1 RES1    0.0000
     20 C9         2.8765    0.3889   -4.2591 C.ar      1 RES1    0.0000
     21 H12        2.4668   -0.3842   -4.6279 H         1 RES1    0.0000
     22 C10        2.3421    0.9784   -3.1184 C.ar      1 RES1    0.0000
     23 H13        1.5643    0.6097   -2.7164 H         1 RES1    0.0000
     24 N1         1.6218    0.2373    1.2650 N.pl3     1 RES1    1.0000
     25 N2         3.5916    1.1935    0.7793 N.3       1 RES1    0.0000
     26 N3         1.6716    1.8381   -0.4421 N.3       1 RES1    0.0000
     27 O1         0.3419    1.5966   -0.7145 O.2       1 RES1   -1.0000
@<TRIPOS>BOND
     1    1   24 1
     2    2   25 1
     3    3   24 2
     4    4    5 1
     5    6    4 1
     6    7    4 1
     7    8    7 1
     8    9    7 1
     9   10   11 1
    10   12   10 1
    11   13   10 1
    12   14   13 ar
    13   15   14 1
    14   16   14 ar
    15   17   16 1
    16   18   16 ar
    17   19   18 1
    18   20   18 ar
    19   21   20 1
    20   22   13 ar
    21   23   22 1
    22   24    7 1
    23   25    3 1
    24   26    3 1
    25   27   26 1
    26    4   25 1
    27   10   26 1
    28   20   22 ar
@<TRIPOS>SUBSTRUCTURE
     1 RES1 1

@<TRIPOS>CRYSIN
   9.4805   10.1116   20.1214  90.0000  90.0000  90.0000  61 1

