# MOL2 file generated by ConQuest
# Please check atom types

@<TRIPOS>MOLECULE
MAPPUQ
    30    30     1
SMALL
NO_CHARGES
****
Generated from CSD

@<TRIPOS>ATOM
      1 N1        -1.2017    8.5717    1.0863 N.pl3     1 RES1    0.0000
      2 N2         0.0966    5.6539    2.9926 N.3       1 RES1    0.0000
      3 H1         0.4372    5.9437    3.7276 H         1 RES1    0.0000
      4 O1        -1.3954    9.7646    1.2041 O.2       1 RES1    0.0000
      5 O2        -1.6356    7.9510    0.1095 O.2       1 RES1    0.0000
      6 O3         1.2574    3.8847    1.9241 O.3       1 RES1    0.0000
      7 C1        -0.4898    7.8520    2.0732 C.2       1 RES1    0.0000
      8 C2        -0.4898    6.4238    2.0732 C.2       1 RES1    0.0000
      9 C3         0.0809    4.2524    2.5798 C.3       1 RES1    0.0000
     10 H2        -0.1100    3.6577    3.3353 H         1 RES1    0.0000
     11 C4         2.3564    3.6508    2.8237 C.2       1 RES1    0.0000
     12 C5         3.4547    2.9831    2.0831 C.3       1 RES1    0.0000
     13 H3         4.1918    2.8251    2.6777 H         1 RES1    0.0000
     14 H4         3.7423    3.5457    1.3600 H         1 RES1    0.0000
     15 H5         3.1418    2.1462    1.7323 H         1 RES1    0.0000
     16 O4         2.3454    4.9574    3.3917 O.2       1 RES1    0.0000
     17 N1A        0.2220    8.5717    3.0600 N.pl3     1 RES1    0.0000
     18 N2A       -1.0763    5.6539    1.1538 N.3       1 RES1    0.0000
     19 H1A       -1.4169    5.9437    0.4188 H         1 RES1    0.0000
     20 O1A        0.4157    9.7646    2.9422 O.2       1 RES1    0.0000
     21 O2A        0.6559    7.9510    4.0369 O.2       1 RES1    0.0000
     22 O3A       -2.2371    3.8847    2.2223 O.3       1 RES1    0.0000
     23 C3A       -1.0606    4.2524    1.5665 C.3       1 RES1    0.0000
     24 H2A       -0.8697    3.6577    0.8110 H         1 RES1    0.0000
     25 C4A       -3.3361    3.6508    1.3227 C.2       1 RES1    0.0000
     26 C5A       -4.4344    2.9831    2.0632 C.3       1 RES1    0.0000
     27 H3A       -5.1714    2.8251    1.4686 H         1 RES1    0.0000
     28 H4A       -4.7220    3.5457    2.7863 H         1 RES1    0.0000
     29 H5A       -4.1215    2.1462    2.4140 H         1 RES1    0.0000
     30 O4A       -3.3251    4.9574    0.7546 O.2       1 RES1    0.0000
@<TRIPOS>BOND
     1    1    4 2
     2    2    3 1
     3    5    1 2
     4    6    9 1
     5    7    1 1
     6    8    2 1
     7    9    2 1
     8   10    9 1
     9   11    6 1
    10   12   11 1
    11   13   12 1
    12   14   12 1
    13   15   12 1
    14   16   11 2
    15   17    7 1
    16   18    8 1
    17   19   18 1
    18   20   17 2
    19   21   17 2
    20   22   23 1
    21   23    9 1
    22   24   23 1
    23   25   22 1
    24   26   25 1
    25   27   26 1
    26   28   26 1
    27   29   26 1
    28   30   25 2
    29    7    8 2
    30   18   23 1
@<TRIPOS>SUBSTRUCTURE
     1 RES1 1

@<TRIPOS>CRYSIN
  15.9170    8.6820    8.5210  90.0000 103.2940  90.0000  15 1

