# MOL2 file generated by ConQuest
# Please check atom types

@<TRIPOS>MOLECULE
MAPZOT
    45    49     1
SMALL
NO_CHARGES
****
Generated from CSD

@<TRIPOS>ATOM
      1 O1         2.0357    2.2753    3.4929 O.2       1 RES1    0.0000
      2 N1         2.5559    1.8478    2.4066 N.pl3     1 RES1    0.0000
      3 C1         3.6876    2.6689    1.8573 C.3       1 RES1    0.0000
      4 C2         4.2921    1.9682    0.6668 C.2       1 RES1    0.0000
      5 C3         3.8049    0.8650    0.1120 C.2       1 RES1    0.0000
      6 C4         2.6234    0.2031    0.6291 C.2       1 RES1    0.0000
      7 C5         2.0376   -0.9565    0.0195 C.ar      1 RES1    0.0000
      8 C6         2.5358   -1.5507   -1.1605 C.ar      1 RES1    0.0000
      9 C7         1.8957   -2.6288   -1.7244 C.ar      1 RES1    0.0000
     10 C8         0.7580   -3.1829   -1.1448 C.ar      1 RES1    0.0000
     11 C9         0.2780   -2.6652    0.0104 C.ar      1 RES1    0.0000
     12 C10        0.8951   -1.5507    0.6213 C.ar      1 RES1    0.0000
     13 C11        0.3766   -1.0054    1.8156 C.2       1 RES1    0.0000
     14 C12        0.9204    0.0965    2.3913 C.2       1 RES1    0.0000
     15 C13        2.0384    0.7171    1.7869 C.2       1 RES1    0.0000
     16 C14        3.0912    4.0328    1.4887 C.ar      1 RES1    0.0000
     17 C15        2.6686    4.9104    2.4850 C.ar      1 RES1    0.0000
     18 C16        2.0381    6.0912    2.1555 C.ar      1 RES1    0.0000
     19 C17        1.8234    6.4209    0.8388 C.ar      1 RES1    0.0000
     20 C18        2.2593    5.5810   -0.1485 C.ar      1 RES1    0.0000
     21 C19        2.8855    4.3851    0.1680 C.ar      1 RES1    0.0000
     22 C20        4.7764    2.7479    2.9409 C.ar      1 RES1    0.0000
     23 C21        5.5911    3.8573    3.0659 C.ar      1 RES1    0.0000
     24 C22        6.6085    3.8837    4.0024 C.ar      1 RES1    0.0000
     25 C23        6.8402    2.8131    4.8164 C.ar      1 RES1    0.0000
     26 C24        6.0567    1.7011    4.6940 C.ar      1 RES1    0.0000
     27 C25        5.0280    1.6648    3.7627 C.ar      1 RES1    0.0000
     28 H1         5.0837    2.3505    0.2800 H         1 RES1    0.0000
     29 H2         4.2495    0.4939   -0.6538 H         1 RES1    0.0000
     30 H3         3.3279   -1.1997   -1.5733 H         1 RES1    0.0000
     31 H4         2.2416   -3.0074   -2.5358 H         1 RES1    0.0000
     32 H5         0.3177   -3.9263   -1.5629 H         1 RES1    0.0000
     33 H6        -0.4939   -3.0638    0.4220 H         1 RES1    0.0000
     34 H7        -0.3820   -1.4241    2.2311 H         1 RES1    0.0000
     35 H8         0.5499    0.4525    3.2040 H         1 RES1    0.0000
     36 H9         2.8181    4.6910    3.4085 H         1 RES1    0.0000
     37 H10        1.7477    6.6867    2.8497 H         1 RES1    0.0000
     38 H11        1.3689    7.2383    0.6147 H         1 RES1    0.0000
     39 H12        2.1333    5.8217   -1.0706 H         1 RES1    0.0000
     40 H13        3.1772    3.7997   -0.5327 H         1 RES1    0.0000
     41 H14        5.4505    4.6195    2.4981 H         1 RES1    0.0000
     42 H15        7.1614    4.6646    4.0818 H         1 RES1    0.0000
     43 H16        7.5437    2.8444    5.4676 H         1 RES1    0.0000
     44 H17        6.2187    0.9389    5.2540 H         1 RES1    0.0000
     45 H18        4.4840    0.8775    3.6885 H         1 RES1    0.0000
@<TRIPOS>BOND
     1    1    2 1
     2    2    3 1
     3    3    4 1
     4    4    5 2
     5    5    6 1
     6    6    7 1
     7    7    8 ar
     8    8    9 ar
     9    9   10 ar
    10   10   11 ar
    11   11   12 ar
    12   12    7 ar
    13   13   12 1
    14   14   13 2
    15   15    2 1
    16   16    3 1
    17   17   16 ar
    18   18   17 ar
    19   19   18 ar
    20   20   19 ar
    21   21   16 ar
    22   22    3 1
    23   23   22 ar
    24   24   23 ar
    25   25   24 ar
    26   26   25 ar
    27   27   22 ar
    28   28    4 1
    29   29    5 1
    30   30    8 1
    31   31    9 1
    32   32   10 1
    33   33   11 1
    34   34   13 1
    35   35   14 1
    36   36   17 1
    37   37   18 1
    38   38   19 1
    39   39   20 1
    40   40   21 1
    41   41   23 1
    42   42   24 1
    43   43   25 1
    44   44   26 1
    45   45   27 1
    46    6   15 2
    47   14   15 1
    48   20   21 ar
    49   26   27 ar
@<TRIPOS>SUBSTRUCTURE
     1 RES1 1

@<TRIPOS>CRYSIN
  11.1730   12.5360   13.0260  90.0000  90.9160  90.0000  14 1

