# MOL2 file generated by ConQuest
# Please check atom types

@<TRIPOS>MOLECULE
MAQCEN
    41    44     1
SMALL
NO_CHARGES
****
Generated from CSD

@<TRIPOS>ATOM
      1 C1         3.2212    2.1308    1.9827 C.2       1 RES1    0.0000
      2 O1         2.9361   -0.4706    3.4655 O.2       1 RES1    0.0000
      3 N1         2.7014    3.3143    1.7283 N.2       1 RES1    0.0000
      4 O2         2.0314    3.6927    2.8942 O.3       1 RES1    0.0000
      5 N2         2.1676    2.7524    3.8768 N.2       1 RES1    0.0000
      6 C2         2.8785    1.8191    3.3336 C.2       1 RES1    0.0000
      7 N3         3.0993    0.6039    4.0841 N.pl3     1 RES1    0.0000
      8 N4         3.3998    0.7814    5.3150 N.2       1 RES1    0.0000
      9 C3         3.5143   -0.3377    6.1202 C.2       1 RES1    0.0000
     10 N5         3.4139   -1.6041    5.7648 N.2       1 RES1    0.0000
     11 O3         3.5998   -2.3144    6.9145 O.3       1 RES1    0.0000
     12 N6         3.8170   -1.4764    8.0277 N.2       1 RES1    0.0000
     13 C4         3.7757   -0.2515    7.5431 C.2       1 RES1    0.0000
     14 N7         3.8805    1.3912    1.0473 N.3       1 RES1    0.0000
     15 C5         4.0374    1.9835   -0.2891 C.3       1 RES1    0.0000
     16 H1         3.2470    2.5483   -0.4541 H         1 RES1    0.0000
     17 H2         4.1043    1.2676   -0.9640 H         1 RES1    0.0000
     18 C6         5.3113    2.7812   -0.3719 C.3       1 RES1    0.0000
     19 H3         5.2599    3.4918    0.2475 H         1 RES1    0.0000
     20 H4         5.4767    3.0313   -1.2741 H         1 RES1    0.0000
     21 O4         6.4409    1.9611   -0.0624 O.3       1 RES1    0.0000
     22 C7         6.3285    1.4622    1.2633 C.3       1 RES1    0.0000
     23 H5         7.1003    0.9028    1.4508 H         1 RES1    0.0000
     24 H6         6.3286    2.2034    1.9294 H         1 RES1    0.0000
     25 C8         5.0776    0.6278    1.4299 C.3       1 RES1    0.0000
     26 H7         5.1143   -0.1975    0.8104 H         1 RES1    0.0000
     27 H8         5.0046    0.3814    2.3197 H         1 RES1    0.0000
     28 N8         4.0305    0.8341    8.3139 N.3       1 RES1    0.0000
     29 C9         3.4911    2.1685    8.0334 C.3       1 RES1    0.0000
     30 H9         3.4580    2.3372    7.0869 H         1 RES1    0.0000
     31 H10        2.5727    2.2141    8.4996 H         1 RES1    0.0000
     32 C10        4.4094    3.1900    8.6624 C.3       1 RES1    0.0000
     33 H11        3.9513    4.0252    8.5567 H         1 RES1    0.0000
     34 H12        5.3083    3.1536    8.2277 H         1 RES1    0.0000
     35 O5         4.5521    2.9840   10.0648 O.3       1 RES1    0.0000
     36 C11        5.0944    1.6963   10.3123 C.3       1 RES1    0.0000
     37 H13        5.9991    1.6652    9.8988 H         1 RES1    0.0000
     38 H14        5.1358    1.6159   11.2422 H         1 RES1    0.0000
     39 C12        4.2322    0.6007    9.7423 C.3       1 RES1    0.0000
     40 H15        4.6965   -0.2635    9.8457 H         1 RES1    0.0000
     41 H16        3.3981    0.5898   10.1911 H         1 RES1    0.0000
@<TRIPOS>BOND
     1    1    3 2
     2    2    7 1
     3    3    4 1
     4    4    5 1
     5    5    6 2
     6    6    1 1
     7    7    6 1
     8    8    7 2
     9    9    8 1
    10   10    9 2
    11   11   10 1
    12   12   11 1
    13   13    9 1
    14   14    1 1
    15   15   14 1
    16   16   15 1
    17   17   15 1
    18   18   15 1
    19   19   18 1
    20   20   18 1
    21   21   18 1
    22   22   21 1
    23   23   22 1
    24   24   22 1
    25   25   14 1
    26   26   25 1
    27   27   25 1
    28   28   13 1
    29   29   28 1
    30   30   29 1
    31   31   29 1
    32   32   29 1
    33   33   32 1
    34   34   32 1
    35   35   32 1
    36   36   35 1
    37   37   36 1
    38   38   36 1
    39   39   28 1
    40   40   39 1
    41   41   39 1
    42   12   13 2
    43   22   25 1
    44   36   39 1
@<TRIPOS>SUBSTRUCTURE
     1 RES1 1

@<TRIPOS>CRYSIN
   6.7202    8.4002   13.9380  94.5990 101.3850  94.6820   2 1

