# MOL2 file generated by ConQuest
# Please check atom types

@<TRIPOS>MOLECULE
MAQSIJ
    35    38     1
SMALL
NO_CHARGES
****
Generated from CSD

@<TRIPOS>ATOM
      1 C1         0.1126    6.4750   12.9885 C.3       1 RES1    0.0000
      2 H1        -0.7792    6.7267   12.6709 H         1 RES1    0.0000
      3 C2         1.1845    7.4465   12.4598 C.3       1 RES1    0.0000
      4 H2         0.8297    8.0714   11.7934 H         1 RES1    0.0000
      5 C3         1.5510    5.3500   11.5624 C.3       1 RES1    0.0000
      6 C4         2.5246    4.2262   11.7668 C.3       1 RES1    0.0000
      7 H3         2.8039    4.2085   12.6864 H         1 RES1    0.0000
      8 H4         3.2894    4.3575   11.2025 H         1 RES1    0.0000
      9 H5         2.1023    3.3926   11.5446 H         1 RES1    0.0000
     10 C5         0.9869    5.4295   10.1540 C.3       1 RES1    0.0000
     11 H6         0.5821    4.5905    9.9252 H         1 RES1    0.0000
     12 H7         1.6954    5.6238    9.5365 H         1 RES1    0.0000
     13 H8         0.3267    6.1250   10.1140 H         1 RES1    0.0000
     14 C6         1.6960    8.1520   13.7127 C.3       1 RES1    0.0000
     15 H9         2.6483    8.3706   13.6327 H         1 RES1    0.0000
     16 C7         1.4575    7.0866   14.7943 C.3       1 RES1    0.0000
     17 H10        2.1543    6.3999   14.7368 H         1 RES1    0.0000
     18 C8         1.2944   10.1900   14.9211 C.3       1 RES1    0.0000
     19 H11        1.1850   11.1085   14.6279 H         1 RES1    0.0000
     20 H12        2.2330   10.0553   15.1255 H         1 RES1    0.0000
     21 C9         0.5152    9.9858   16.1340 C.3       1 RES1    0.0000
     22 H13       -0.3787   10.3247   15.9630 H         1 RES1    0.0000
     23 H14        0.9003   10.5477   16.8227 H         1 RES1    0.0000
     24 C10        0.3633    8.5848   16.7205 C.3       1 RES1    0.0000
     25 H15       -0.5471    8.2591   16.5605 H         1 RES1    0.0000
     26 C11        1.3597    7.5801   16.1962 C.2       1 RES1    0.0000
     27 C12        0.6905    8.4744   18.1888 C.3       1 RES1    0.0000
     28 H16        0.7819    9.3587   18.5776 H         1 RES1    0.0000
     29 H17       -0.0234    8.0085   18.6553 H         1 RES1    0.0000
     30 N1         2.1974    7.1794   17.0626 N.2       1 RES1    0.0000
     31 O1         2.1825    6.5865   11.9223 O.3       1 RES1    0.0000
     32 O2         0.4871    5.2043   12.4994 O.3       1 RES1    0.0000
     33 O3         0.1785    6.5170   14.3911 O.3       1 RES1    0.0000
     34 O4         0.9200    9.3123   13.8529 O.3       1 RES1    0.0000
     35 O5         1.9105    7.7535   18.3132 O.3       1 RES1    0.0000
@<TRIPOS>BOND
     1    1    2 1
     2    3    1 1
     3    4    3 1
     4    5    6 1
     5    6    7 1
     6    8    6 1
     7    9    6 1
     8   10    5 1
     9   11   10 1
    10   12   10 1
    11   13   10 1
    12   14    3 1
    13   15   14 1
    14   16   14 1
    15   17   16 1
    16   18   19 1
    17   20   18 1
    18   21   18 1
    19   22   21 1
    20   23   21 1
    21   24   21 1
    22   25   24 1
    23   26   16 1
    24   27   24 1
    25   28   27 1
    26   29   27 1
    27   30   26 2
    28   31    3 1
    29   32    1 1
    30   33    1 1
    31   34   14 1
    32   35   27 1
    33    5   31 1
    34    5   32 1
    35   16   33 1
    36   18   34 1
    37   24   26 1
    38   30   35 1
@<TRIPOS>SUBSTRUCTURE
     1 RES1 1

@<TRIPOS>CRYSIN
   5.3115   11.0401   22.2140  90.0000  90.0000  90.0000  19 1

