# MOL2 file generated by ConQuest
# Please check atom types

@<TRIPOS>MOLECULE
MARXUA
    70    73     1
SMALL
NO_CHARGES
****
Generated from CSD

@<TRIPOS>ATOM
      1 N1         9.5052    0.5666    3.7390 N.2       1 RES1    0.0000
      2 N2         7.2108    1.6411    8.0904 N.2       1 RES1    0.0000
      3 O1        10.0168    0.6004    2.4304 O.3       1 RES1    0.0000
      4 H1         9.4655    0.9455    1.9292 H         1 RES1    0.0000
      5 O2         7.0663    5.2213    6.3659 O.3       1 RES1    0.0000
      6 C1        11.6500   -0.5275    4.2197 C.3       1 RES1    0.0000
      7 H2        11.5436   -1.3965    3.8265 H         1 RES1    0.0000
      8 H3        12.1874   -0.5978    5.0119 H         1 RES1    0.0000
      9 H4        12.0816    0.0569    3.5919 H         1 RES1    0.0000
     10 C2        10.3032    0.0285    4.5761 C.2       1 RES1    0.0000
     11 C3         9.7817   -0.0418    5.9604 C.ar      1 RES1    0.0000
     12 C4         8.7663    0.8192    6.3647 C.ar      1 RES1    0.0000
     13 H5         8.4455    1.4552    5.7676 H         1 RES1    0.0000
     14 C5         8.2235    0.7490    7.6338 C.ar      1 RES1    0.0000
     15 C6         8.6596   -0.2473    8.4969 C.ar      1 RES1    0.0000
     16 H6         8.2685   -0.3425    9.3356 H         1 RES1    0.0000
     17 C7         9.6718   -1.0941    8.1097 C.ar      1 RES1    0.0000
     18 H7         9.9743   -1.7452    8.7012 H         1 RES1    0.0000
     19 C8        10.2425   -0.9945    6.8667 C.ar      1 RES1    0.0000
     20 H8        10.9383   -1.5638    6.6288 H         1 RES1    0.0000
     21 C9         7.3017    2.8580    7.7330 C.2       1 RES1    0.0000
     22 H9         8.0061    3.1079    7.1797 H         1 RES1    0.0000
     23 C10        6.3497    3.8792    8.1519 C.ar      1 RES1    0.0000
     24 C11        6.2731    5.0969    7.4749 C.ar      1 RES1    0.0000
     25 C12        5.4320    6.0985    7.9293 C.ar      1 RES1    0.0000
     26 H10        5.3825    6.9097    7.4761 H         1 RES1    0.0000
     27 C13        4.6709    5.8868    9.0536 C.ar      1 RES1    0.0000
     28 H11        4.1128    6.5646    9.3615 H         1 RES1    0.0000
     29 C14        4.7163    4.6877    9.7356 C.ar      1 RES1    0.0000
     30 H12        4.1874    4.5490   10.4872 H         1 RES1    0.0000
     31 C15        5.5594    3.7039    9.2807 C.ar      1 RES1    0.0000
     32 H13        5.6025    2.8971    9.7414 H         1 RES1    0.0000
     33 C16        6.8444    6.3636    5.5387 C.3       1 RES1    0.0000
     34 H14        6.9636    7.1721    6.0620 H         1 RES1    0.0000
     35 H15        5.9346    6.3511    5.2048 H         1 RES1    0.0000
     36 N1A        5.1271    0.5666    6.2052 N.2       1 RES1    0.0000
     37 N2A        7.4215    1.6411    1.8538 N.2       1 RES1    0.0000
     38 O1A        4.6155    0.6004    7.5139 O.3       1 RES1    0.0000
     39 H1A        5.1668    0.9455    8.0150 H         1 RES1    0.0000
     40 O2A        7.5660    5.2213    3.5783 O.3       1 RES1    0.0000
     41 C1A        2.9823   -0.5275    5.7245 C.3       1 RES1    0.0000
     42 H2A        3.0887   -1.3965    6.1177 H         1 RES1    0.0000
     43 H3A        2.4449   -0.5978    4.9323 H         1 RES1    0.0000
     44 H4A        2.5507    0.0569    6.3524 H         1 RES1    0.0000
     45 C2A        4.3291    0.0285    5.3681 C.2       1 RES1    0.0000
     46 C3A        4.8505   -0.0418    3.9839 C.ar      1 RES1    0.0000
     47 C4A        5.8660    0.8192    3.5795 C.ar      1 RES1    0.0000
     48 H5A        6.1868    1.4552    4.1766 H         1 RES1    0.0000
     49 C5A        6.4088    0.7490    2.3104 C.ar      1 RES1    0.0000
     50 C6A        5.9727   -0.2473    1.4473 C.ar      1 RES1    0.0000
     51 H6A        6.3638   -0.3425    0.6086 H         1 RES1    0.0000
     52 C7A        4.9605   -1.0941    1.8345 C.ar      1 RES1    0.0000
     53 H7A        4.6580   -1.7452    1.2430 H         1 RES1    0.0000
     54 C8A        4.3898   -0.9945    3.0775 C.ar      1 RES1    0.0000
     55 H8A        3.6940   -1.5638    3.3154 H         1 RES1    0.0000
     56 C9A        7.3306    2.8580    2.2112 C.2       1 RES1    0.0000
     57 H9A        6.6262    3.1079    2.7645 H         1 RES1    0.0000
     58 C10A       8.2826    3.8792    1.7923 C.ar      1 RES1    0.0000
     59 C11A       8.3592    5.0969    2.4693 C.ar      1 RES1    0.0000
     60 C12A       9.2003    6.0985    2.0149 C.ar      1 RES1    0.0000
     61 H10A       9.2498    6.9097    2.4682 H         1 RES1    0.0000
     62 C13A       9.9614    5.8868    0.8906 C.ar      1 RES1    0.0000
     63 H11A      10.5195    6.5646    0.5827 H         1 RES1    0.0000
     64 C14A       9.9160    4.6877    0.2086 C.ar      1 RES1    0.0000
     65 H12A      10.4449    4.5490   -0.5430 H         1 RES1    0.0000
     66 C15A       9.0728    3.7039    0.6635 C.ar      1 RES1    0.0000
     67 H13A       9.0298    2.8971    0.2029 H         1 RES1    0.0000
     68 C16A       7.7879    6.3636    4.4055 C.3       1 RES1    0.0000
     69 H14A       7.6687    7.1721    3.8822 H         1 RES1    0.0000
     70 H15A       8.6977    6.3511    4.7394 H         1 RES1    0.0000
@<TRIPOS>BOND
     1    1    3 1
     2    2   14 1
     3    3    4 1
     4    5   24 1
     5    6    7 1
     6    8    6 1
     7    9    6 1
     8   10    1 2
     9   11   10 1
    10   12   11 ar
    11   13   12 1
    12   14   12 ar
    13   15   14 ar
    14   16   15 1
    15   17   15 ar
    16   18   17 1
    17   19   11 ar
    18   20   19 1
    19   21    2 2
    20   22   21 1
    21   23   21 1
    22   24   23 ar
    23   25   24 ar
    24   26   25 1
    25   27   25 ar
    26   28   27 1
    27   29   27 ar
    28   30   29 1
    29   31   23 ar
    30   32   31 1
    31   33    5 1
    32   34   33 1
    33   35   33 1
    34   36   38 1
    35   37   49 1
    36   38   39 1
    37   40   59 1
    38   41   42 1
    39   43   41 1
    40   44   41 1
    41   45   36 2
    42   46   45 1
    43   47   46 ar
    44   48   47 1
    45   49   47 ar
    46   50   49 ar
    47   51   50 1
    48   52   50 ar
    49   53   52 1
    50   54   46 ar
    51   55   54 1
    52   56   37 2
    53   57   56 1
    54   58   56 1
    55   59   58 ar
    56   60   59 ar
    57   61   60 1
    58   62   60 ar
    59   63   62 1
    60   64   62 ar
    61   65   64 1
    62   66   58 ar
    63   67   66 1
    64   68   33 1
    65   69   68 1
    66   70   68 1
    67    6   10 1
    68   17   19 ar
    69   29   31 ar
    70   40   68 1
    71   41   45 1
    72   52   54 ar
    73   64   66 ar
@<TRIPOS>SUBSTRUCTURE
     1 RES1 1

@<TRIPOS>CRYSIN
  15.2832    8.8951   19.9310  90.0000  93.7450  90.0000  15 1

