# MOL2 file generated by ConQuest
# Please check atom types

@<TRIPOS>MOLECULE
MATDEQ
    34    35     1
SMALL
NO_CHARGES
****
Generated from CSD

@<TRIPOS>ATOM
      1 O1         0.5753    3.3718    7.0130 O.2       1 RES1    0.0000
      2 O2         3.9627    6.0268    8.3681 O.2       1 RES1    0.0000
      3 O3         0.6883    5.9059   -1.8807 O.2       1 RES1    0.0000
      4 O4         1.9367    4.1617   -1.7741 O.2       1 RES1    0.0000
      5 N1         2.3254    4.6178    7.7013 N.am      1 RES1    0.0000
      6 N2         1.5066    4.7805    5.5055 N.am      1 RES1    0.0000
      7 N3         3.1963    6.2187    6.2474 N.am      1 RES1    0.0000
      8 N4         2.5825    6.3528    4.0705 N.2       1 RES1    0.0000
      9 N5         1.3995    5.1326   -1.2670 N.pl3     1 RES1    0.0000
     10 C1         1.4138    4.2040    6.7564 C.2       1 RES1    0.0000
     11 C2         2.4104    5.7745    5.1829 C.2       1 RES1    0.0000
     12 C3         3.2088    5.6476    7.4936 C.2       1 RES1    0.0000
     13 C4         2.1914    5.9657    2.7877 C.ar      1 RES1    0.0000
     14 C5         2.7092    4.8237    2.1857 C.ar      1 RES1    0.0000
     15 C6         2.4365    4.5405    0.8732 C.ar      1 RES1    0.0000
     16 C7         1.6480    5.4039    0.1492 C.ar      1 RES1    0.0000
     17 C8         1.1001    6.5257    0.7171 C.ar      1 RES1    0.0000
     18 C9         1.3872    6.8172    2.0353 C.ar      1 RES1    0.0000
     19 C10        0.4471    4.3961    4.5486 C.3       1 RES1    0.0000
     20 C11        4.1050    7.3450    6.0100 C.3       1 RES1    0.0000
     21 C12        2.2451    4.0394    9.0522 C.3       1 RES1    0.0000
     22 H1         3.2486    4.2481    2.6839 H         1 RES1    0.0000
     23 H2         2.7641    3.7883    0.4238 H         1 RES1    0.0000
     24 H3         0.4992    7.0618    0.2312 H         1 RES1    0.0000
     25 H4         1.0296    7.6594    2.4284 H         1 RES1    0.0000
     26 H5        -0.3102    4.0734    5.0211 H         1 RES1    0.0000
     27 H6         0.8437    3.7608    4.0323 H         1 RES1    0.0000
     28 H7         0.2343    5.1308    4.0195 H         1 RES1    0.0000
     29 H8         4.6312    7.1905    5.2394 H         1 RES1    0.0000
     30 H9         4.6266    7.5123    6.8832 H         1 RES1    0.0000
     31 H10        3.5968    8.1652    5.7403 H         1 RES1    0.0000
     32 H11        1.5076    3.4941    9.0791 H         1 RES1    0.0000
     33 H12        2.0225    4.7814    9.7341 H         1 RES1    0.0000
     34 H13        3.0244    3.6688    9.2846 H         1 RES1    0.0000
@<TRIPOS>BOND
     1    1   10 2
     2    2   12 2
     3    3    9 2
     4    4    9 2
     5    5   10 1
     6    6   10 1
     7    7   11 1
     8    8   11 2
     9    9   16 1
    10   11    6 1
    11   12    5 1
    12   13    8 1
    13   14   13 ar
    14   15   14 ar
    15   16   15 ar
    16   17   16 ar
    17   18   13 ar
    18   19    6 1
    19   20    7 1
    20   21    5 1
    21   22   14 1
    22   23   15 1
    23   24   17 1
    24   25   18 1
    25   26   19 1
    26   27   19 1
    27   28   19 1
    28   29   20 1
    29   30   20 1
    30   31   20 1
    31   32   21 1
    32   33   21 1
    33   34   21 1
    34    7   12 1
    35   17   18 ar
@<TRIPOS>SUBSTRUCTURE
     1 RES1 1

@<TRIPOS>CRYSIN
  11.1270    9.1950   13.0940  90.0000 101.2640  90.0000  14 1

