# MOL2 file generated by ConQuest
# Please check atom types

@<TRIPOS>MOLECULE
MAVHAT
    45    49     1
SMALL
NO_CHARGES
****
Generated from CSD

@<TRIPOS>ATOM
      1 O1         1.4368   -0.1754    1.1927 O.2       1 RES1    0.0000
      2 O2         5.7349    0.0865    3.3715 O.2       1 RES1    0.0000
      3 O3         5.0314    1.5352    4.7317 O.2       1 RES1    0.0000
      4 N1         1.1879    0.8056    3.9876 N.3       1 RES1    0.0000
      5 N2        -0.0911    1.5233    1.0320 N.am      1 RES1    0.0000
      6 H1        -0.5606    1.2149    0.3805 H         1 RES1    0.0000
      7 N3         4.8547    0.7482    3.8259 N.pl3     1 RES1    0.0000
      8 C1         1.4110    1.6867    2.8288 C.3       1 RES1    0.0000
      9 C2         2.9325    1.9790    2.8594 C.3       1 RES1    0.0000
     10 H2         3.0857    2.5687    3.6276 H         1 RES1    0.0000
     11 C3         3.4855    0.6101    3.2473 C.3       1 RES1    0.0000
     12 H3         3.5451    0.0592    2.4395 H         1 RES1    0.0000
     13 C4         2.4118   -0.0046    4.1851 C.3       1 RES1    0.0000
     14 H4         2.2291   -0.9220    3.8925 H         1 RES1    0.0000
     15 C5         2.6455   -0.0137    5.6878 C.3       1 RES1    0.0000
     16 H5         2.8589   -0.9076    5.9981 H         1 RES1    0.0000
     17 H6         3.3727    0.5820    5.9254 H         1 RES1    0.0000
     18 C6         1.3491    0.4621    6.2835 C.3       1 RES1    0.0000
     19 H7         0.7142   -0.2671    6.3768 H         1 RES1    0.0000
     20 H8         1.4899    0.8742    7.1508 H         1 RES1    0.0000
     21 C7         0.8849    1.4585    5.2782 C.3       1 RES1    0.0000
     22 H9        -0.0648    1.6293    5.3677 H         1 RES1    0.0000
     23 H10        1.3667    2.2956    5.3677 H         1 RES1    0.0000
     24 C8         0.9547    0.8787    1.5809 C.2       1 RES1    0.0000
     25 C9        -0.3238    2.7592    1.6536 C.ar      1 RES1    0.0000
     26 C10        0.5386    2.9093    2.7333 C.ar      1 RES1    0.0000
     27 C11        0.5459    4.1032    3.4297 C.ar      1 RES1    0.0000
     28 H11        1.1292    4.2276    4.1442 H         1 RES1    0.0000
     29 C12       -0.3259    5.1147    3.0522 C.ar      1 RES1    0.0000
     30 H12       -0.3271    5.9214    3.5138 H         1 RES1    0.0000
     31 C13       -1.1895    4.9280    1.9940 C.ar      1 RES1    0.0000
     32 H13       -1.7763    5.6103    1.7606 H         1 RES1    0.0000
     33 C14       -1.2029    3.7465    1.2703 C.ar      1 RES1    0.0000
     34 H14       -1.7834    3.6251    0.5539 H         1 RES1    0.0000
     35 C15        3.5452    2.6644    1.6642 C.ar      1 RES1    0.0000
     36 C16        3.9296    1.9912    0.5116 C.ar      1 RES1    0.0000
     37 H15        3.7949    1.0730    0.4476 H         1 RES1    0.0000
     38 C17        4.5126    2.6773   -0.5427 C.ar      1 RES1    0.0000
     39 H16        4.7757    2.2128   -1.3037 H         1 RES1    0.0000
     40 C18        4.7048    4.0349   -0.4722 C.ar      1 RES1    0.0000
     41 H17        5.0972    4.4879   -1.1843 H         1 RES1    0.0000
     42 C19        4.3189    4.7178    0.6477 C.ar      1 RES1    0.0000
     43 H18        4.4405    5.6383    0.6957 H         1 RES1    0.0000
     44 C20        3.7456    4.0387    1.7129 C.ar      1 RES1    0.0000
     45 H19        3.4896    4.5107    2.4731 H         1 RES1    0.0000
@<TRIPOS>BOND
     1    1   24 2
     2    2    7 2
     3    3    7 2
     4    4    8 1
     5    5    6 1
     6    7   11 1
     7    8    9 1
     8    9   10 1
     9   11    9 1
    10   12   11 1
    11   13    4 1
    12   14   13 1
    13   15   13 1
    14   16   15 1
    15   17   15 1
    16   18   15 1
    17   19   18 1
    18   20   18 1
    19   21    4 1
    20   22   21 1
    21   23   21 1
    22   24    5 1
    23   25    5 1
    24   26    8 1
    25   27   26 ar
    26   28   27 1
    27   29   27 ar
    28   30   29 1
    29   31   29 ar
    30   32   31 1
    31   33   25 ar
    32   34   33 1
    33   35    9 1
    34   36   35 ar
    35   37   36 1
    36   38   36 ar
    37   39   38 1
    38   40   38 ar
    39   41   40 1
    40   42   40 ar
    41   43   42 1
    42   44   35 ar
    43   45   44 1
    44    8   24 1
    45   11   13 1
    46   18   21 1
    47   25   26 ar
    48   31   33 ar
    49   42   44 ar
@<TRIPOS>SUBSTRUCTURE
     1 RES1 1

@<TRIPOS>CRYSIN
  23.8981    7.5886   19.1370  90.0000 102.9410  90.0000  15 1

