# MOL2 file generated by ConQuest
# Please check atom types

@<TRIPOS>MOLECULE
MAXCIN
    46    47     1
SMALL
NO_CHARGES
****
Generated from CSD

@<TRIPOS>ATOM
      1 O1         2.3642    5.5506    7.0657 O.3       1 RES1    0.0000
      2 O2         3.1534    3.6989    8.0769 O.2       1 RES1    0.0000
      3 O3         2.7587    4.1724    0.7753 O.2       1 RES1    0.0000
      4 N1         3.6147    3.0814    0.5685 N.2       1 RES1    0.0000
      5 C1         2.9102    4.3303    7.0776 C.2       1 RES1    0.0000
      6 C2         3.1895    3.8800    5.6966 C.2       1 RES1    0.0000
      7 C3         3.7643    2.7174    5.4350 C.2       1 RES1    0.0000
      8 C4         4.0718    2.1640    4.1138 C.2       1 RES1    0.0000
      9 C5         3.7430    2.8228    2.9335 C.2       1 RES1    0.0000
     10 C6         4.0445    2.2712    1.6967 C.2       1 RES1    0.0000
     11 C7         4.6509    1.0275    1.6261 C.2       1 RES1    0.0000
     12 C8         4.9715    0.3617    2.7942 C.2       1 RES1    0.0000
     13 C9         4.6946    0.9262    4.0152 C.2       1 RES1    0.0000
     14 C10        2.0161    6.0964    8.3834 C.3       1 RES1    0.0000
     15 H1         2.9046    4.4212    4.9946 H         1 RES1    0.0000
     16 H2         3.2979    3.6290    2.9461 H         1 RES1    0.0000
     17 H3         5.4313   -0.4776    2.7313 H         1 RES1    0.0000
     18 H4         1.3497    5.5221    8.7463 H         1 RES1    0.0000
     19 H5         1.6710    7.0075    8.1517 H         1 RES1    0.0000
     20 H6         3.9873    2.2077    6.1799 H         1 RES1    0.0000
     21 H7         4.8355    0.6524    0.8554 H         1 RES1    0.0000
     22 H8         4.9228    0.4777    4.8143 H         1 RES1    0.0000
     23 H9         2.8275    6.1279    8.9496 H         1 RES1    0.0000
     24 N1B        4.0355    2.7436   -0.5685 N.2       1 RES1    0.0000
     25 O3B        4.8915    1.6526   -0.7753 O.2       1 RES1    0.0000
     26 C6B        3.6057    3.5538   -1.6967 C.2       1 RES1    0.0000
     27 C5B        3.9072    3.0022   -2.9335 C.2       1 RES1    0.0000
     28 C7B        2.9993    4.7975   -1.6261 C.2       1 RES1    0.0000
     29 C4B        3.5784    3.6610   -4.1138 C.2       1 RES1    0.0000
     30 H2B        4.3523    2.1960   -2.9461 H         1 RES1    0.0000
     31 C8B        2.6787    5.4633   -2.7942 C.2       1 RES1    0.0000
     32 H7B        2.8147    5.1726   -0.8554 H         1 RES1    0.0000
     33 C3B        3.8859    3.1076   -5.4350 C.2       1 RES1    0.0000
     34 C9B        2.9556    4.8988   -4.0152 C.2       1 RES1    0.0000
     35 H3B        2.2189    6.3027   -2.7313 H         1 RES1    0.0000
     36 C2B        4.4607    1.9450   -5.6966 C.2       1 RES1    0.0000
     37 H6B        3.6629    3.6173   -6.1799 H         1 RES1    0.0000
     38 H8B        2.7274    5.3474   -4.8143 H         1 RES1    0.0000
     39 C1B        4.7400    1.4947   -7.0776 C.2       1 RES1    0.0000
     40 H1B        4.7456    1.4038   -4.9946 H         1 RES1    0.0000
     41 O1B        5.2860    0.2744   -7.0657 O.3       1 RES1    0.0000
     42 O2B        4.4968    2.1261   -8.0769 O.2       1 RES1    0.0000
     43 C10B       5.6341   -0.2714   -8.3834 C.3       1 RES1    0.0000
     44 H4B        6.3005    0.3029   -8.7463 H         1 RES1    0.0000
     45 H5B        5.9792   -1.1825   -8.1517 H         1 RES1    0.0000
     46 H9B        4.8227   -0.3029   -8.9496 H         1 RES1    0.0000
@<TRIPOS>BOND
     1    1    5 1
     2    2    5 1
     3    3    4 1
     4    4   10 1
     5    5    6 1
     6    6    7 1
     7    7    8 1
     8    8    9 1
     9    9   10 1
    10   10   11 1
    11   11   12 1
    12   12   13 1
    13   13    8 1
    14   14    1 1
    15   15    6 1
    16   16    9 1
    17   17   12 1
    18   18   14 1
    19   19   14 1
    20   20    7 1
    21   21   11 1
    22   22   13 1
    23   23   14 1
    24   24    4 1
    25   25   24 1
    26   26   24 1
    27   27   26 1
    28   28   26 1
    29   29   27 1
    30   30   27 1
    31   31   28 1
    32   32   28 1
    33   33   29 1
    34   34   29 1
    35   35   31 1
    36   36   33 1
    37   37   33 1
    38   38   34 1
    39   39   36 1
    40   40   36 1
    41   41   39 1
    42   42   39 1
    43   43   41 1
    44   44   43 1
    45   45   43 1
    46   46   43 1
    47   31   34 1
@<TRIPOS>SUBSTRUCTURE
     1 RES1 1

@<TRIPOS>CRYSIN
   3.8251    5.8250   38.3640  90.0000  90.7300  90.0000  14 1

