# MOL2 file generated by ConQuest
# Please check atom types

@<TRIPOS>MOLECULE
MAXPEH
    56    60     1
SMALL
NO_CHARGES
****
Generated from CSD

@<TRIPOS>ATOM
      1 O1         2.5198   -0.6677    1.2008 O.3       1 RES1    0.0000
      2 O2         4.8883   -3.2097    2.2191 O.2       1 RES1    0.0000
      3 O3         4.6859   -1.3820    3.0821 O.2       1 RES1    0.0000
      4 O4         0.2828   -4.7999    4.1333 O.3       1 RES1    0.0000
      5 N1         2.2692    1.3028   -0.0217 N.pl3     1 RES1    0.0000
      6 N2         4.2064   -2.3234    2.6357 N.pl3     1 RES1    0.0000
      7 C1         1.7724   -0.0602    0.0788 C.3       1 RES1    0.0000
      8 C2         2.2864   -0.7091   -1.2418 C.3       1 RES1    0.0000
      9 C3         3.5246    0.0809   -1.4767 C.ar      1 RES1    0.0000
     10 C4         3.4513    1.2959   -0.7858 C.ar      1 RES1    0.0000
     11 C5         4.4701    2.2631   -0.8413 C.ar      1 RES1    0.0000
     12 C6         5.6035    1.9465   -1.6384 C.ar      1 RES1    0.0000
     13 C7         5.6769    0.7349   -2.3148 C.ar      1 RES1    0.0000
     14 C8         4.6488   -0.2014   -2.2673 C.ar      1 RES1    0.0000
     15 C9         1.3054   -0.4044   -2.3735 C.3       1 RES1    0.0000
     16 C10        2.4947   -2.2184   -1.1373 C.3       1 RES1    0.0000
     17 C11        1.8460    2.3595    0.8212 C.ar      1 RES1    0.0000
     18 C12        1.7362    3.6468    0.3008 C.ar      1 RES1    0.0000
     19 C13        1.2639    4.6777    1.1301 C.ar      1 RES1    0.0000
     20 C14        0.8787    4.4694    2.3791 C.ar      1 RES1    0.0000
     21 C15        0.9758    3.1976    2.9068 C.ar      1 RES1    0.0000
     22 C16        1.4805    2.1495    2.1580 C.ar      1 RES1    0.0000
     23 C17        0.2836   -0.1325    0.3177 C.2       1 RES1    0.0000
     24 C18       -0.2727   -0.9930    1.1461 C.2       1 RES1    0.0000
     25 C19        0.5610   -1.9172    1.9360 C.ar      1 RES1    0.0000
     26 C20        1.9515   -1.6883    1.9046 C.ar      1 RES1    0.0000
     27 C21        2.7576   -2.5144    2.6566 C.ar      1 RES1    0.0000
     28 C22        2.2637   -3.5762    3.4111 C.ar      1 RES1    0.0000
     29 C23        0.8882   -3.7879    3.4360 C.ar      1 RES1    0.0000
     30 C24        0.0554   -2.9498    2.6912 C.ar      1 RES1    0.0000
     31 C25        1.0955   -5.6294    4.9939 C.3       1 RES1    0.0000
     32 C26        0.2221   -6.6706    5.5843 C.3       1 RES1    0.0000
     33 H1         1.8695    3.7862   -0.6113 H         1 RES1    0.0000
     34 H2         1.3595    5.5760    0.7641 H         1 RES1    0.0000
     35 H3         0.6110    5.2146    2.8875 H         1 RES1    0.0000
     36 H4         0.7319    3.0462    3.8607 H         1 RES1    0.0000
     37 H5         1.5645    1.2563    2.5738 H         1 RES1    0.0000
     38 H6         4.3098    3.1150   -0.3539 H         1 RES1    0.0000
     39 H7         6.3644    2.5471   -1.7293 H         1 RES1    0.0000
     40 H8         6.4358    0.3958   -2.8312 H         1 RES1    0.0000
     41 H9         4.5300   -1.0154   -2.8392 H         1 RES1    0.0000
     42 H10       -0.2219    0.5507   -0.0643 H         1 RES1    0.0000
     43 H11       -1.2962   -1.0670    1.2306 H         1 RES1    0.0000
     44 H12       -0.9186   -3.1150    2.7427 H         1 RES1    0.0000
     45 H13        2.8304   -4.1820    3.9491 H         1 RES1    0.0000
     46 H14        3.0554   -2.4610   -0.4182 H         1 RES1    0.0000
     47 H15        1.6176   -2.7020   -0.9571 H         1 RES1    0.0000
     48 H16        2.8122   -2.6331   -1.9384 H         1 RES1    0.0000
     49 H17        1.0836    0.5163   -2.5014 H         1 RES1    0.0000
     50 H18        1.6338   -0.7745   -3.2414 H         1 RES1    0.0000
     51 H19        0.4391   -0.8261   -2.2601 H         1 RES1    0.0000
     52 H20        1.8349   -6.0751    4.5363 H         1 RES1    0.0000
     53 H21        1.5454   -5.1114    5.7106 H         1 RES1    0.0000
     54 H22        0.6336   -7.2626    6.2334 H         1 RES1    0.0000
     55 H23       -0.5249   -6.2472    6.1208 H         1 RES1    0.0000
     56 H24       -0.2272   -7.2110    4.9465 H         1 RES1    0.0000
@<TRIPOS>BOND
     1    1    7 1
     2    2    6 2
     3    3    6 2
     4    4   29 1
     5    5    7 1
     6    6   27 1
     7    7    8 1
     8    8    9 1
     9    9   10 ar
    10   10    5 1
    11   11   10 ar
    12   12   11 ar
    13   13   12 ar
    14   14    9 ar
    15   15    8 1
    16   16    8 1
    17   17    5 1
    18   18   17 ar
    19   19   18 ar
    20   20   19 ar
    21   21   20 ar
    22   22   17 ar
    23   23    7 1
    24   24   23 2
    25   25   24 1
    26   26    1 1
    27   27   26 ar
    28   28   27 ar
    29   29   28 ar
    30   30   25 ar
    31   31    4 1
    32   32   31 1
    33   33   18 1
    34   34   19 1
    35   35   20 1
    36   36   21 1
    37   37   22 1
    38   38   11 1
    39   39   12 1
    40   40   13 1
    41   41   14 1
    42   42   23 1
    43   43   24 1
    44   44   30 1
    45   45   28 1
    46   46   16 1
    47   47   16 1
    48   48   16 1
    49   49   15 1
    50   50   15 1
    51   51   15 1
    52   52   31 1
    53   53   31 1
    54   54   32 1
    55   55   32 1
    56   56   32 1
    57   13   14 ar
    58   21   22 ar
    59   25   26 ar
    60   29   30 ar
@<TRIPOS>SUBSTRUCTURE
     1 RES1 1

@<TRIPOS>CRYSIN
   8.2600   17.2100    8.3410  90.0000 105.3600  90.0000   4 1

