# MOL2 file generated by ConQuest
# Please check atom types

@<TRIPOS>MOLECULE
MAYDOH
    44    44     1
SMALL
NO_CHARGES
****
Generated from CSD

@<TRIPOS>ATOM
      1 O1         2.6740    1.6242   -0.8468 O.2       1 RES1    0.0000
      2 O2         4.4738    1.4824    0.3247 O.2       1 RES1    0.0000
      3 O3         0.1905    1.7079    4.0419 O.2       1 RES1    0.0000
      4 O4         4.8282    7.0201   -1.3507 O.2       1 RES1    0.0000
      5 O5         3.1375    6.3695   -2.5104 O.2       1 RES1    0.0000
      6 O6         1.8527    8.6978    2.4353 O.2       1 RES1    0.0000
      7 N1         3.3717    1.9637    0.0973 N.pl3     1 RES1    0.0000
      8 N2         3.7796    6.3958   -1.4709 N.pl3     1 RES1    0.0000
      9 C1         2.8263    3.0059    1.0990 C.3       1 RES1    0.0000
     10 C2         3.9766    3.9411    1.4666 C.3       1 RES1    0.0000
     11 C3         4.4202    4.8185    0.2950 C.3       1 RES1    0.0000
     12 C4         3.2498    5.6438   -0.2428 C.3       1 RES1    0.0000
     13 C5         2.1200    4.7250   -0.6875 C.3       1 RES1    0.0000
     14 C6         1.6866    3.7827    0.4486 C.3       1 RES1    0.0000
     15 C7         2.3643    2.2128    2.3325 C.3       1 RES1    0.0000
     16 C8         1.3672    1.0893    2.0714 C.3       1 RES1    0.0000
     17 C9         0.3578    0.8863    3.1684 C.2       1 RES1    0.0000
     18 C10       -0.4698   -0.3636    3.0870 C.3       1 RES1    0.0000
     19 C11        2.8463    6.7537    0.7528 C.3       1 RES1    0.0000
     20 C12        1.8456    7.7743    0.2368 C.3       1 RES1    0.0000
     21 C13        1.4114    8.7565    1.3079 C.2       1 RES1    0.0000
     22 C14        0.4185    9.7983    0.8996 C.3       1 RES1    0.0000
     23 H1         4.7342    3.4377    1.7897 H         1 RES1    0.0000
     24 H2         3.6760    4.4687    2.2285 H         1 RES1    0.0000
     25 H3         4.7700    4.2581   -0.4209 H         1 RES1    0.0000
     26 H4         5.1322    5.4230    0.5787 H         1 RES1    0.0000
     27 H5         2.4198    4.1961   -1.4341 H         1 RES1    0.0000
     28 H6         1.3258    5.2247   -1.0111 H         1 RES1    0.0000
     29 H7         1.0076    3.1923    0.0947 H         1 RES1    0.0000
     30 H8         1.2842    4.2903    1.1889 H         1 RES1    0.0000
     31 H9         3.1505    1.8638    2.7830 H         1 RES1    0.0000
     32 H10        1.9707    2.8651    2.9355 H         1 RES1    0.0000
     33 H11        1.8196    0.2355    1.8834 H         1 RES1    0.0000
     34 H12        0.8325    1.2343    1.2626 H         1 RES1    0.0000
     35 H13        0.0553   -1.1302    2.8934 H         1 RES1    0.0000
     36 H14       -0.9092   -0.5056    3.8509 H         1 RES1    0.0000
     37 H15       -1.0710   -0.3272    2.3463 H         1 RES1    0.0000
     38 H16        3.6709    7.2025    1.0553 H         1 RES1    0.0000
     39 H17        2.4797    6.3202    1.5467 H         1 RES1    0.0000
     40 H18        2.1942    8.3302   -0.4840 H         1 RES1    0.0000
     41 H19        1.0410    7.3611   -0.1157 H         1 RES1    0.0000
     42 H20        0.8065   10.3824    0.2736 H         1 RES1    0.0000
     43 H21       -0.3378    9.3985    0.4630 H         1 RES1    0.0000
     44 H22        0.1597   10.3205    1.6414 H         1 RES1    0.0000
@<TRIPOS>BOND
     1    1    7 2
     2    2    7 2
     3    3   17 2
     4    4    8 2
     5    5    8 2
     6    6   21 2
     7    7    9 1
     8    8   12 1
     9    9   10 1
    10   10   11 1
    11   11   12 1
    12   12   13 1
    13   13   14 1
    14   14    9 1
    15   15    9 1
    16   16   15 1
    17   17   16 1
    18   18   17 1
    19   19   12 1
    20   20   19 1
    21   21   20 1
    22   22   21 1
    23   23   10 1
    24   24   10 1
    25   25   11 1
    26   26   11 1
    27   27   13 1
    28   28   13 1
    29   29   14 1
    30   30   14 1
    31   31   15 1
    32   32   15 1
    33   33   16 1
    34   34   16 1
    35   35   18 1
    36   36   18 1
    37   37   18 1
    38   38   19 1
    39   39   19 1
    40   40   20 1
    41   41   20 1
    42   42   22 1
    43   43   22 1
    44   44   22 1
@<TRIPOS>SUBSTRUCTURE
     1 RES1 1

@<TRIPOS>CRYSIN
   6.0065   24.7850   10.5230  90.0000  90.9260  90.0000 231 1

