# MOL2 file generated by ConQuest
# Please check atom types

@<TRIPOS>MOLECULE
MAYDUN
    64    68     1
SMALL
NO_CHARGES
****
Generated from CSD

@<TRIPOS>ATOM
      1 O1         9.9143    7.0842    5.4248 O.2       1 RES1    0.0000
      2 O2        12.9691    7.6136    8.1885 O.2       1 RES1    0.0000
      3 O3         9.7417    8.0310   -0.8547 O.3       1 RES1    0.0000
      4 O4        13.0122    5.4874   14.6130 O.3       1 RES1    0.0000
      5 N1         9.4888    5.8988    5.1494 N.3       1 RES1    0.0000
      6 N2        13.1791    6.3504    8.2989 N.3       1 RES1    0.0000
      7 C1         9.9714    4.6809    5.8709 C.3       1 RES1    0.0000
      8 C2        11.4318    4.4115    5.4952 C.3       1 RES1    0.0000
      9 C3        12.4166    5.3523    6.1508 C.3       1 RES1    0.0000
     10 C4        12.2527    5.3566    7.6777 C.3       1 RES1    0.0000
     11 C5        10.8233    5.7192    8.0369 C.3       1 RES1    0.0000
     12 C6         9.8314    4.7852    7.3693 C.3       1 RES1    0.0000
     13 C7         8.9948    3.6033    5.3320 C.3       1 RES1    0.0000
     14 C8         8.5038    4.1267    4.0162 C.3       1 RES1    0.0000
     15 C9         8.4002    5.6636    4.1419 C.3       1 RES1    0.0000
     16 C10        8.7142    6.3837    2.8381 C.ar      1 RES1    0.0000
     17 C11        9.9471    6.1648    2.2229 C.ar      1 RES1    0.0000
     18 C12       10.2646    6.7010    0.9984 C.ar      1 RES1    0.0000
     19 C13        9.3477    7.5187    0.3488 C.ar      1 RES1    0.0000
     20 C14        8.1110    7.7316    0.9281 C.ar      1 RES1    0.0000
     21 C15        7.8060    7.1791    2.1496 C.ar      1 RES1    0.0000
     22 C16        7.0726    6.0502    4.7781 C.3       1 RES1    0.0000
     23 C17       12.7703    4.0719    8.3393 C.3       1 RES1    0.0000
     24 C18       14.2379    4.3217    8.5578 C.3       1 RES1    0.0000
     25 C19       14.2935    5.7662    9.0907 C.3       1 RES1    0.0000
     26 C20       13.9806    5.8039   10.5757 C.ar      1 RES1    0.0000
     27 C21       12.9372    6.5351   11.1295 C.ar      1 RES1    0.0000
     28 C22       12.6362    6.4385   12.4812 C.ar      1 RES1    0.0000
     29 C23       13.3862    5.6054   13.2971 C.ar      1 RES1    0.0000
     30 C24       14.4814    4.9289   12.7701 C.ar      1 RES1    0.0000
     31 C25       14.7718    5.0316   11.4289 C.ar      1 RES1    0.0000
     32 C26       15.5946    6.5163    8.7719 C.3       1 RES1    0.0000
     33 H1        11.6609    3.4827    5.7511 H         1 RES1    0.0000
     34 H2        11.5282    4.4850    4.5132 H         1 RES1    0.0000
     35 H3        12.2774    6.2683    5.8035 H         1 RES1    0.0000
     36 H4        13.3395    5.0743    5.9218 H         1 RES1    0.0000
     37 H5        10.7098    5.6713    9.0189 H         1 RES1    0.0000
     38 H6        10.6407    6.6497    7.7525 H         1 RES1    0.0000
     39 H7         9.9369    3.8812    7.7600 H         1 RES1    0.0000
     40 H8         8.9148    5.0966    7.5789 H         1 RES1    0.0000
     41 H9         9.4622    2.7386    5.2107 H         1 RES1    0.0000
     42 H10        8.2401    3.4715    5.9577 H         1 RES1    0.0000
     43 H11        7.6182    3.7392    3.8022 H         1 RES1    0.0000
     44 H12        9.1367    3.8838    3.2932 H         1 RES1    0.0000
     45 H13       10.5898    5.6251    2.6660 H         1 RES1    0.0000
     46 H14       11.1063    6.5146    0.5988 H         1 RES1    0.0000
     47 H15        7.4654    8.2636    0.4775 H         1 RES1    0.0000
     48 H16        6.9525    7.3459    2.5328 H         1 RES1    0.0000
     49 H17        6.6870    5.2693    5.2272 H         1 RES1    0.0000
     50 H18        6.4579    6.3649    4.0836 H         1 RES1    0.0000
     51 H19        7.2199    6.7643    5.4323 H         1 RES1    0.0000
     52 H20       12.3084    3.9094    9.2015 H         1 RES1    0.0000
     53 H21       12.6302    3.2902    7.7495 H         1 RES1    0.0000
     54 H22       14.7398    4.2370    7.7106 H         1 RES1    0.0000
     55 H23       14.6107    3.6854    9.2195 H         1 RES1    0.0000
     56 H24       12.4229    7.1099   10.5757 H         1 RES1    0.0000
     57 H25       11.9174    6.9422   12.8465 H         1 RES1    0.0000
     58 H26       15.0290    4.3961   13.3360 H         1 RES1    0.0000
     59 H27       15.5237    4.5689   11.0771 H         1 RES1    0.0000
     60 H28       16.0474    6.0793    8.0204 H         1 RES1    0.0000
     61 H29       16.1784    6.5043    9.5578 H         1 RES1    0.0000
     62 H30       15.3854    7.4434    8.5324 H         1 RES1    0.0000
     63 H31        9.2022    8.6211   -1.2424 H         1 RES1    0.0000
     64 H32       13.4395    4.9691   15.0439 H         1 RES1    0.0000
@<TRIPOS>BOND
     1    1    5 1
     2    2    6 1
     3    3   19 1
     4    4   29 1
     5    5    7 1
     6    6   10 1
     7    7    8 1
     8    8    9 1
     9    9   10 1
    10   10   11 1
    11   11   12 1
    12   12    7 1
    13   13    7 1
    14   14   13 1
    15   15    5 1
    16   16   15 1
    17   17   16 ar
    18   18   17 ar
    19   19   18 ar
    20   20   19 ar
    21   21   16 ar
    22   22   15 1
    23   23   10 1
    24   24   23 1
    25   25    6 1
    26   26   25 1
    27   27   26 ar
    28   28   27 ar
    29   29   28 ar
    30   30   29 ar
    31   31   26 ar
    32   32   25 1
    33   33    8 1
    34   34    8 1
    35   35    9 1
    36   36    9 1
    37   37   11 1
    38   38   11 1
    39   39   12 1
    40   40   12 1
    41   41   13 1
    42   42   13 1
    43   43   14 1
    44   44   14 1
    45   45   17 1
    46   46   18 1
    47   47   20 1
    48   48   21 1
    49   49   22 1
    50   50   22 1
    51   51   22 1
    52   52   23 1
    53   53   23 1
    54   54   24 1
    55   55   24 1
    56   56   27 1
    57   57   28 1
    58   58   30 1
    59   59   31 1
    60   60   32 1
    61   61   32 1
    62   62   32 1
    63   63    3 1
    64   64    4 1
    65   14   15 1
    66   20   21 ar
    67   24   25 1
    68   30   31 ar
@<TRIPOS>SUBSTRUCTURE
     1 RES1 1

@<TRIPOS>CRYSIN
  18.1861    8.5527   14.9691  90.0000  90.0000  90.0000  33 1

