# MOL2 file generated by ConQuest
# Please check atom types

@<TRIPOS>MOLECULE
MAYKIJ
    37    40     1
SMALL
NO_CHARGES
****
Generated from CSD

@<TRIPOS>ATOM
      1 C1        -0.3489    6.1453    3.0592 C.3       1 RES1    0.0000
      2 H1         0.1116    6.3732    3.8815 H         1 RES1    0.0000
      3 H2        -1.2363    5.8302    3.2937 H         1 RES1    0.0000
      4 C2        -0.4778    7.3940    2.2015 C.3       1 RES1    0.0000
      5 H3        -0.9523    7.1401    1.3828 H         1 RES1    0.0000
      6 C3         0.8825    7.8966    1.7986 C.3       1 RES1    0.0000
      7 H4         0.7914    8.6220    1.1456 H         1 RES1    0.0000
      8 C4         1.8643    6.8479    1.2781 C.3       1 RES1    0.0000
      9 H5         1.7724    6.7681    0.3058 H         1 RES1    0.0000
     10 C5         1.7322    5.4437    1.9290 C.3       1 RES1    0.0000
     11 H6         2.3610    5.3711    2.6777 H         1 RES1    0.0000
     12 C6         2.0088    4.3359    0.9307 C.3       1 RES1    0.0000
     13 C7         1.6763    2.9037    1.2441 C.3       1 RES1    0.0000
     14 H7         2.1549    2.2125    0.7608 H         1 RES1    0.0000
     15 H8         1.4572    2.6819    2.1630 H         1 RES1    0.0000
     16 C8         0.7052    3.7390    0.4815 C.3       1 RES1    0.0000
     17 H9         0.5558    3.5607   -0.4699 H         1 RES1    0.0000
     18 C9        -0.3604    4.4250    1.2835 C.3       1 RES1    0.0000
     19 H10       -0.8259    5.0862    0.7474 H         1 RES1    0.0000
     20 H11       -1.0040    3.7846    1.6245 H         1 RES1    0.0000
     21 C10        2.9545    8.3578    2.6854 C.3       1 RES1    0.0000
     22 C11        3.6622    7.8873    3.9173 C.3       1 RES1    0.0000
     23 H12        3.5678    8.5443    4.6109 H         1 RES1    0.0000
     24 H13        4.5931    7.7598    3.7219 H         1 RES1    0.0000
     25 H14        3.2788    7.0572    4.2097 H         1 RES1    0.0000
     26 C12        3.4233    9.7132    2.2301 C.3       1 RES1    0.0000
     27 H15        2.8741   10.0138    1.5022 H         1 RES1    0.0000
     28 H16        4.3362    9.6542    1.9378 H         1 RES1    0.0000
     29 H17        3.3601   10.3350    2.9581 H         1 RES1    0.0000
     30 N1         0.3784    5.0677    2.3880 N.3       1 RES1    0.0000
     31 N2         3.1195    4.5056   -0.0103 N.pl3     1 RES1    0.0000
     32 O1        -1.2412    8.4074    2.8400 O.3       1 RES1    0.0000
     33 O2         1.5528    8.3725    2.9654 O.3       1 RES1    0.0000
     34 O3         3.1212    7.4388    1.5899 O.3       1 RES1    0.0000
     35 O4         4.1621    4.9501    0.4401 O.2       1 RES1    0.0000
     36 O5         2.9783    4.1348   -1.1628 O.2       1 RES1    0.0000
     37 H18       -0.7799    8.8086    3.3862 H         1 RES1    0.0000
@<TRIPOS>BOND
     1    1    2 1
     2    3    1 1
     3    4    1 1
     4    5    4 1
     5    6    4 1
     6    7    6 1
     7    8    6 1
     8    9    8 1
     9   10    8 1
    10   11   10 1
    11   12   10 1
    12   13   12 1
    13   14   13 1
    14   15   13 1
    15   16   12 1
    16   17   16 1
    17   18   16 1
    18   19   18 1
    19   20   18 1
    20   21   22 1
    21   22   23 1
    22   24   22 1
    23   25   22 1
    24   26   21 1
    25   27   26 1
    26   28   26 1
    27   29   26 1
    28   30    1 1
    29   31   12 1
    30   32    4 1
    31   33    6 1
    32   34    8 1
    33   35   31 2
    34   36   31 2
    35   37   32 1
    36   10   30 1
    37   13   16 1
    38   18   30 1
    39   21   33 1
    40   21   34 1
@<TRIPOS>SUBSTRUCTURE
     1 RES1 1

@<TRIPOS>CRYSIN
   8.2093   10.3630   14.9173  90.0000  90.0000  90.0000  19 1

