# MOL2 file generated by ConQuest
# Please check atom types

@<TRIPOS>MOLECULE
MAYKUV
    40    43     1
SMALL
NO_CHARGES
****
Generated from CSD

@<TRIPOS>ATOM
      1 C1         5.8475   11.6868   15.4957 C.3       1 RES1    0.0000
      2 C2         4.6678   11.5446   13.5331 C.3       1 RES1    0.0000
      3 H1         3.7389   11.8549   13.5723 H         1 RES1    0.0000
      4 C3         4.9366   10.7177   12.2694 C.3       1 RES1    0.0000
      5 H2         5.6443   10.0797   12.4974 H         1 RES1    0.0000
      6 C4         4.5401   12.5401   10.5985 C.3       1 RES1    0.0000
      7 H3         3.7821   12.7367   11.1707 H         1 RES1    0.0000
      8 H4         4.2205   12.1277    9.7801 H         1 RES1    0.0000
      9 C5         5.3330   13.7891   10.3014 C.3       1 RES1    0.0000
     10 H5         4.8570   14.6295   10.1378 H         1 RES1    0.0000
     11 C6         6.7159   13.6210    9.7755 C.3       1 RES1    0.0000
     12 H6         7.1123   14.3683    9.3006 H         1 RES1    0.0000
     13 H7         6.9712   12.7457    9.4464 H         1 RES1    0.0000
     14 C7         6.4818   13.7749   11.2558 C.3       1 RES1    0.0000
     15 C8         6.3732   12.5564   12.1090 C.3       1 RES1    0.0000
     16 H8         7.2567   12.1535   12.2396 H         1 RES1    0.0000
     17 C9         5.6560   12.7224   13.4626 C.3       1 RES1    0.0000
     18 H9         5.1997   13.5861   13.5303 H         1 RES1    0.0000
     19 C10        4.9819   12.5220   16.4100 C.3       1 RES1    0.0000
     20 H10        4.4881   11.9454   16.9968 H         1 RES1    0.0000
     21 H11        4.3699   13.0431   15.8839 H         1 RES1    0.0000
     22 H12        5.5373   13.1090   16.9289 H         1 RES1    0.0000
     23 C11        6.8620   10.8541   16.2310 C.3       1 RES1    0.0000
     24 H13        7.3306   10.2956   15.6062 H         1 RES1    0.0000
     25 H14        6.4152   10.3047   16.8789 H         1 RES1    0.0000
     26 H15        7.4868   11.4308   16.6771 H         1 RES1    0.0000
     27 C12        3.7899    9.9103   11.7086 C.3       1 RES1    0.0000
     28 H16        3.0951   10.5232   11.3885 H         1 RES1    0.0000
     29 C13        3.1897    8.9781   12.7425 C.3       1 RES1    0.0000
     30 H17        3.8700    8.3885   13.0748 H         1 RES1    0.0000
     31 H18        2.4882    8.4622   12.3395 H         1 RES1    0.0000
     32 H19        2.8302    9.4940   13.4684 H         1 RES1    0.0000
     33 N1         5.5177   11.6612   11.2918 N.3       1 RES1    0.0000
     34 N2         7.0233   14.9954   11.8648 N.pl3     1 RES1    0.0000
     35 O1         5.0340   10.8375   14.7067 O.3       1 RES1    0.0000
     36 O2         6.5272   12.5043   14.5461 O.3       1 RES1    0.0000
     37 O3         4.3235    9.1864   10.5969 O.3       1 RES1    0.0000
     38 O4         6.7332   16.0666   11.3465 O.2       1 RES1    0.0000
     39 O5         7.7248   14.8519   12.8430 O.2       1 RES1    0.0000
     40 H20        3.6785    8.9083   10.0379 H         1 RES1    0.0000
@<TRIPOS>BOND
     1    1   19 1
     2    2    3 1
     3    4    2 1
     4    5    4 1
     5    6    7 1
     6    8    6 1
     7    9    6 1
     8   10    9 1
     9   11    9 1
    10   12   11 1
    11   13   11 1
    12   14    9 1
    13   15   14 1
    14   16   15 1
    15   17    2 1
    16   18   17 1
    17   19   20 1
    18   21   19 1
    19   22   19 1
    20   23    1 1
    21   24   23 1
    22   25   23 1
    23   26   23 1
    24   27    4 1
    25   28   27 1
    26   29   27 1
    27   30   29 1
    28   31   29 1
    29   32   29 1
    30   33    4 1
    31   34   14 1
    32   35    1 1
    33   36    1 1
    34   37   27 1
    35   38   34 2
    36   39   34 2
    37   40   37 1
    38    2   35 1
    39    6   33 1
    40   11   14 1
    41   15   17 1
    42   15   33 1
    43   17   36 1
@<TRIPOS>SUBSTRUCTURE
     1 RES1 1

@<TRIPOS>CRYSIN
   5.5989   12.9293   19.9798  90.0000  90.0000  90.0000  19 1

