# MOL2 file generated by ConQuest
# Please check atom types

@<TRIPOS>MOLECULE
MAYROU
    35    36     1
SMALL
NO_CHARGES
****
Generated from CSD

@<TRIPOS>ATOM
      1 C1         8.0704    5.0347    3.2593 C.2       1 RES1    0.0000
      2 C2         9.0612    4.0956    2.7021 C.2       1 RES1    0.0000
      3 C3         8.7691    2.7936    2.6040 C.2       1 RES1    0.0000
      4 H1         7.8886    2.5584    2.9073 H         1 RES1    0.0000
      5 C4         9.5651    1.6641    2.1205 C.ar      1 RES1    0.0000
      6 C5        10.8974    1.7130    1.7142 C.ar      1 RES1    0.0000
      7 H2        11.3649    2.5504    1.7024 H         1 RES1    0.0000
      8 C6        11.5334    0.5560    1.3211 C.ar      1 RES1    0.0000
      9 H3        12.4505    0.6146    1.0394 H         1 RES1    0.0000
     10 N1        10.9517   -0.6514    1.3135 N.ar      1 RES1    0.0000
     11 C7         9.6745   -0.6997    1.6968 C.ar      1 RES1    0.0000
     12 H4         9.2336   -1.5526    1.7010 H         1 RES1    0.0000
     13 C8         8.9573    0.4091    2.0885 C.ar      1 RES1    0.0000
     14 H5         8.0343    0.3173    2.3396 H         1 RES1    0.0000
     15 N2         8.5118    6.2219    3.4805 N.2       1 RES1    0.0000
     16 O1         7.5535    7.0644    4.0406 O.3       1 RES1    0.0000
     17 H6         8.0582    7.7270    4.2827 H         1 RES1    0.0000
     18 C9         6.6729    4.5999    3.5522 C.3       1 RES1    0.0000
     19 H7         6.6833    3.9772    4.2952 H         1 RES1    0.0000
     20 H8         6.2941    4.1648    2.7716 H         1 RES1    0.0000
     21 H9         6.1345    5.3722    3.7859 H         1 RES1    0.0000
     22 C10       10.3689    4.7106    2.3000 C.ar      1 RES1    0.0000
     23 C11       10.5547    5.1610    0.9948 C.ar      1 RES1    0.0000
     24 C12       11.7691    5.7559    0.6783 C.ar      1 RES1    0.0000
     25 H10       11.9197    6.0686   -0.2171 H         1 RES1    0.0000
     26 C13       12.7539    5.9154    1.6154 C.ar      1 RES1    0.0000
     27 H11       13.5880    6.3221    1.3663 H         1 RES1    0.0000
     28 C14       12.5661    5.4853    2.9017 C.ar      1 RES1    0.0000
     29 H12       13.2508    5.6236    3.5598 H         1 RES1    0.0000
     30 C15       11.3751    4.8784    3.2558 C.ar      1 RES1    0.0000
     31 H13       11.2392    4.5639    4.1533 H         1 RES1    0.0000
     32 C16        9.4801    5.0108   -0.0181 C.3       1 RES1    0.0000
     33 H14        9.3973    4.0790   -0.2762 H         1 RES1    0.0000
     34 H15        9.6966    5.5458   -0.7987 H         1 RES1    0.0000
     35 H16        8.6409    5.3163    0.3611 H         1 RES1    0.0000
@<TRIPOS>BOND
     1    1    2 1
     2    2    3 2
     3    3    4 1
     4    5    3 1
     5    6    5 ar
     6    7    6 1
     7    8    6 ar
     8    9    8 1
     9   10    8 ar
    10   11   10 ar
    11   12   11 1
    12   13    5 ar
    13   14   13 1
    14   15    1 2
    15   16   15 1
    16   17   16 1
    17   18    1 1
    18   19   18 1
    19   20   18 1
    20   21   18 1
    21   22    2 1
    22   23   22 ar
    23   24   23 ar
    24   25   24 1
    25   26   24 ar
    26   27   26 1
    27   28   26 ar
    28   29   28 1
    29   30   22 ar
    30   31   30 1
    31   32   23 1
    32   33   32 1
    33   34   32 1
    34   35   32 1
    35   11   13 ar
    36   28   30 ar
@<TRIPOS>SUBSTRUCTURE
     1 RES1 1

@<TRIPOS>CRYSIN
  19.9560   19.9560    6.9569  90.0000  90.0000  90.0000  86 1

