# MOL2 file generated by ConQuest
# Please check atom types

@<TRIPOS>MOLECULE
MAYSEL
    36    37     1
SMALL
NO_CHARGES
****
Generated from CSD

@<TRIPOS>ATOM
      1 C1         4.7894    1.4355    9.1795 C.2       1 RES1    0.0000
      2 C2         3.8496    1.8272   10.2533 C.2       1 RES1    0.0000
      3 C3         3.5493    0.9651   11.2375 C.2       1 RES1    0.0000
      4 H1         4.0031    0.1201   11.2001 H         1 RES1    0.0000
      5 C4         2.6120    1.1238   12.3615 C.ar      1 RES1    0.0000
      6 C5         1.4879    1.9390   12.3625 C.ar      1 RES1    0.0000
      7 H2         1.2971    2.4954   11.6038 H         1 RES1    0.0000
      8 C6         0.6483    1.9515   13.4654 C.ar      1 RES1    0.0000
      9 H3        -0.1219    2.5242   13.4354 H         1 RES1    0.0000
     10 N1         0.8369    1.2230   14.5592 N.ar      1 RES1    0.0000
     11 C7         1.9192    0.4417   14.5531 C.ar      1 RES1    0.0000
     12 H4         2.0921   -0.0915   15.3328 H         1 RES1    0.0000
     13 C8         2.8104    0.3486   13.4979 C.ar      1 RES1    0.0000
     14 H5         3.5611   -0.2480   13.5481 H         1 RES1    0.0000
     15 N2         4.9590    2.3236    8.2655 N.2       1 RES1    0.0000
     16 O1         5.8291    1.9076    7.2479 O.3       1 RES1    0.0000
     17 H6         5.9446    2.6861    6.6650 H         1 RES1    0.0000
     18 C9         3.3413    3.2380   10.2167 C.ar      1 RES1    0.0000
     19 C10        2.3291    3.6289    9.3597 C.ar      1 RES1    0.0000
     20 H7         1.9471    2.9951    8.7482 H         1 RES1    0.0000
     21 C11        1.8783    4.9392    9.3834 C.ar      1 RES1    0.0000
     22 H8         1.1556    5.2027    8.8082 H         1 RES1    0.0000
     23 C12        2.4474    5.8607   10.2340 C.ar      1 RES1    0.0000
     24 H9         2.1284    6.7662   10.2448 H         1 RES1    0.0000
     25 C13        3.4839    5.4791   11.0706 C.ar      1 RES1    0.0000
     26 C14        3.9293    4.1684   11.0754 C.ar      1 RES1    0.0000
     27 H10        4.6362    3.8978   11.6653 H         1 RES1    0.0000
     28 O2         4.0069    6.4633   11.8745 O.3       1 RES1    0.0000
     29 C15        5.1821    6.1617   12.6176 C.3       1 RES1    0.0000
     30 H11        4.9790    5.4800   13.2921 H         1 RES1    0.0000
     31 H12        5.5074    6.9730   13.0609 H         1 RES1    0.0000
     32 H13        5.8707    5.8231   12.0076 H         1 RES1    0.0000
     33 C16        5.4673    0.0987    9.1679 C.3       1 RES1    0.0000
     34 H14        4.8019   -0.6009    8.9969 H         1 RES1    0.0000
     35 H15        5.8991   -0.0656   10.0327 H         1 RES1    0.0000
     36 H16        6.1429    0.0862    8.4586 H         1 RES1    0.0000
@<TRIPOS>BOND
     1    1    2 1
     2    2    3 2
     3    3    4 1
     4    5    3 1
     5    6    5 ar
     6    7    6 1
     7    8    6 ar
     8    9    8 1
     9   10    8 ar
    10   11   10 ar
    11   12   11 1
    12   13    5 ar
    13   14   13 1
    14   15    1 2
    15   16   15 1
    16   17   16 1
    17   18    2 1
    18   19   18 ar
    19   20   19 1
    20   21   19 ar
    21   22   21 1
    22   23   21 ar
    23   24   23 1
    24   25   23 ar
    25   26   18 ar
    26   27   26 1
    27   28   25 1
    28   29   28 1
    29   30   29 1
    30   31   29 1
    31   32   29 1
    32   33    1 1
    33   34   33 1
    34   35   33 1
    35   36   33 1
    36   11   13 ar
    37   25   26 ar
@<TRIPOS>SUBSTRUCTURE
     1 RES1 1

@<TRIPOS>CRYSIN
   5.6345    8.6257   14.7361  96.6440  91.4870  93.3640   2 1

