# MOL2 file generated by ConQuest
# Please check atom types

@<TRIPOS>MOLECULE
MAZMIL
    32    33     1
SMALL
NO_CHARGES
****
Generated from CSD

@<TRIPOS>ATOM
      1 N1         1.3712    2.5798    1.1037 N.3       1 RES1    0.0000
      2 C1         1.5239    2.5026   -0.2666 C.2       1 RES1    0.0000
      3 N2         1.7090    3.6860   -0.7893 N.2       1 RES1    0.0000
      4 C2         1.6679    4.5472    0.2687 C.2       1 RES1    0.0000
      5 C3         1.4802    3.9028    1.4801 C.2       1 RES1    0.0000
      6 C4         1.2502    1.4572    2.0252 C.3       1 RES1    0.0000
      7 H1         0.3214    1.2576    2.1651 H         1 RES1    0.0000
      8 H2         1.6585    1.6859    2.8629 H         1 RES1    0.0000
      9 H3         1.6898    0.6891    1.6528 H         1 RES1    0.0000
     10 C5         1.5261    1.2178   -1.0148 C.3       1 RES1    0.0000
     11 H4         2.3009    0.7070   -0.7716 H         1 RES1    0.0000
     12 H5         1.5445    1.3970   -1.9578 H         1 RES1    0.0000
     13 H6         0.7336    0.7207   -0.7995 H         1 RES1    0.0000
     14 N3         1.7820    5.9422    0.0281 N.pl3     1 RES1    0.0000
     15 O1         2.0354    6.3336   -1.1175 O.2       1 RES1    0.0000
     16 O2         1.6063    6.7188    0.9751 O.2       1 RES1    0.0000
     17 N4         1.4835    4.2350    2.8167 N.3       1 RES1    0.0000
     18 C6         2.4866    5.1834    3.2928 C.3       1 RES1    0.0000
     19 H7         2.1704    6.0922    3.1660 H         1 RES1    0.0000
     20 H8         3.3107    5.0740    2.7931 H         1 RES1    0.0000
     21 C7         1.4483    5.0441    5.5646 C.3       1 RES1    0.0000
     22 H9         1.1272    5.9580    5.5245 H         1 RES1    0.0000
     23 H10        1.6152    4.8227    6.4934 H         1 RES1    0.0000
     24 C8         2.7351    4.9201    4.7727 C.3       1 RES1    0.0000
     25 H11        3.1005    4.0284    4.8865 H         1 RES1    0.0000
     26 H12        3.3851    5.5570    5.1098 H         1 RES1    0.0000
     27 C9         0.3919    4.1037    4.9948 C.3       1 RES1    0.0000
     28 H13        0.6667    3.1846    5.1357 H         1 RES1    0.0000
     29 H14       -0.4482    4.2413    5.4587 H         1 RES1    0.0000
     30 C10        0.1965    4.3516    3.5045 C.3       1 RES1    0.0000
     31 H15       -0.4288    3.7036    3.1440 H         1 RES1    0.0000
     32 H16       -0.1716    5.2382    3.3653 H         1 RES1    0.0000
@<TRIPOS>BOND
     1    1    2 1
     2    2    3 2
     3    3    4 1
     4    4    5 2
     5    5    1 1
     6    6    1 1
     7    7    6 1
     8    8    6 1
     9    9    6 1
    10   10    2 1
    11   11   10 1
    12   12   10 1
    13   13   10 1
    14   14    4 1
    15   15   14 2
    16   16   14 2
    17   17    5 1
    18   18   17 1
    19   19   18 1
    20   20   18 1
    21   21   22 1
    22   23   21 1
    23   24   18 1
    24   25   24 1
    25   26   24 1
    26   27   21 1
    27   28   27 1
    28   29   27 1
    29   30   17 1
    30   31   30 1
    31   32   30 1
    32   21   24 1
    33   27   30 1
@<TRIPOS>SUBSTRUCTURE
     1 RES1 1

@<TRIPOS>CRYSIN
   6.5663    8.5493   19.9604  90.0000  92.7860  90.0000  14 1

