# MOL2 file generated by ConQuest
# Please check atom types

@<TRIPOS>MOLECULE
MAZWEQ01
    50    51     1
SMALL
NO_CHARGES
****
Generated from CSD

@<TRIPOS>ATOM
      1 O1         3.3352    0.7087   22.6069 O.2       1 RES1    0.0000
      2 C1         1.2254    5.3407   18.7292 C.2       1 RES1    0.0000
      3 H1         0.4650    5.7270   19.1047 H         1 RES1    0.0000
      4 N1         1.6307    5.7519   17.6086 N.2       1 RES1    0.0000
      5 N2         3.9128    1.2128   21.6451 N.pl3     1 RES1    0.0000
      6 O2         5.0168    0.8823   21.2604 O.2       1 RES1    0.0000
      7 C2         1.9342    4.2543   19.4772 C.ar      1 RES1    0.0000
      8 C3         3.1823    2.2845   20.9215 C.ar      1 RES1    0.0000
      9 C4         3.8155    2.8125   19.7856 C.ar      1 RES1    0.0000
     10 H2         4.6550    2.5114   19.5230 H         1 RES1    0.0000
     11 C5         3.1466    3.8075   19.0620 C.ar      1 RES1    0.0000
     12 H3         3.5339    4.1588   18.2956 H         1 RES1    0.0000
     13 C6         1.3465    3.7263   20.6222 C.ar      1 RES1    0.0000
     14 H4         0.5241    4.0512   20.9093 H         1 RES1    0.0000
     15 C7         1.9826    2.7160   21.3398 C.ar      1 RES1    0.0000
     16 H5         1.5837    2.3459   22.0970 H         1 RES1    0.0000
     17 C8         0.2479    6.3418   15.6789 C.3       1 RES1    0.0000
     18 H6         0.9384    5.9321   15.1354 H         1 RES1    0.0000
     19 H7        -0.1008    7.1064   15.1965 H         1 RES1    0.0000
     20 C9         0.8471    6.8079   16.9735 C.3       1 RES1    0.0000
     21 H8         1.4161    7.5739   16.8086 H         1 RES1    0.0000
     22 H9         0.1379    7.0840   17.5750 H         1 RES1    0.0000
     23 C10       -0.8830    5.3305   15.9109 C.3       1 RES1    0.0000
     24 H10       -0.5289    4.5721   16.4025 H         1 RES1    0.0000
     25 H11       -1.5670    5.7438   16.4575 H         1 RES1    0.0000
     26 O1B       -5.7409    9.4447    7.9265 O.2       1 RES1    0.0000
     27 C1B       -3.6311    4.8127   11.8042 C.2       1 RES1    0.0000
     28 H1B       -2.8707    4.4264   11.4286 H         1 RES1    0.0000
     29 N1B       -4.0364    4.4015   12.9248 N.2       1 RES1    0.0000
     30 N2B       -6.3185    8.9406    8.8883 N.pl3     1 RES1    0.0000
     31 O2B       -7.4225    9.2711    9.2730 O.2       1 RES1    0.0000
     32 C2B       -4.3399    5.8991   11.0561 C.ar      1 RES1    0.0000
     33 C3B       -5.5880    7.8689    9.6119 C.ar      1 RES1    0.0000
     34 C4B       -6.2212    7.3409   10.7477 C.ar      1 RES1    0.0000
     35 H2B       -7.0607    7.6420   11.0103 H         1 RES1    0.0000
     36 C5B       -5.5523    6.3459   11.4714 C.ar      1 RES1    0.0000
     37 H3B       -5.9396    5.9946   12.2378 H         1 RES1    0.0000
     38 C6B       -3.7522    6.4271    9.9111 C.ar      1 RES1    0.0000
     39 H4B       -2.9298    6.1022    9.6241 H         1 RES1    0.0000
     40 C7B       -4.3883    7.4374    9.1936 C.ar      1 RES1    0.0000
     41 H5B       -3.9894    7.8075    8.4364 H         1 RES1    0.0000
     42 C8B       -2.6536    3.8116   14.8545 C.3       1 RES1    0.0000
     43 H6B       -3.3441    4.2213   15.3980 H         1 RES1    0.0000
     44 H7B       -2.3049    3.0470   15.3369 H         1 RES1    0.0000
     45 C9B       -3.2528    3.3455   13.5599 C.3       1 RES1    0.0000
     46 H8B       -3.8218    2.5795   13.7248 H         1 RES1    0.0000
     47 H9B       -2.5436    3.0694   12.9584 H         1 RES1    0.0000
     48 C10B      -1.5227    4.8229   14.6224 C.3       1 RES1    0.0000
     49 H10B      -1.8768    5.5813   14.1308 H         1 RES1    0.0000
     50 H11B      -0.8387    4.4096   14.0759 H         1 RES1    0.0000
@<TRIPOS>BOND
     1    1    5 2
     2    2    3 1
     3    4    2 2
     4    5    6 2
     5    7    2 1
     6    8    5 1
     7    9    8 ar
     8   10    9 1
     9   11    7 ar
    10   12   11 1
    11   13    7 ar
    12   14   13 1
    13   15    8 ar
    14   16   15 1
    15   17   18 1
    16   19   17 1
    17   20    4 1
    18   21   20 1
    19   22   20 1
    20   23   17 1
    21   24   23 1
    22   25   23 1
    23   26   30 2
    24   27   28 1
    25   29   27 2
    26   30   31 2
    27   32   27 1
    28   33   30 1
    29   34   33 ar
    30   35   34 1
    31   36   32 ar
    32   37   36 1
    33   38   32 ar
    34   39   38 1
    35   40   33 ar
    36   41   40 1
    37   42   43 1
    38   44   42 1
    39   45   29 1
    40   46   45 1
    41   47   45 1
    42   48   23 1
    43   49   48 1
    44   50   48 1
    45    9   11 ar
    46   13   15 ar
    47   17   20 1
    48   34   36 ar
    49   38   40 ar
    50   42   45 1
    51   42   48 1
@<TRIPOS>SUBSTRUCTURE
     1 RES1 1

@<TRIPOS>CRYSIN
   6.1569    5.0767   30.6280  90.0000  94.5050  90.0000  14 1

