# MOL2 file generated by ConQuest
# Please check atom types

@<TRIPOS>MOLECULE
MAZWEQ
    50    51     1
SMALL
NO_CHARGES
****
Generated from CSD

@<TRIPOS>ATOM
      1 C1         5.1189    3.3340   19.1721 C.ar      1 RES1    0.0000
      2 C2         4.5287    3.9112   20.2950 C.ar      1 RES1    0.0000
      3 C3         5.1748    4.9229   20.9933 C.ar      1 RES1    0.0000
      4 C4         6.4218    5.3259   20.5574 C.ar      1 RES1    0.0000
      5 C5         7.0346    4.7676   19.4468 C.ar      1 RES1    0.0000
      6 C6         6.3793    3.7744   18.7560 C.ar      1 RES1    0.0000
      7 N1         7.1201    6.3958   21.2846 N.pl3     1 RES1    0.0000
      8 O1         6.5492    6.9247   22.2324 O.2       1 RES1    0.0000
      9 O2         8.2474    6.7113   20.9024 O.2       1 RES1    0.0000
     10 C7         4.4152    2.2606   18.4428 C.2       1 RES1    0.0000
     11 N2         4.8359    1.8038   17.3395 N.2       1 RES1    0.0000
     12 C8         4.0663    0.7499   16.6973 C.3       1 RES1    0.0000
     13 C9         3.4198    1.2525   15.4087 C.3       1 RES1    0.0000
     14 C10        2.2842    2.2387   15.6567 C.3       1 RES1    0.0000
     15 H1         3.6760    3.6102   20.5841 H         1 RES1    0.0000
     16 H2         4.7694    5.3269   21.7520 H         1 RES1    0.0000
     17 H3         7.8922    5.0657   19.1670 H         1 RES1    0.0000
     18 H4         6.7859    3.3852   17.9901 H         1 RES1    0.0000
     19 H5         3.6186    1.9004   18.8157 H         1 RES1    0.0000
     20 H6         3.3625    0.4314   17.3176 H         1 RES1    0.0000
     21 H7         4.6613   -0.0139   16.4919 H         1 RES1    0.0000
     22 H8         4.1107    1.6909   14.8526 H         1 RES1    0.0000
     23 H9         3.0689    0.4782   14.9007 H         1 RES1    0.0000
     24 H10        2.6353    3.0145   16.1617 H         1 RES1    0.0000
     25 H11        1.5949    1.8013   16.2157 H         1 RES1    0.0000
     26 C1B       -1.2019    1.6421   10.8514 C.ar      1 RES1    0.0000
     27 C2B       -0.6117    1.0649    9.7285 C.ar      1 RES1    0.0000
     28 C3B       -1.2578    0.0532    9.0302 C.ar      1 RES1    0.0000
     29 C4B       -2.5048   -0.3498    9.4661 C.ar      1 RES1    0.0000
     30 C5B       -3.1176    0.2085   10.5767 C.ar      1 RES1    0.0000
     31 C6B       -2.4623    1.2017   11.2675 C.ar      1 RES1    0.0000
     32 N1B       -3.2031   -1.4197    8.7389 N.pl3     1 RES1    0.0000
     33 O1B       -2.6322   -1.9486    7.7911 O.2       1 RES1    0.0000
     34 O2B       -4.3304   -1.7352    9.1211 O.2       1 RES1    0.0000
     35 C7B       -0.4982    2.7155   11.5807 C.2       1 RES1    0.0000
     36 N2B       -0.9189    3.1723   12.6840 N.2       1 RES1    0.0000
     37 C8B       -0.1494    4.2262   13.3262 C.3       1 RES1    0.0000
     38 C9B        0.4972    3.7236   14.6148 C.3       1 RES1    0.0000
     39 C10B       1.6328    2.7374   14.3669 C.3       1 RES1    0.0000
     40 H1B        0.2410    1.3659    9.4394 H         1 RES1    0.0000
     41 H2B       -0.8524   -0.3508    8.2715 H         1 RES1    0.0000
     42 H3B       -3.9752   -0.0896   10.8565 H         1 RES1    0.0000
     43 H4B       -2.8689    1.5909   12.0334 H         1 RES1    0.0000
     44 H5B        0.2983    3.0757   11.2078 H         1 RES1    0.0000
     45 H6B        0.5545    4.5447   12.7060 H         1 RES1    0.0000
     46 H7B       -0.7444    4.9900   13.5316 H         1 RES1    0.0000
     47 H8B       -0.1937    3.2852   15.1709 H         1 RES1    0.0000
     48 H9B        0.8481    4.4979   15.1228 H         1 RES1    0.0000
     49 H10B       1.2816    1.9616   13.8619 H         1 RES1    0.0000
     50 H11B       2.3221    3.1748   13.8078 H         1 RES1    0.0000
@<TRIPOS>BOND
     1    1    2 ar
     2    2    3 ar
     3    3    4 ar
     4    4    5 ar
     5    5    6 ar
     6    6    1 ar
     7    7    4 1
     8    8    7 2
     9    9    7 2
    10   10    1 1
    11   11   10 2
    12   12   11 1
    13   13   12 1
    14   14   13 1
    15   15    2 1
    16   16    3 1
    17   17    5 1
    18   18    6 1
    19   19   10 1
    20   20   12 1
    21   21   12 1
    22   22   13 1
    23   23   13 1
    24   24   14 1
    25   25   14 1
    26   26   27 ar
    27   27   28 ar
    28   28   29 ar
    29   29   30 ar
    30   30   31 ar
    31   31   26 ar
    32   32   29 1
    33   33   32 2
    34   34   32 2
    35   35   26 1
    36   36   35 2
    37   37   36 1
    38   38   37 1
    39   39   14 1
    40   40   27 1
    41   41   28 1
    42   42   30 1
    43   43   31 1
    44   44   35 1
    45   45   37 1
    46   46   37 1
    47   47   38 1
    48   48   38 1
    49   49   39 1
    50   50   39 1
    51   38   39 1
@<TRIPOS>SUBSTRUCTURE
     1 RES1 1

@<TRIPOS>CRYSIN
   6.1908    4.9761   30.1095  90.0000  94.3310  90.0000  14 1

