# MOL2 file generated by ConQuest
# Please check atom types

@<TRIPOS>MOLECULE
MAZXAN
    30    31     1
SMALL
NO_CHARGES
****
Generated from CSD

@<TRIPOS>ATOM
      1 O1         1.4205    4.0780   10.8236 O.3       1 RES1    0.0000
      2 O2         1.6232    1.5551   11.4546 O.2       1 RES1    0.0000
      3 O3         0.0553    1.7228   12.9565 O.2       1 RES1    0.0000
      4 N1         3.9344    5.3093    8.0249 N.3       1 RES1    0.0000
      5 N2         3.9549    7.0733   12.4754 N.1       1 RES1    0.0000
      6 N3         0.7616    2.1875   12.0637 N.pl3     1 RES1    0.0000
      7 N4        -0.7289    6.2519    7.4447 N.1       1 RES1    0.0000
      8 C1         4.2902    5.7429    9.2850 C.2       1 RES1    0.0000
      9 C2         3.3451    6.2135   10.1249 C.2       1 RES1    0.0000
     10 C3         1.8604    6.2588    9.7898 C.3       1 RES1    0.0000
     11 C4         1.6684    5.8873    8.3249 C.2       1 RES1    0.0000
     12 C5         2.6567    5.4232    7.5327 C.2       1 RES1    0.0000
     13 C6         5.7487    5.6421    9.6116 C.3       1 RES1    0.0000
     14 C7         3.7105    6.6793   11.4241 C.1       1 RES1    0.0000
     15 C8         1.0522    5.4010   10.7140 C.2       1 RES1    0.0000
     16 C9         0.5571    3.5511   11.7272 C.2       1 RES1    0.0000
     17 C10       -0.3327    4.4472   12.1824 C.2       1 RES1    0.0000
     18 C11        0.3474    6.0647    7.8089 C.1       1 RES1    0.0000
     19 C12       -0.0098    5.6573   11.5107 C.2       1 RES1    0.0000
     20 C13        2.4887    5.0144    6.0988 C.3       1 RES1    0.0000
     21 H1         4.5516    4.9440    7.5148 H         1 RES1    0.0000
     22 H2         1.5519    7.2032    9.9064 H         1 RES1    0.0000
     23 H3         5.9062    5.9891   10.5148 H         1 RES1    0.0000
     24 H4         6.2655    6.1671    8.9648 H         1 RES1    0.0000
     25 H5         6.0289    4.7039    9.5697 H         1 RES1    0.0000
     26 H6        -1.0263    4.3040   12.8152 H         1 RES1    0.0000
     27 H7        -0.4563    6.4905   11.6036 H         1 RES1    0.0000
     28 H8         1.5353    5.0084    5.8702 H         1 RES1    0.0000
     29 H9         2.8617    4.1177    5.9684 H         1 RES1    0.0000
     30 H10        2.9596    5.6506    5.5213 H         1 RES1    0.0000
@<TRIPOS>BOND
     1    1   15 1
     2    2    6 2
     3    3    6 2
     4    4    8 1
     5    5   14 3
     6    6   16 1
     7    7   18 3
     8    8    9 2
     9    9   10 1
    10   10   11 1
    11   11   12 2
    12   12    4 1
    13   13    8 1
    14   14    9 1
    15   15   10 1
    16   16    1 1
    17   17   16 2
    18   18   11 1
    19   19   15 2
    20   20   12 1
    21   21    4 1
    22   22   10 1
    23   23   13 1
    24   24   13 1
    25   25   13 1
    26   26   17 1
    27   27   19 1
    28   28   20 1
    29   29   20 1
    30   30   20 1
    31   17   19 1
@<TRIPOS>SUBSTRUCTURE
     1 RES1 1

@<TRIPOS>CRYSIN
   9.5651    7.5735   17.6385  90.0000  96.2570  90.0000  14 1

