# MOL2 file generated by ConQuest
# Please check atom types

@<TRIPOS>MOLECULE
MAZXEQ
    35    38     1
SMALL
NO_CHARGES
****
Generated from CSD

@<TRIPOS>ATOM
      1 O1         2.8003    3.0187    3.1403 O.2       1 RES1    0.0000
      2 O2         3.0724    0.0076   -0.7167 O.2       1 RES1    0.0000
      3 O3         1.4233   -0.1382   -2.0955 O.2       1 RES1    0.0000
      4 N1         1.9528    0.3254   -1.1030 N.pl3     1 RES1    0.0000
      5 C1        -0.2143    3.1680    1.1476 C.ar      1 RES1    0.0000
      6 C2        -0.7202    2.6734   -0.0544 C.ar      1 RES1    0.0000
      7 H1        -1.5478    2.9690   -0.3579 H         1 RES1    0.0000
      8 C3        -0.0174    1.7575   -0.7981 C.ar      1 RES1    0.0000
      9 H2        -0.3591    1.4351   -1.6010 H         1 RES1    0.0000
     10 C4         1.2115    1.3238   -0.3282 C.ar      1 RES1    0.0000
     11 C5         1.7593    1.8024    0.8447 C.ar      1 RES1    0.0000
     12 H3         2.5938    1.5087    1.1321 H         1 RES1    0.0000
     13 C6         1.0441    2.7281    1.5860 C.ar      1 RES1    0.0000
     14 C7         1.6561    3.2629    2.8424 C.2       1 RES1    0.0000
     15 C8         0.7442    4.1127    3.7248 C.3       1 RES1    0.0000
     16 H4         1.2947    4.6745    4.3090 H         1 RES1    0.0000
     17 C9        -0.1423    5.0059    2.8590 C.3       1 RES1    0.0000
     18 H5        -0.6914    5.5730    3.4216 H         1 RES1    0.0000
     19 C8F       -1.0289    4.1127    1.9932 C.3       1 RES1    0.0000
     20 C7F       -1.9408    3.2629    2.8755 C.2       1 RES1    0.0000
     21 O1F       -3.0850    3.0187    2.5776 O.2       1 RES1    0.0000
     22 C6F       -1.3287    2.7281    4.1319 C.ar      1 RES1    0.0000
     23 C1F       -0.0704    3.1680    4.5703 C.ar      1 RES1    0.0000
     24 C2F        0.4356    2.6734    5.7724 C.ar      1 RES1    0.0000
     25 H1F        1.2632    2.9690    6.0759 H         1 RES1    0.0000
     26 C3F       -0.2672    1.7575    6.5160 C.ar      1 RES1    0.0000
     27 H2F        0.0744    1.4351    7.3189 H         1 RES1    0.0000
     28 C4F       -1.4961    1.3238    6.0461 C.ar      1 RES1    0.0000
     29 N1F       -2.2374    0.3254    6.8209 N.pl3     1 RES1    0.0000
     30 O2F       -3.3571    0.0076    6.4346 O.2       1 RES1    0.0000
     31 O3F       -1.7080   -0.1382    7.8134 O.2       1 RES1    0.0000
     32 C5F       -2.0440    1.8024    4.8733 C.ar      1 RES1    0.0000
     33 H3F       -2.8785    1.5087    4.5858 H         1 RES1    0.0000
     34 H4F       -1.5793    4.6745    1.4089 H         1 RES1    0.0000
     35 H5F        0.4068    5.5730    2.2963 H         1 RES1    0.0000
@<TRIPOS>BOND
     1    1   14 2
     2    2    4 2
     3    3    4 2
     4    4   10 1
     5    5    6 ar
     6    6    7 1
     7    8    6 ar
     8    9    8 1
     9   10    8 ar
    10   11   10 ar
    11   12   11 1
    12   13    5 ar
    13   14   13 1
    14   15   14 1
    15   16   15 1
    16   17   15 1
    17   18   17 1
    18   19    5 1
    19   20   19 1
    20   21   20 2
    21   22   20 1
    22   23   15 1
    23   24   23 ar
    24   25   24 1
    25   26   24 ar
    26   27   26 1
    27   28   26 ar
    28   29   28 1
    29   30   29 2
    30   31   29 2
    31   32   22 ar
    32   33   32 1
    33   34   19 1
    34   35   17 1
    35   11   13 ar
    36   17   19 1
    37   22   23 ar
    38   28   32 ar
@<TRIPOS>SUBSTRUCTURE
     1 RES1 1

@<TRIPOS>CRYSIN
  11.7630   10.5210   11.4500  90.0000  92.8500  90.0000  15 1

