# MOL2 file generated by ConQuest
# Please check atom types

@<TRIPOS>MOLECULE
MBZPNA13
    33    31     2
SMALL
NO_CHARGES
****
Generated from CSD

@<TRIPOS>ATOM
      1 N1         0.4926    1.7067    9.3743 N.2       1 RES1    0.0000
      2 N2        -5.0488    2.4277    8.7969 N.pl3     1 RES1    0.0000
      3 O1        -5.6356    2.9176    9.7666 O.2       1 RES1    0.0000
      4 O2        -5.6274    2.0310    7.7851 O.2       1 RES1    0.0000
      5 C1         2.7819    1.4984    8.7339 C.ar      1 RES1    0.0000
      6 C2         3.7824    1.7955    7.7991 C.ar      1 RES1    0.0000
      7 C3         5.1220    1.5655    8.1105 C.ar      1 RES1    0.0000
      8 C4         5.4996    1.0470    9.3503 C.ar      1 RES1    0.0000
      9 C5         4.4872    0.7230   10.2702 C.ar      1 RES1    0.0000
     10 C6         3.1522    0.9384    9.9670 C.ar      1 RES1    0.0000
     11 C7         1.3731    1.7969    8.4487 C.2       1 RES1    0.0000
     12 C8        -0.8658    1.9514    9.1098 C.ar      1 RES1    0.0000
     13 C9        -1.5588    2.7606   10.0262 C.ar      1 RES1    0.0000
     14 C10       -2.9253    2.9424    9.9052 C.ar      1 RES1    0.0000
     15 C11       -3.5924    2.3022    8.8680 C.ar      1 RES1    0.0000
     16 C12       -2.9339    1.5235    7.9221 C.ar      1 RES1    0.0000
     17 C13       -1.5585    1.3499    8.0509 C.ar      1 RES1    0.0000
     18 C14        6.9502    0.8653    9.7163 C.3       1 RES1    0.0000
     19 H1         3.5608    2.1747    6.9260 H         1 RES1    0.0000
     20 H2         5.8243    1.7625    7.4407 H         1 RES1    0.0000
     21 H3         4.7211    0.3340   11.1347 H         1 RES1    0.0000
     22 H4         2.4548    0.6865   10.6009 H         1 RES1    0.0000
     23 H5         1.1377    2.1108    7.5401 H         1 RES1    0.0000
     24 H6        -1.0876    0.7747    7.4154 H         1 RES1    0.0000
     25 H7        -3.4346    1.0945    7.2198 H         1 RES1    0.0000
     26 H8        -3.3942    3.5180   10.5259 H         1 RES1    0.0000
     27 H9        -1.0615    3.1839   10.7151 H         1 RES1    0.0000
     28 H10        7.5409    1.0518    8.9521 H         1 RES1    0.0000
     29 H11        7.1857    1.4640   10.4530 H         1 RES1    0.0000
     30 H12        7.1074   -0.0284   10.0091 H         1 RES1    0.0000
     31 H13        7.3351    1.7270   10.0619 Du        2 SUP2    0.0000
     32 H14        7.0961    0.1066   10.4952 Du        2 SUP2    0.0000
     33 H15        7.4831    0.5899    8.8993 Du        2 SUP2    0.0000
@<TRIPOS>BOND
     1    1   11 2
     2    2    3 2
     3    4    2 2
     4    5    6 ar
     5    6    7 ar
     6    7    8 ar
     7    8    9 ar
     8    9   10 ar
     9   10    5 ar
    10   11    5 1
    11   12    1 1
    12   13   12 ar
    13   14   13 ar
    14   15    2 1
    15   16   15 ar
    16   17   12 ar
    17   18    8 1
    18   19    6 1
    19   20    7 1
    20   21    9 1
    21   22   10 1
    22   23   11 1
    23   24   17 1
    24   25   16 1
    25   26   14 1
    26   27   13 1
    27   28   18 1
    28   29   18 1
    29   30   18 1
    30   14   15 ar
    31   16   17 ar
@<TRIPOS>SUBSTRUCTURE
     1 RES1 1
     2 SUP2 31

@<TRIPOS>CRYSIN
  15.4449    7.1070   12.6557  90.0000 123.3700  90.0000  14 1

