# MOL2 file generated by ConQuest
# Please check atom types

@<TRIPOS>MOLECULE
MBZPNA10
    27    28     1
SMALL
NO_CHARGES
****
Generated from CSD

@<TRIPOS>ATOM
      1 C1        -7.8325    1.2926    3.6358 C.ar      1 RES1    0.0000
      2 C2         0.8373    2.0106    2.8714 C.ar      1 RES1    0.0000
      3 C3         1.2136    2.5327    4.0919 C.ar      1 RES1    0.0000
      4 C4         0.2223    2.8560    5.0008 C.ar      1 RES1    0.0000
      5 C5        -1.1085    2.6434    4.7085 C.ar      1 RES1    0.0000
      6 C6         2.6716    2.7300    4.4395 C.3       1 RES1    0.0000
      7 C7        -7.1876    2.0695    2.7035 C.ar      1 RES1    0.0000
      8 C8        -5.8209    2.2531    2.8279 C.ar      1 RES1    0.0000
      9 C9        -5.1263    1.6421    3.8580 C.ar      1 RES1    0.0000
     10 C10       -5.8061    0.8462    4.7521 C.ar      1 RES1    0.0000
     11 C11       -7.1660    0.6394    4.6500 C.ar      1 RES1    0.0000
     12 C12       -2.9003    1.7768    3.2138 C.2       1 RES1    0.0000
     13 C13       -1.4883    2.0936    3.4934 C.ar      1 RES1    0.0000
     14 C14       -0.5041    1.7768    2.5695 C.ar      1 RES1    0.0000
     15 H1         1.5360    1.8008    2.1932 H         1 RES1    0.0000
     16 H2         0.4769    3.2449    5.8832 H         1 RES1    0.0000
     17 H3        -1.8092    2.8910    5.3782 H         1 RES1    0.0000
     18 H4        -7.6983    2.4977    1.9572 H         1 RES1    0.0000
     19 H5        -5.3323    2.8291    2.1677 H         1 RES1    0.0000
     20 H6        -5.2995    0.4085    5.4952 H         1 RES1    0.0000
     21 H7        -7.6492    0.0415    5.2858 H         1 RES1    0.0000
     22 H8        -3.1716    1.4739    2.2984 H         1 RES1    0.0000
     23 H9        -0.7539    1.3748    1.6893 H         1 RES1    0.0000
     24 N1        -3.7753    1.8926    4.1270 N.2       1 RES1    0.0000
     25 N2        -9.2940    1.1462    3.5540 N.pl3     1 RES1    0.0000
     26 O1        -9.8652    1.5649    2.5568 O.2       1 RES1    0.0000
     27 O2        -9.8740    0.6372    4.4980 O.2       1 RES1    0.0000
@<TRIPOS>BOND
     1    1    7 ar
     2    2    3 ar
     3    3    4 ar
     4    4    5 ar
     5    5   13 ar
     6    6    3 1
     7    7    8 ar
     8    8    9 ar
     9    9   10 ar
    10   10   11 ar
    11   11    1 ar
    12   12   13 1
    13   13   14 ar
    14   14    2 ar
    15   15    2 1
    16   16    4 1
    17   17    5 1
    18   18    7 1
    19   19    8 1
    20   20   10 1
    21   21   11 1
    22   22   12 1
    23   23   14 1
    24   24    9 1
    25   25    1 1
    26   26   25 2
    27   27   25 2
    28   12   24 2
@<TRIPOS>SUBSTRUCTURE
     1 RES1 1

@<TRIPOS>CRYSIN
  15.4690    7.2820   12.7680  90.0000 123.6300  90.0000  14 1

