# MOL2 file generated by ConQuest
# Please check atom types

@<TRIPOS>MOLECULE
MCHDIM
    24    24     1
SMALL
NO_CHARGES
****
Generated from CSD

@<TRIPOS>ATOM
      1 N1         0.3620    1.6640    2.6324 N.pl3     1 RES1    0.0000
      2 N2         1.6192    1.6640    2.5270 N.2       1 RES1    0.0000
      3 O1        -0.1777    1.6640    3.7855 O.2       1 RES1    0.0000
      4 C1         2.2159    1.6640    1.1958 C.3       1 RES1    0.0000
      5 C2         4.6930    1.6640   -0.3496 C.3       1 RES1    0.0000
      6 C3        -0.5924    1.6640    1.5326 C.3       1 RES1    0.0000
      7 C4         3.0826    2.9060    1.0804 C.3       1 RES1    0.0000
      8 C5         3.8658    2.9020   -0.2253 C.3       1 RES1    0.0000
      9 H1         1.4612    1.6640    0.4822 H         1 RES1    0.0000
     10 H2         5.2020    1.6640   -1.2807 H         1 RES1    0.0000
     11 H3         5.4345    1.6640    0.4012 H         1 RES1    0.0000
     12 H4        -1.5863    1.6640    1.8978 H         1 RES1    0.0000
     13 H5        -0.4783    2.5140    0.9328 H         1 RES1    0.0000
     14 H6         3.2120    2.9386   -1.0382 H         1 RES1    0.0000
     15 H7         4.4780    3.7480   -0.2858 H         1 RES1    0.0000
     16 H8         2.5077    3.7740    1.1131 H         1 RES1    0.0000
     17 H9         3.7759    2.9626    1.8578 H         1 RES1    0.0000
     18 C4B        3.0826    0.4220    1.0804 C.3       1 RES1    0.0000
     19 H5B       -0.4783    0.8140    0.9328 H         1 RES1    0.0000
     20 C5B        3.8658    0.4260   -0.2253 C.3       1 RES1    0.0000
     21 H8B        2.5077   -0.4460    1.1131 H         1 RES1    0.0000
     22 H9B        3.7759    0.3654    1.8578 H         1 RES1    0.0000
     23 H6B        3.2120    0.3894   -1.0382 H         1 RES1    0.0000
     24 H7B        4.4780   -0.4200   -0.2858 H         1 RES1    0.0000
@<TRIPOS>BOND
     1    1    2 2
     2    2    4 1
     3    3    1 1
     4    4    7 1
     5    5    8 1
     6    6    1 1
     7    7    8 1
     8    8   14 1
     9    9    4 1
    10   10    5 1
    11   11    5 1
    12   12    6 1
    13   13    6 1
    14   15    8 1
    15   16    7 1
    16   17    7 1
    17   18    4 1
    18   19    6 1
    19   20    5 1
    20   21   18 1
    21   22   18 1
    22   23   20 1
    23   24   20 1
    24   18   20 1
@<TRIPOS>SUBSTRUCTURE
     1 RES1 1

@<TRIPOS>CRYSIN
  21.9400    6.6560    5.5490  90.0000  90.0000  90.0000  62 1

