# MOL2 file generated by ConQuest
# Please check atom types

@<TRIPOS>MOLECULE
MCNBZP10
    41    42     1
SMALL
NO_CHARGES
****
Generated from CSD

@<TRIPOS>ATOM
      1 C1        -6.9360    1.6605    3.5817 C.ar      1 RES1    0.0000
      2 C2        -9.0136    1.9276    0.5358 C.ar      1 RES1    0.0000
      3 C3        -9.0249    1.4876   -0.7849 C.ar      1 RES1    0.0000
      4 C4        -7.8619    1.2474   -1.4860 C.ar      1 RES1    0.0000
      5 C5        -6.6584    1.4567   -0.8522 C.ar      1 RES1    0.0000
      6 C6        -6.5846    1.8488    0.4818 C.ar      1 RES1    0.0000
      7 C7       -10.3273    2.2124    1.1983 C.3       1 RES1    0.0000
      8 C8        -7.9149    0.7859   -2.9269 C.3       1 RES1    0.0000
      9 C9        -5.2274    2.0828    1.0771 C.3       1 RES1    0.0000
     10 C10       -7.7625    2.4725    2.6281 C.2       1 RES1    0.0000
     11 C11       -6.8005    0.2724    3.5189 C.ar      1 RES1    0.0000
     12 C12       -5.9112   -0.4307    4.2906 C.ar      1 RES1    0.0000
     13 C13       -5.1322    0.2624    5.1979 C.ar      1 RES1    0.0000
     14 C14       -5.2937    1.6352    5.3368 C.ar      1 RES1    0.0000
     15 C15       -6.1832    2.3182    4.5408 C.ar      1 RES1    0.0000
     16 C16       -4.1481   -0.5206    5.9938 C.2       1 RES1    0.0000
     17 C17       -2.3893   -0.4373    7.5361 C.3       1 RES1    0.0000
     18 C18       -7.7855    2.0739    1.1796 C.ar      1 RES1    0.0000
     19 H1        -9.8501    1.3206   -1.2237 H         1 RES1    0.0000
     20 H2        -5.8241    1.3428   -1.3008 H         1 RES1    0.0000
     21 H3       -11.0369    1.8495    0.6945 H         1 RES1    0.0000
     22 H4       -10.3430    1.8338    2.0725 H         1 RES1    0.0000
     23 H5       -10.4877    3.1257    1.3008 H         1 RES1    0.0000
     24 H6        -8.6822    0.7796   -3.3734 H         1 RES1    0.0000
     25 H7        -7.3287    0.0629   -3.0647 H         1 RES1    0.0000
     26 H8        -7.4168    1.3555   -3.4616 H         1 RES1    0.0000
     27 H9        -4.9225    1.3128    1.6205 H         1 RES1    0.0000
     28 H10       -4.5661    2.1586    0.4630 H         1 RES1    0.0000
     29 H11       -5.2173    2.8635    1.6536 H         1 RES1    0.0000
     30 H12       -5.8122   -1.3846    4.1781 H         1 RES1    0.0000
     31 H13       -4.7402    2.0813    5.9751 H         1 RES1    0.0000
     32 H14       -6.2819    3.2741    4.6742 H         1 RES1    0.0000
     33 H15       -1.9879    0.1926    7.9814 H         1 RES1    0.0000
     34 H16       -2.8408   -1.1336    8.1468 H         1 RES1    0.0000
     35 H17       -1.7739   -0.9253    6.9011 H         1 RES1    0.0000
     36 N1        -7.6978   -0.4987    2.6590 N.pl3     1 RES1    0.0000
     37 O1        -8.8877   -0.2514    2.7505 O.2       1 RES1    0.0000
     38 O2        -7.2174   -1.3494    1.9358 O.2       1 RES1    0.0000
     39 O3        -4.0530   -1.7169    5.9541 O.2       1 RES1    0.0000
     40 O4        -3.3696    0.2561    6.7335 O.3       1 RES1    0.0000
     41 O5        -8.3672    3.4336    3.0471 O.2       1 RES1    0.0000
@<TRIPOS>BOND
     1    1   10 1
     2    2    3 ar
     3    3    4 ar
     4    4    5 ar
     5    5    6 ar
     6    6    9 1
     7    7    2 1
     8    8    4 1
     9    9   27 1
    10   10   18 1
    11   11    1 ar
    12   12   11 ar
    13   13   12 ar
    14   14   13 ar
    15   15    1 ar
    16   16   13 1
    17   17   33 1
    18   18    2 ar
    19   19    3 1
    20   20    5 1
    21   21    7 1
    22   22    7 1
    23   23    7 1
    24   24    8 1
    25   25    8 1
    26   26    8 1
    27   28    9 1
    28   29    9 1
    29   30   12 1
    30   31   14 1
    31   32   15 1
    32   34   17 1
    33   35   17 1
    34   36   11 1
    35   37   36 2
    36   38   36 2
    37   39   16 2
    38   40   16 1
    39   41   10 2
    40    6   18 ar
    41   14   15 ar
    42   17   40 1
@<TRIPOS>SUBSTRUCTURE
     1 RES1 1

@<TRIPOS>CRYSIN
  10.2260    7.6720   11.9750 105.1100 100.0800 111.5000   2 1

