# MOL2 file generated by ConQuest
# Please check atom types

@<TRIPOS>MOLECULE
MCRZMA
    50    51     1
SMALL
USER_CHARGES
****
Generated from CSD

@<TRIPOS>ATOM
      1 C1         3.2253    3.0241    4.0042 C.3       1 RES1    0.0000
      2 O1         1.8915    3.4291    4.0521 O.3       1 RES1    0.0000
      3 C2         4.0547    4.0318    4.8040 C.3       1 RES1    0.0000
      4 O2         4.0781    5.2924    4.1631 O.3       1 RES1    0.0000
      5 C3         5.4943    3.5290    4.9020 C.3       1 RES1    0.0000
      6 O3         6.2881    4.3847    5.7128 O.3       1 RES1    0.0000
      7 C4         5.5231    2.1309    5.4898 C.3       1 RES1    0.0000
      8 O4         6.8360    1.5771    5.4279 O.3       1 RES1    0.0000
      9 C5         4.6257    1.2263    4.6580 C.3       1 RES1    0.0000
     10 O5         3.2887    1.7426    4.6440 O.3       1 RES1    0.0000
     11 C6         4.1017    5.6183    0.5139 C.3       1 RES1    0.0000
     12 N1         3.7069    6.8581    1.1678 N.2       1 RES1    0.0000
     13 N2         4.6345    7.3005    1.9196 N.pl3     1 RES1    1.0000
     14 O6         5.7881    6.7977    2.0146 O.2       1 RES1   -1.0000
     15 C7         4.3319    8.4758    2.7434 C.3       1 RES1    0.0000
     16 C8         1.8260    4.9770    0.2539 C.3       1 RES1    0.0000
     17 O7         3.0695    5.2050   -0.3569 O.3       1 RES1    0.0000
     18 C9         0.8793    4.4576   -0.8338 C.3       1 RES1    0.0000
     19 O8         0.7339    5.4486   -1.8356 O.3       1 RES1    0.0000
     20 C10       -0.4628    4.1026   -0.2100 C.3       1 RES1    0.0000
     21 O9        -1.2581    3.5155   -1.2357 O.3       1 RES1    0.0000
     22 C11       -0.2531    3.1282    0.9408 C.3       1 RES1    0.0000
     23 O10       -1.5129    2.8628    1.5307 O.3       1 RES1    0.0000
     24 C12        0.7410    3.7330    1.9466 C.3       1 RES1    0.0000
     25 O11        1.9770    3.9839    1.2537 O.3       1 RES1    0.0000
     26 C13        1.0430    2.7826    3.0774 C.3       1 RES1    0.0000
     27 H1         3.5308    2.9148    3.0294 H         1 RES1    0.0000
     28 H2         3.6578    4.1015    5.7588 H         1 RES1    0.0000
     29 H3         3.4603    5.7567    4.3691 H         1 RES1    0.0000
     30 H4         5.9523    3.5082    4.0392 H         1 RES1    0.0000
     31 H5         6.4179    4.9656    5.3089 H         1 RES1    0.0000
     32 H6         5.2030    2.1341    6.4686 H         1 RES1    0.0000
     33 H7         7.1462    1.5615    6.1387 H         1 RES1    0.0000
     34 H8         4.9782    1.1867    3.7892 H         1 RES1    0.0000
     35 H9         4.5335    0.2498    5.1289 H         1 RES1    0.0000
     36 H10        4.3200    4.9447    1.1698 H         1 RES1    0.0000
     37 H11        4.9627    5.8817   -0.0800 H         1 RES1    0.0000
     38 H12        3.6782    9.0463    2.5295 H         1 RES1    0.0000
     39 H13        5.1159    9.0671    2.7294 H         1 RES1    0.0000
     40 H14        4.2252    8.1719    3.5792 H         1 RES1    0.0000
     41 H15        1.4670    5.9337    0.7498 H         1 RES1    0.0000
     42 H16        1.3299    3.6747   -1.2397 H         1 RES1    0.0000
     43 H17        0.6990    5.1634   -2.5695 H         1 RES1    0.0000
     44 H18       -0.8610    5.0176    0.1000 H         1 RES1    0.0000
     45 H19       -1.8503    3.1855   -0.8598 H         1 RES1    0.0000
     46 H20        0.1196    2.2798    0.6099 H         1 RES1    0.0000
     47 H21       -1.5579    2.0404    1.7596 H         1 RES1    0.0000
     48 H22        0.4532    4.6429    2.2995 H         1 RES1    0.0000
     49 H23        0.2673    2.4151    3.5792 H         1 RES1    0.0000
     50 H24        1.5458    1.9363    2.7394 H         1 RES1    0.0000
@<TRIPOS>BOND
     1    1    2 1
     2    2   26 1
     3    3    1 1
     4    4    3 1
     5    5    3 1
     6    6    5 1
     7    7    5 1
     8    8    7 1
     9    9    7 1
    10   10    1 1
    11   11   12 1
    12   12   13 2
    13   13   14 1
    14   15   13 1
    15   16   17 1
    16   17   11 1
    17   18   16 1
    18   19   18 1
    19   20   18 1
    20   21   20 1
    21   22   20 1
    22   23   22 1
    23   24   22 1
    24   25   16 1
    25   26   24 1
    26   27    1 1
    27   28    3 1
    28   29    4 1
    29   30    5 1
    30   31    6 1
    31   32    7 1
    32   33    8 1
    33   34    9 1
    34   35    9 1
    35   36   11 1
    36   37   11 1
    37   38   15 1
    38   39   15 1
    39   40   15 1
    40   41   16 1
    41   42   18 1
    42   43   19 1
    43   44   20 1
    44   45   21 1
    45   46   22 1
    46   47   23 1
    47   48   24 1
    48   49   26 1
    49   50   26 1
    50    9   10 1
    51   24   25 1
@<TRIPOS>SUBSTRUCTURE
     1 RES1 1

@<TRIPOS>CRYSIN
   8.3150   10.4100   10.4230  90.0000 106.4200  90.0000   4 1

