# MOL2 file generated by ConQuest
# Please check atom types

@<TRIPOS>MOLECULE
MCVXDZ
    18    18     1
SMALL
NO_CHARGES
****
Generated from CSD

@<TRIPOS>ATOM
      1 O1         6.3745    2.5507    1.2218 O.2       1 RES1    0.0000
      2 N1         5.9887    3.6673    0.8609 N.pl3     1 RES1    0.0000
      3 C1         4.1112    9.2687   -0.1735 C.2       1 RES1    0.0000
      4 O2         5.9250    3.9286   -0.5689 O.3       1 RES1    0.0000
      5 O3         4.0383    9.9666   -1.2550 O.3       1 RES1    0.0000
      6 C2         4.8021    7.0815    0.6380 C.2       1 RES1    0.0000
      7 N2         5.4953    5.2184   -0.7456 N.2       1 RES1    0.0000
      8 C3         5.2927    5.7042    0.4605 C.2       1 RES1    0.0000
      9 O4         3.8141    9.7088    0.9388 O.2       1 RES1    0.0000
     10 C4         5.5994    4.7643    1.4934 C.2       1 RES1    0.0000
     11 C5         4.5941    7.8969   -0.3639 C.2       1 RES1    0.0000
     12 C6         5.5770    4.8570    2.9641 C.3       1 RES1    0.0000
     13 H1         4.5579    7.4268    1.5874 H         1 RES1    0.0000
     14 H2         4.7675    7.5456   -1.3191 H         1 RES1    0.0000
     15 H3         5.1622    5.5106    3.3041 H         1 RES1    0.0000
     16 H4         6.1731    4.1886    3.4344 H         1 RES1    0.0000
     17 H5         4.6203    4.1594    3.2479 H         1 RES1    0.0000
     18 H6         3.7585   10.8899   -1.1538 H         1 RES1    0.0000
@<TRIPOS>BOND
     1    1    2 1
     2    2    4 1
     3    3    5 1
     4    4    7 1
     5    5   18 1
     6    6    8 1
     7    7    8 2
     8    8   10 1
     9    9    3 2
    10   10    2 2
    11   11    3 1
    12   12   10 1
    13   13    6 1
    14   14   11 1
    15   15   12 1
    16   16   12 1
    17   17   12 1
    18    6   11 2
@<TRIPOS>SUBSTRUCTURE
     1 RES1 1

@<TRIPOS>CRYSIN
   7.1010   11.1100    9.9550  90.0000 106.4100  90.0000  14 1

