# MOL2 file generated by ConQuest
# Please check atom types

@<TRIPOS>MOLECULE
MEBGIK
    37    40     1
SMALL
NO_CHARGES
****
Generated from CSD

@<TRIPOS>ATOM
      1 O1         8.3633   -0.4601    8.3619 O.3       1 RES1    0.0000
      2 N1         6.0150   -3.5482    6.1441 N.pl3     1 RES1    0.0000
      3 H1         5.6170   -4.2589    6.0373 H         1 RES1    0.0000
      4 N2         8.6900    0.8802    8.7010 N.2       1 RES1    0.0000
      5 C1         6.7617   -1.6095    6.9771 C.2       1 RES1    0.0000
      6 C2         7.2792   -1.7569    5.6381 C.ar      1 RES1    0.0000
      7 C3         8.1054   -1.0043    4.8042 C.ar      1 RES1    0.0000
      8 H2         8.4550   -0.1920    5.0933 H         1 RES1    0.0000
      9 C4         8.3969   -1.4836    3.5398 C.ar      1 RES1    0.0000
     10 H3         8.9447   -0.9840    2.9788 H         1 RES1    0.0000
     11 C5         7.8884   -2.6952    3.0927 C.ar      1 RES1    0.0000
     12 H4         8.1029   -2.9901    2.2369 H         1 RES1    0.0000
     13 C6         7.0770   -3.4656    3.8830 C.ar      1 RES1    0.0000
     14 H5         6.7388   -4.2792    3.5840 H         1 RES1    0.0000
     15 C7         6.7814   -2.9837    5.1517 C.ar      1 RES1    0.0000
     16 C8         6.0117   -2.7193    7.2192 C.2       1 RES1    0.0000
     17 H6         5.5573   -2.8859    8.0137 H         1 RES1    0.0000
     18 C9         6.9566   -0.5034    7.9397 C.3       1 RES1    0.0000
     19 H7         6.4031   -0.6814    8.7285 H         1 RES1    0.0000
     20 C10        6.7069    0.9306    7.4911 C.3       1 RES1    0.0000
     21 H8         6.8199    1.0323    6.5329 H         1 RES1    0.0000
     22 H9         5.8217    1.2370    7.7446 H         1 RES1    0.0000
     23 C11        7.7762    1.6476    8.2511 C.2       1 RES1    0.0000
     24 C12        7.8295    3.0956    8.4621 C.ar      1 RES1    0.0000
     25 C13        8.6753    3.6639    9.4155 C.ar      1 RES1    0.0000
     26 H10        9.2362    3.1172    9.9175 H         1 RES1    0.0000
     27 C14        8.6851    5.0318    9.6214 C.ar      1 RES1    0.0000
     28 H11        9.2599    5.3903   10.2578 H         1 RES1    0.0000
     29 C15        7.8598    5.8785    8.9018 C.ar      1 RES1    0.0000
     30 C16        7.0508    5.3191    7.9411 C.ar      1 RES1    0.0000
     31 H12        6.5079    5.8696    7.4242 H         1 RES1    0.0000
     32 C17        7.0311    3.9512    7.7281 C.ar      1 RES1    0.0000
     33 H13        6.4678    3.6003    7.0768 H         1 RES1    0.0000
     34 C18        7.8499    7.3596    9.1685 C.3       1 RES1    0.0000
     35 H14        7.7926    7.8338    8.3355 H         1 RES1    0.0000
     36 H15        8.6581    7.6075    9.6227 H         1 RES1    0.0000
     37 H16        7.0934    7.5808    9.7153 H         1 RES1    0.0000
@<TRIPOS>BOND
     1    1    4 1
     2    2    3 1
     3    4   23 2
     4    5    6 1
     5    6    7 ar
     6    7    8 1
     7    9    7 ar
     8   10    9 1
     9   11    9 ar
    10   12   11 1
    11   13   11 ar
    12   14   13 1
    13   15    2 1
    14   16    2 1
    15   17   16 1
    16   18    1 1
    17   19   18 1
    18   20   18 1
    19   21   20 1
    20   22   20 1
    21   23   20 1
    22   24   23 1
    23   25   24 ar
    24   26   25 1
    25   27   25 ar
    26   28   27 1
    27   29   27 ar
    28   30   29 ar
    29   31   30 1
    30   32   24 ar
    31   33   32 1
    32   34   29 1
    33   35   34 1
    34   36   34 1
    35   37   34 1
    36    5   16 2
    37    5   18 1
    38    6   15 ar
    39   13   15 ar
    40   30   32 ar
@<TRIPOS>SUBSTRUCTURE
     1 RES1 1

@<TRIPOS>CRYSIN
   8.1881   12.7130   14.2390  90.0000  90.0000  90.0000  19 1

