# MOL2 file generated by ConQuest
# Please check atom types

@<TRIPOS>MOLECULE
MEBQAL
    64    68     1
SMALL
NO_CHARGES
****
Generated from CSD

@<TRIPOS>ATOM
      1 C1         7.2960    6.7486    2.5332 C.3       1 RES1    0.0000
      2 N1         8.4208    6.3453    3.3772 N.3       1 RES1    0.0000
      3 C2         9.0880    7.5337    3.9239 C.3       1 RES1    0.0000
      4 C3         8.1330    8.3403    4.7766 C.3       1 RES1    0.0000
      5 C4         6.8450    8.7087    4.0433 C.3       1 RES1    0.0000
      6 C5         7.0838    9.8595    3.0636 C.3       1 RES1    0.0000
      7 C6         5.8686   10.2224    2.2609 C.3       1 RES1    0.0000
      8 C7         5.3375    9.0179    1.5069 C.3       1 RES1    0.0000
      9 C8         5.0340    7.8833    2.4670 C.3       1 RES1    0.0000
     10 C9         6.2237    7.4665    3.3479 C.3       1 RES1    0.0000
     11 C10        9.3690    5.5118    2.6416 C.3       1 RES1    0.0000
     12 C11        8.7609    4.2105    2.1838 C.ar      1 RES1    0.0000
     13 C12        8.1471    3.3663    3.0843 C.ar      1 RES1    0.0000
     14 C13        7.5841    2.1778    2.6677 C.ar      1 RES1    0.0000
     15 C14        7.6322    1.8176    1.3485 C.ar      1 RES1    0.0000
     16 C15        8.2346    2.6376    0.4546 C.ar      1 RES1    0.0000
     17 C16        8.7969    3.8233    0.8646 C.ar      1 RES1    0.0000
     18 O1         6.1903   11.2872    1.3604 O.3       1 RES1    0.0000
     19 C17        5.0898   12.1691    1.3485 C.3       1 RES1    0.0000
     20 C18        4.4024   11.9056    2.6026 C.3       1 RES1    0.0000
     21 O2         4.8620   10.7333    3.1244 O.3       1 RES1    0.0000
     22 C19        5.7058    6.5389    4.4371 C.3       1 RES1    0.0000
     23 O3         5.1292    5.3613    3.8089 O.3       1 RES1    0.0000
     24 C20        4.5352    4.5036    4.6193 C.2       1 RES1    0.0000
     25 O4         4.4264    4.6703    5.8029 O.2       1 RES1    0.0000
     26 C21        4.0004    3.3071    3.9066 C.ar      1 RES1    0.0000
     27 C22        3.2368    2.4091    4.6193 C.ar      1 RES1    0.0000
     28 C23        2.6854    1.3121    3.9966 C.ar      1 RES1    0.0000
     29 C24        2.9312    1.1212    2.6666 C.ar      1 RES1    0.0000
     30 C25        3.6906    1.9843    1.9365 C.ar      1 RES1    0.0000
     31 C26        4.2253    3.0947    2.5635 C.ar      1 RES1    0.0000
     32 N2         2.3278   -0.0538    2.0016 N.pl3     1 RES1    0.0000
     33 O5         1.5621   -0.7421    2.6427 O.2       1 RES1    0.0000
     34 O6         2.6386   -0.2689    0.8516 O.2       1 RES1    0.0000
     35 H1         6.9150    5.9716    2.1155 H         1 RES1    0.0000
     36 H2         7.6132    7.3348    1.8421 H         1 RES1    0.0000
     37 H3         9.3837    8.0849    3.1949 H         1 RES1    0.0000
     38 H4         9.8572    7.2702    4.4349 H         1 RES1    0.0000
     39 H5         8.5639    9.1416    5.0826 H         1 RES1    0.0000
     40 H6         7.9116    7.8107    5.5469 H         1 RES1    0.0000
     41 H7         6.2151    9.0260    4.6953 H         1 RES1    0.0000
     42 H8         7.7825    9.6013    2.4583 H         1 RES1    0.0000
     43 H9         7.3839   10.6311    3.5508 H         1 RES1    0.0000
     44 H10        5.9928    8.7248    0.8690 H         1 RES1    0.0000
     45 H11        4.5423    9.2653    1.0295 H         1 RES1    0.0000
     46 H12        4.7393    7.1143    1.9723 H         1 RES1    0.0000
     47 H13        4.3116    8.1575    3.0365 H         1 RES1    0.0000
     48 H14       10.1294    5.3263    3.1982 H         1 RES1    0.0000
     49 H15        9.6750    6.0012    1.8736 H         1 RES1    0.0000
     50 H16        8.1199    3.6217    4.0096 H         1 RES1    0.0000
     51 H17        7.1635    1.5971    3.3077 H         1 RES1    0.0000
     52 H18        7.2229    1.0002    1.0501 H         1 RES1    0.0000
     53 H19        8.2921    2.3795   -0.4687 H         1 RES1    0.0000
     54 H20        9.2148    4.4041    0.2224 H         1 RES1    0.0000
     55 H21        4.5024   11.9728    0.6140 H         1 RES1    0.0000
     56 H22        5.3830   13.0805    1.2801 H         1 RES1    0.0000
     57 H23        3.4512   11.8814    2.4778 H         1 RES1    0.0000
     58 H24        4.6076   12.6154    3.2177 H         1 RES1    0.0000
     59 H25        5.0456    6.9826    4.9741 H         1 RES1    0.0000
     60 H26        6.4347    6.2781    5.0056 H         1 RES1    0.0000
     61 H27        3.0774    2.5650    5.5534 H         1 RES1    0.0000
     62 H28        2.1479    0.6910    4.4902 H         1 RES1    0.0000
     63 H29        3.8585    1.8149    1.0068 H         1 RES1    0.0000
     64 H30        4.7605    3.7185    2.0667 H         1 RES1    0.0000
@<TRIPOS>BOND
     1    1    2 1
     2    2    3 1
     3    3    4 1
     4    4    5 1
     5    5    6 1
     6    6    7 1
     7    7    8 1
     8    8    9 1
     9    9   10 1
    10   10    1 1
    11   11    2 1
    12   12   11 1
    13   13   12 ar
    14   14   13 ar
    15   15   14 ar
    16   16   15 ar
    17   17   12 ar
    18   18    7 1
    19   19   18 1
    20   20   19 1
    21   21    7 1
    22   22   10 1
    23   23   22 1
    24   24   23 1
    25   25   24 2
    26   26   24 1
    27   27   26 ar
    28   28   27 ar
    29   29   28 ar
    30   30   29 ar
    31   31   26 ar
    32   32   29 1
    33   33   32 2
    34   34   32 2
    35   35    1 1
    36   36    1 1
    37   37    3 1
    38   38    3 1
    39   39    4 1
    40   40    4 1
    41   41    5 1
    42   42    6 1
    43   43    6 1
    44   44    8 1
    45   45    8 1
    46   46    9 1
    47   47    9 1
    48   48   11 1
    49   49   11 1
    50   50   13 1
    51   51   14 1
    52   52   15 1
    53   53   16 1
    54   54   17 1
    55   55   19 1
    56   56   19 1
    57   57   20 1
    58   58   20 1
    59   59   22 1
    60   60   22 1
    61   61   27 1
    62   62   28 1
    63   63   30 1
    64   64   31 1
    65    5   10 1
    66   16   17 ar
    67   20   21 1
    68   30   31 ar
@<TRIPOS>SUBSTRUCTURE
     1 RES1 1

@<TRIPOS>CRYSIN
   8.1150   26.8870   11.2240  90.0000 104.8600  90.0000 231 1

