# MOL2 file generated by ConQuest
# Please check atom types

@<TRIPOS>MOLECULE
MEDLIS
    36    37     1
SMALL
NO_CHARGES
****
Generated from CSD

@<TRIPOS>ATOM
      1 O1        14.2296    6.8764    8.2302 O.3       1 RES1    0.0000
      2 H1        13.6461    6.4020    7.8572 H         1 RES1    0.0000
      3 O2        19.3369    4.3108   10.7014 O.2       1 RES1    0.0000
      4 O3        18.3055    2.5114   10.0612 O.2       1 RES1    0.0000
      5 N1        18.3783    3.7383   10.1746 N.pl3     1 RES1    0.0000
      6 N2        12.9974    4.7094    7.5535 N.2       1 RES1    0.0000
      7 N3         8.2970    2.5547    5.3255 N.3       1 RES1    0.0000
      8 C1        15.2090    6.0927    8.6977 C.ar      1 RES1    0.0000
      9 C2        16.3173    6.6903    9.2975 C.ar      1 RES1    0.0000
     10 H2        16.3512    7.6363    9.3757 H         1 RES1    0.0000
     11 C3        17.3589    5.9337    9.7777 C.ar      1 RES1    0.0000
     12 H3        18.1161    6.3471   10.1759 H         1 RES1    0.0000
     13 C4        17.2816    4.5599    9.6655 C.ar      1 RES1    0.0000
     14 C5        16.1989    3.9332    9.0884 C.ar      1 RES1    0.0000
     15 H4        16.1812    2.9851    9.0304 H         1 RES1    0.0000
     16 C6        15.1381    4.6688    8.5918 C.ar      1 RES1    0.0000
     17 C7        13.9877    4.0137    8.0109 C.2       1 RES1    0.0000
     18 H5        13.9601    3.0656    7.9630 H         1 RES1    0.0000
     19 C8        11.8451    4.0801    7.0280 C.ar      1 RES1    0.0000
     20 C9        11.5208    2.7340    7.1502 C.ar      1 RES1    0.0000
     21 H6        12.1109    2.1459    7.6064 H         1 RES1    0.0000
     22 C10       10.3418    2.2447    6.6109 C.ar      1 RES1    0.0000
     23 H7        10.1363    1.3223    6.7117 H         1 RES1    0.0000
     24 C11        9.4362    3.0731    5.9165 C.ar      1 RES1    0.0000
     25 C12        9.7686    4.4340    5.8270 C.ar      1 RES1    0.0000
     26 H8         9.1763    5.0336    5.3885 H         1 RES1    0.0000
     27 C13       10.9388    4.9104    6.3689 C.ar      1 RES1    0.0000
     28 H9        11.1360    5.8362    6.2908 H         1 RES1    0.0000
     29 C14        7.2528    3.4717    4.8479 C.3       1 RES1    0.0000
     30 H10        6.9005    3.9874    5.6040 H         1 RES1    0.0000
     31 H11        6.5275    2.9560    4.4383 H         1 RES1    0.0000
     32 H12        7.6326    4.0834    4.1850 H         1 RES1    0.0000
     33 C15        7.9565    1.1694    5.5032 C.3       1 RES1    0.0000
     34 H13        8.6951    0.6077    5.1843 H         1 RES1    0.0000
     35 H14        7.1454    0.9644    4.9928 H         1 RES1    0.0000
     36 H15        7.7985    0.9907    6.4533 H         1 RES1    0.0000
@<TRIPOS>BOND
     1    1    2 1
     2    3    5 2
     3    4    5 2
     4    5   13 1
     5    6   17 2
     6    7   24 1
     7    8    1 1
     8    9    8 ar
     9   10    9 1
    10   11    9 ar
    11   12   11 1
    12   13   11 ar
    13   14   13 ar
    14   15   14 1
    15   16    8 ar
    16   17   16 1
    17   18   17 1
    18   19    6 1
    19   20   19 ar
    20   21   20 1
    21   22   20 ar
    22   23   22 1
    23   24   22 ar
    24   25   24 ar
    25   26   25 1
    26   27   19 ar
    27   28   27 1
    28   29    7 1
    29   30   29 1
    30   31   29 1
    31   32   29 1
    32   33    7 1
    33   34   33 1
    34   35   33 1
    35   36   33 1
    36   14   16 ar
    37   25   27 ar
@<TRIPOS>SUBSTRUCTURE
     1 RES1 1

@<TRIPOS>CRYSIN
  31.6880    6.7674   13.1460  90.0000 106.5450  90.0000  15 1

