# MOL2 file generated by ConQuest
# Please check atom types

@<TRIPOS>MOLECULE
MEDNIU
    38    40     1
SMALL
NO_CHARGES
****
Generated from CSD

@<TRIPOS>ATOM
      1 C1         3.7604    3.2577    9.0239 C.ar      1 RES1    0.0000
      2 C2         4.1904    2.6520    7.8483 C.ar      1 RES1    0.0000
      3 C3         4.0415    0.7440    6.4307 C.3       1 RES1    0.0000
      4 H1         3.0987    0.7864    6.2054 H         1 RES1    0.0000
      5 H2         4.3109   -0.1873    6.4271 H         1 RES1    0.0000
      6 C4         4.8325    1.4978    5.4225 C.2       1 RES1    0.0000
      7 C5         4.5855    3.4846    6.7920 C.ar      1 RES1    0.0000
      8 C6         4.5339    4.8588    6.9064 C.ar      1 RES1    0.0000
      9 H3         4.8020    5.4097    6.2054 H         1 RES1    0.0000
     10 C7         4.0698    5.3913    8.0940 C.ar      1 RES1    0.0000
     11 C8         3.6783    4.6229    9.1600 C.ar      1 RES1    0.0000
     12 H4         3.3689    5.0121    9.9465 H         1 RES1    0.0000
     13 C9         5.7855    3.3379    4.5746 C.2       1 RES1    0.0000
     14 C10        6.6106    2.2012    2.5306 C.2       1 RES1    0.0000
     15 C11        5.9576    2.6838    1.3912 C.2       1 RES1    0.0000
     16 C12        7.9239    1.7185    2.4860 C.2       1 RES1    0.0000
     17 C13        4.5877    3.2448    1.4466 C.3       1 RES1    0.0000
     18 H5         4.4170    3.7520    0.6492 H         1 RES1    0.0000
     19 H6         4.5071    3.8174    2.2126 H         1 RES1    0.0000
     20 H7         3.9514    2.5290    1.5128 H         1 RES1    0.0000
     21 C14        8.6720    1.2976    3.6857 C.3       1 RES1    0.0000
     22 H8         9.3170    0.6309    3.4424 H         1 RES1    0.0000
     23 H9         8.0619    0.9331    4.3313 H         1 RES1    0.0000
     24 H10        9.1224    2.0554    4.0651 H         1 RES1    0.0000
     25 N1         3.3681    2.4297   10.1717 N.pl3     1 RES1    0.0000
     26 N2         3.9943    6.8554    8.2085 N.pl3     1 RES1    0.0000
     27 N3         5.0482    2.8385    5.6433 N.am      1 RES1    0.0000
     28 N4         5.3344    1.0933    4.3204 N.2       1 RES1    0.0000
     29 N5         5.9336    2.2418    3.7832 N.am      1 RES1    0.0000
     30 O1         4.0589    1.4762   10.4416 O.2       1 RES1    0.0000
     31 O2         2.3977    2.7824   10.7969 O.2       1 RES1    0.0000
     32 O3         3.5301    7.3189    9.2130 O.2       1 RES1    0.0000
     33 O4         4.3821    7.5197    7.2738 O.2       1 RES1    0.0000
     34 O5         4.2528    1.3064    7.7452 O.3       1 RES1    0.0000
     35 O6         6.2002    4.4686    4.4104 O.2       1 RES1    0.0000
     36 O7         6.5525    2.6653    0.2626 O.2       1 RES1    0.0000
     37 O8         8.5398    1.6590    1.3683 O.3       1 RES1    0.0000
     38 H11        7.7139    2.0677    0.5541 H         1 RES1    0.0000
@<TRIPOS>BOND
     1    1    2 ar
     2    2    7 ar
     3    3    4 1
     4    5    3 1
     5    6    3 1
     6    7    8 ar
     7    8    9 1
     8   10    8 ar
     9   11    1 ar
    10   12   11 1
    11   13   27 1
    12   14   15 1
    13   15   17 1
    14   16   14 2
    15   17   18 1
    16   19   17 1
    17   20   17 1
    18   21   16 1
    19   22   21 1
    20   23   21 1
    21   24   21 1
    22   25    1 1
    23   26   10 1
    24   27    6 1
    25   28    6 2
    26   29   13 1
    27   30   25 2
    28   31   25 2
    29   32   26 2
    30   33   26 2
    31   34    2 1
    32   35   13 2
    33   36   15 2
    34   37   16 1
    35   38   37 1
    36    3   34 1
    37    7   27 1
    38   10   11 ar
    39   14   29 1
    40   28   29 1
@<TRIPOS>SUBSTRUCTURE
     1 RES1 1

@<TRIPOS>CRYSIN
   7.2636   17.6730   12.0447  90.0000  90.0000  90.0000  33 1

