# MOL2 file generated by ConQuest
# Please check atom types

@<TRIPOS>MOLECULE
MEDYIF
   104    67     2
SMALL
NO_CHARGES
****
Generated from CSD

@<TRIPOS>ATOM
      1 O1         4.0217    4.3355   15.3520 O.2       1 RES1    0.0000
      2 O2         2.3180    8.0143   13.2659 O.2       1 RES1    0.0000
      3 O3         5.4176    2.5309   10.3928 O.3       1 RES1    0.0000
      4 H1         6.0012    2.4153    9.6753 H         1 RES1    0.0000
      5 N1         3.2019    6.3492   14.5943 N.am      1 RES1    0.0000
      6 N2         5.7447    5.7960   10.2802 N.2       1 RES1    0.0000
      7 C1         4.9503    5.2820   11.2814 C.2       1 RES1    0.0000
      8 C2         5.2652    4.0932   12.1270 C.3       1 RES1    0.0000
      9 H2         5.7239    4.4155   12.9549 H         1 RES1    0.0000
     10 C3         3.9257    3.4584   12.5423 C.3       1 RES1    0.0000
     11 H3         3.4963    3.0553   11.7469 H         1 RES1    0.0000
     12 H4         4.0961    2.7353   13.1972 H         1 RES1    0.0000
     13 C4         2.9814    4.4804   13.1592 C.3       1 RES1    0.0000
     14 H5         2.1066    4.0222   13.3165 H         1 RES1    0.0000
     15 C5         3.4744    4.9793   14.4966 C.2       1 RES1    0.0000
     16 C6         2.6835    6.8745   13.4138 C.2       1 RES1    0.0000
     17 C7         2.6896    5.7680   12.3549 C.3       1 RES1    0.0000
     18 H6         1.8028    5.7084   11.8969 H         1 RES1    0.0000
     19 C8         3.7840    5.9884   11.3666 C.2       1 RES1    0.0000
     20 C9         5.0480    6.7900    9.7653 C.2       1 RES1    0.0000
     21 H7         5.3466    7.3229    9.0386 H         1 RES1    0.0000
     22 C10        3.3887    7.0942   15.8059 C.ar      1 RES1    0.0000
     23 C11        4.0595    8.3056   15.7892 C.ar      1 RES1    0.0000
     24 H8         4.4059    8.6520   14.9746 H         1 RES1    0.0000
     25 C12        4.2193    9.0060   16.9743 C.ar      1 RES1    0.0000
     26 H9         4.6750    9.8393   16.9712 H         1 RES1    0.0000
     27 C13        3.7210    8.4996   18.1584 C.ar      1 RES1    0.0000
     28 H10        3.8338    8.9841   18.9678 H         1 RES1    0.0000
     29 C14        3.0629    7.2949   18.1626 C.ar      1 RES1    0.0000
     30 H11        2.7277    6.9455   18.9813 H         1 RES1    0.0000
     31 C15        2.8811    6.5809   16.9879 C.ar      1 RES1    0.0000
     32 H12        2.4158    5.7529   16.9943 H         1 RES1    0.0000
     33 N3         6.1782    3.1882   11.4276 N.3       1 RES1    0.0000
     34 C16        6.8373    2.1790   12.2066 C.ar      1 RES1    0.0000
     35 C17        6.2382    0.9631   12.4913 C.ar      1 RES1    0.0000
     36 H13        5.3576    0.7797   12.1855 H         1 RES1    0.0000
     37 C18        6.9370    0.0174   13.2261 C.ar      1 RES1    0.0000
     38 H14        6.5412   -0.8220   13.4300 H         1 RES1    0.0000
     39 C19        8.2032    0.3087   13.6550 C.ar      1 RES1    0.0000
     40 H15        8.6870   -0.3329   14.1609 H         1 RES1    0.0000
     41 C20        8.7929    1.5345   13.3569 C.ar      1 RES1    0.0000
     42 H16        9.6792    1.7073   13.6512 H         1 RES1    0.0000
     43 C21        8.1116    2.5127   12.6375 C.ar      1 RES1    0.0000
     44 C22        8.7597    3.8230   12.2932 C.3       1 RES1    0.0000
     45 H17        9.6705    3.8418   12.6548 H         1 RES1    0.0000
     46 H18        8.2381    4.5574   12.6798 H         1 RES1    0.0000
     47 H19        8.7943    3.9249   11.3199 H         1 RES1    0.0000
     48 N4         3.8633    6.9659   10.3853 N.pl3     1 RES1    0.0000
     49 C23        2.8379    7.9335    9.9734 C.3       1 RES1    0.0000
     50 H20        3.2664    8.8075    9.7945 H         1 RES1    0.0000
     51 H21        2.1917    8.0588   10.7140 H         1 RES1    0.0000
     52 C24        2.0985    7.4844    8.7424 C.ar      1 RES1    0.0000
     53 C25        1.7776    6.1650    8.5500 C.ar      1 RES1    0.0000
     54 H22        2.1019    5.5257    9.1752 H         1 RES1    0.0000
     55 C26        0.9864    5.7099    7.4632 C.ar      1 RES1    0.0000
     56 H23        0.7709    4.7913    7.3517 H         1 RES1    0.0000
     57 C27        0.5505    6.6692    6.5861 C.ar      1 RES1    0.0000
     58 H24        0.0241    6.4058    5.8417 H         1 RES1    0.0000
     59 C28        0.8528    7.9976    6.7515 C.ar      1 RES1    0.0000
     60 H25        0.5376    8.6445    6.1322 H         1 RES1    0.0000
     61 C29        1.6252    8.3803    7.8383 C.ar      1 RES1    0.0000
     62 H26        1.8297    9.3004    7.9537 H         1 RES1    0.0000
     63 C30        6.6860    2.2734   12.4952 Du        2 SUP2    0.0000
     64 C31        6.2944    0.9208   12.5625 Du        2 SUP2    0.0000
     65 C32        6.8694    0.0302   13.4435 Du        2 SUP2    0.0000
     66 C33        7.8883    0.4031   14.2783 Du        2 SUP2    0.0000
     67 C34        8.3345    1.7028   14.2109 Du        2 SUP2    0.0000
     68 C35        7.7744    2.6244   13.3319 Du        2 SUP2    0.0000
     69 C36        8.2916    4.0313   13.3473 Du        2 SUP2    0.0000
     70 C37        2.7816    7.7440    9.8061 Du        2 SUP2    0.0000
     71 C38        2.8618    8.0158   10.1235 Du        2 SUP2    0.0000
     72 C39        1.9006    6.9855    8.8751 Du        2 SUP2    0.0000
     73 C40        2.0220    7.7893    8.9001 Du        2 SUP2    0.0000
     74 C41        2.1005    5.6820    8.5116 Du        2 SUP2    0.0000
     75 C42        0.6937    7.4882    9.0136 Du        2 SUP2    0.0000
     76 C43        1.2896    5.0155    7.5979 Du        2 SUP2    0.0000
     77 C44       -0.1217    7.0798    7.9903 Du        2 SUP2    0.0000
     78 C45        0.2082    5.6495    7.0689 Du        2 SUP2    0.0000
     79 C46        0.4268    7.3440    6.7496 Du        2 SUP2    0.0000
     80 C47       -0.0091    6.9591    7.4344 Du        2 SUP2    0.0000
     81 C48        1.7570    7.6233    6.5207 Du        2 SUP2    0.0000
     82 C49        0.8928    7.6248    8.2480 Du        2 SUP2    0.0000
     83 C50        2.5513    7.8799    7.6441 Du        2 SUP2    0.0000
     84 H27        5.6122    0.6121   11.9797 Du        2 SUP2    0.0000
     85 H28        6.5504   -0.8620   13.4704 Du        2 SUP2    0.0000
     86 H29        8.2740   -0.2174   14.8861 Du        2 SUP2    0.0000
     87 H30        9.0452    1.9790   14.7784 Du        2 SUP2    0.0000
     88 H31        9.0420    4.0969   13.9743 Du        2 SUP2    0.0000
     89 H32        7.5756    4.6396   13.6281 Du        2 SUP2    0.0000
     90 H33        8.5965    4.2781   12.4490 Du        2 SUP2    0.0000
     91 H34        3.1731    8.5109    9.3156 Du        2 SUP2    0.0000
     92 H35        2.2272    8.1094   10.5389 Du        2 SUP2    0.0000
     93 H36        3.3303    8.8830   10.0292 Du        2 SUP2    0.0000
     94 H37        2.2633    8.0852   10.9083 Du        2 SUP2    0.0000
     95 H38        2.8270    5.2095    8.9001 Du        2 SUP2    0.0000
     96 H39        0.3003    7.5674    9.8753 Du        2 SUP2    0.0000
     97 H40        1.4884    4.1219    7.3459 Du        2 SUP2    0.0000
     98 H41       -0.9648    6.6624    8.1172 Du        2 SUP2    0.0000
     99 H42       -0.3747    5.2042    6.4669 Du        2 SUP2    0.0000
    100 H43       -0.1565    7.3380    5.9994 Du        2 SUP2    0.0000
    101 H44       -0.7867    7.4067    7.1247 Du        2 SUP2    0.0000
    102 H45        2.1196    7.6346    5.6417 Du        2 SUP2    0.0000
    103 H46        0.7977    8.5622    8.3692 Du        2 SUP2    0.0000
    104 H47        3.4635    8.1192    7.5306 Du        2 SUP2    0.0000
@<TRIPOS>BOND
     1    1   15 2
     2    2   16 2
     3    3    4 1
     4    5   15 1
     5    6    7 1
     6    7    8 1
     7    8    9 1
     8   10    8 1
     9   11   10 1
    10   12   10 1
    11   13   10 1
    12   14   13 1
    13   15   13 1
    14   16    5 1
    15   17   13 1
    16   18   17 1
    17   19    7 2
    18   20    6 2
    19   21   20 1
    20   22    5 1
    21   23   22 ar
    22   24   23 1
    23   25   23 ar
    24   26   25 1
    25   27   25 ar
    26   28   27 1
    27   29   27 ar
    28   30   29 1
    29   31   22 ar
    30   32   31 1
    31   33    3 1
    32   34   33 1
    33   35   34 ar
    34   36   35 1
    35   37   35 ar
    36   38   37 1
    37   39   37 ar
    38   40   39 1
    39   41   39 ar
    40   42   41 1
    41   43   34 ar
    42   44   43 1
    43   45   44 1
    44   46   44 1
    45   47   44 1
    46   48   19 1
    47   49   48 1
    48   50   49 1
    49   51   49 1
    50   52   49 1
    51   53   52 ar
    52   54   53 1
    53   55   53 ar
    54   56   55 1
    55   57   55 ar
    56   58   57 1
    57   59   57 ar
    58   60   59 1
    59   61   52 ar
    60   62   61 1
    61    8   33 1
    62   16   17 1
    63   17   19 1
    64   20   48 1
    65   29   31 ar
    66   41   43 ar
    67   59   61 ar
@<TRIPOS>SUBSTRUCTURE
     1 RES1 1
     2 SUP2 63

@<TRIPOS>CRYSIN
  17.0550    7.5478   19.5910  90.0000 100.9370  90.0000 231 1

