# MOL2 file generated by ConQuest
# Please check atom types

@<TRIPOS>MOLECULE
MEFTAT
    45    47     1
SMALL
USER_CHARGES
****
Generated from CSD

@<TRIPOS>ATOM
      1 O1         2.8496   -0.6228    4.8948 O.3       1 RES1    0.0000
      2 O2         2.2889    1.9008    5.9124 O.3       1 RES1    0.0000
      3 O3        -0.9225    1.1873    5.0394 O.3       1 RES1    0.0000
      4 N1         2.3014   -0.0178    3.6939 N.3       1 RES1    0.0000
      5 N2         2.9348    4.2317    4.2641 N.2       1 RES1    0.0000
      6 N3         3.9401    4.3816    4.9661 N.1       1 RES1    1.0000
      7 N4         4.8405    4.6788    5.6123 N.2       1 RES1   -1.0000
      8 C1         1.1638    0.8577    4.0096 C.3       1 RES1    0.0000
      9 C2         1.8503   -1.1816    5.7847 C.3       1 RES1    0.0000
     10 H1         2.2841   -1.5542    6.5678 H         1 RES1    0.0000
     11 H2         1.3759   -1.8976    5.3323 H         1 RES1    0.0000
     12 C3         0.8652   -0.1061    6.2107 C.3       1 RES1    0.0000
     13 C4         1.5195    1.1250    6.8838 C.3       1 RES1    0.0000
     14 C5         1.6554    2.1786    4.6470 C.3       1 RES1    0.0000
     15 C6         0.1263    0.2397    4.9128 C.3       1 RES1    0.0000
     16 H3        -0.2199   -0.5799    4.5041 H         1 RES1    0.0000
     17 C7         0.5095    2.0515    7.5450 C.3       1 RES1    0.0000
     18 H4        -0.1436    2.3268    6.8970 H         1 RES1    0.0000
     19 H5         0.9624    2.8233    7.8915 H         1 RES1    0.0000
     20 H6         0.0721    1.5874    8.2615 H         1 RES1    0.0000
     21 C8         2.5797    0.7451    7.8973 C.3       1 RES1    0.0000
     22 H7         2.9020    1.5364    8.3328 H         1 RES1    0.0000
     23 H8         3.3072    0.3070    7.4503 H         1 RES1    0.0000
     24 H9         2.2007    0.1515    8.5500 H         1 RES1    0.0000
     25 C9         2.6655    2.8768    3.7951 C.3       1 RES1    0.0000
     26 H10        3.4920    2.3681    3.7981 H         1 RES1    0.0000
     27 H11        2.3419    2.9140    2.8817 H         1 RES1    0.0000
     28 C10        1.9784   -1.0464    2.7262 C.3       1 RES1    0.0000
     29 H12        1.0684   -1.3517    2.8647 H         1 RES1    0.0000
     30 H13        2.5731   -1.8036    2.8443 H         1 RES1    0.0000
     31 C11        2.1250   -0.4932    1.3183 C.ar      1 RES1    0.0000
     32 C12        1.1644   -0.8131    0.3666 C.ar      1 RES1    0.0000
     33 H14        0.4219   -1.3218    0.6008 H         1 RES1    0.0000
     34 C13        1.3277   -0.3588   -0.9568 C.ar      1 RES1    0.0000
     35 H15        0.7002   -0.5783   -1.6089 H         1 RES1    0.0000
     36 C14        2.4295    0.4171   -1.2830 C.ar      1 RES1    0.0000
     37 H16        2.5338    0.7216   -2.1553 H         1 RES1    0.0000
     38 C15        3.3764    0.7427   -0.3292 C.ar      1 RES1    0.0000
     39 H17        4.1135    1.2659   -0.5465 H         1 RES1    0.0000
     40 C16        3.1964    0.2713    0.9511 C.ar      1 RES1    0.0000
     41 H18        3.8328    0.4819    1.5953 H         1 RES1    0.0000
     42 H19       -1.8532    0.6236    5.3628 H         1 RES1    0.0000
     43 H20        0.8164    1.0286    3.2584 H         1 RES1    0.0000
     44 H21        0.2145   -0.5426    6.8665 H         1 RES1    0.0000
     45 H22        0.8581    2.7294    4.7553 H         1 RES1    0.0000
@<TRIPOS>BOND
     1    1    4 1
     2    2   13 1
     3    3   15 1
     4    4    8 1
     5    5    6 2
     6    6    7 2
     7    8   14 1
     8    9    1 1
     9   10    9 1
    10   11    9 1
    11   12    9 1
    12   13   12 1
    13   14    2 1
    14   15    8 1
    15   16   15 1
    16   17   13 1
    17   18   17 1
    18   19   17 1
    19   20   17 1
    20   21   13 1
    21   22   21 1
    22   23   21 1
    23   24   21 1
    24   25    5 1
    25   26   25 1
    26   27   25 1
    27   28    4 1
    28   29   28 1
    29   30   28 1
    30   31   28 1
    31   32   31 ar
    32   33   32 1
    33   34   32 ar
    34   35   34 1
    35   36   34 ar
    36   37   36 1
    37   38   36 ar
    38   39   38 1
    39   40   31 ar
    40   41   40 1
    41   42    3 1
    42   43    8 1
    43   44   12 1
    44   45   14 1
    45   12   15 1
    46   14   25 1
    47   38   40 ar
@<TRIPOS>SUBSTRUCTURE
     1 RES1 1

@<TRIPOS>CRYSIN
   5.9590    8.0990   33.9420  90.0000  90.0000  90.0000  19 1

