# MOL2 file generated by ConQuest
# Please check atom types

@<TRIPOS>MOLECULE
MEGDOS
    16    16     1
SMALL
USER_CHARGES
****
Generated from CSD

@<TRIPOS>ATOM
      1 O1         8.5465    0.0823    6.9493 O.2       1 RES1   -1.0000
      2 O2        12.1503    1.0885    5.2730 O.2       1 RES1    0.0000
      3 N1         8.6192    0.6725    5.7805 N.pl3     1 RES1    1.0000
      4 N2        11.1400    0.0889    7.0094 N.am      1 RES1    0.0000
      5 H1        10.2744   -0.1470    7.3078 H         1 RES1    0.0000
      6 H2        11.8699   -0.2278    7.3012 H         1 RES1    0.0000
      7 C1         9.8074    1.0400    5.2222 C.ar      1 RES1    0.0000
      8 C2         9.7940    1.6529    3.9890 C.ar      1 RES1    0.0000
      9 H3        10.6017    1.9087    3.6042 H         1 RES1    0.0000
     10 C3         8.6277    1.8984    3.3122 C.ar      1 RES1    0.0000
     11 H4         8.6336    2.3159    2.4813 H         1 RES1    0.0000
     12 C4         7.4549    1.5103    3.8989 C.ar      1 RES1    0.0000
     13 H5         6.6486    1.6595    3.4615 H         1 RES1    0.0000
     14 C5         7.4598    0.9069    5.1194 C.ar      1 RES1    0.0000
     15 H6         6.6537    0.6504    5.5057 H         1 RES1    0.0000
     16 C6        11.1358    0.7408    5.8649 C.2       1 RES1    0.0000
@<TRIPOS>BOND
     1    1    3 1
     2    2   16 2
     3    3    7 ar
     4    4    5 1
     5    6    4 1
     6    7    8 ar
     7    8    9 1
     8   10    8 ar
     9   11   10 1
    10   12   10 ar
    11   13   12 1
    12   14    3 ar
    13   15   14 1
    14   16    4 1
    15    7   16 1
    16   12   14 ar
@<TRIPOS>SUBSTRUCTURE
     1 RES1 1

@<TRIPOS>CRYSIN
  12.9400    7.3496   13.0870  90.0000  90.0000  90.0000  61 1

