# MOL2 file generated by ConQuest
# Please check atom types

@<TRIPOS>MOLECULE
MEGDEI
    16    16     1
SMALL
USER_CHARGES
****
Generated from CSD

@<TRIPOS>ATOM
      1 O1         7.0826    0.6533    5.8414 O.2       1 RES1   -1.0000
      2 O2         6.5034    1.7594   11.5323 O.2       1 RES1    0.0000
      3 N1         6.4914    1.2421    6.8680 N.pl3     1 RES1    1.0000
      4 N2         8.5169    1.8917   10.5056 N.am      1 RES1    0.0000
      5 H1         8.9151    1.8140   11.2662 H         1 RES1    0.0000
      6 H2         8.9673    2.0499    9.7709 H         1 RES1    0.0000
      7 C1         7.1285    1.2794    8.0602 C.ar      1 RES1    0.0000
      8 H3         8.0038    0.9188    8.1400 H         1 RES1    0.0000
      9 C2         6.5128    1.8394    9.1625 C.ar      1 RES1    0.0000
     10 C3         5.2283    2.3633    9.0454 C.ar      1 RES1    0.0000
     11 H4         4.7819    2.7279    9.8005 H         1 RES1    0.0000
     12 C4         4.6146    2.3423    7.8038 C.ar      1 RES1    0.0000
     13 H5         3.7485    2.7184    7.6985 H         1 RES1    0.0000
     14 C5         5.2514    1.7804    6.7239 C.ar      1 RES1    0.0000
     15 H6         4.8242    1.7679    5.8758 H         1 RES1    0.0000
     16 C6         7.1851    1.8320   10.5136 C.2       1 RES1    0.0000
@<TRIPOS>BOND
     1    1    3 1
     2    2   16 2
     3    3    7 ar
     4    4    5 1
     5    6    4 1
     6    7    8 1
     7    9    7 ar
     8   10    9 ar
     9   11   10 1
    10   12   10 ar
    11   13   12 1
    12   14    3 ar
    13   15   14 1
    14   16    4 1
    15    9   16 1
    16   12   14 ar
@<TRIPOS>SUBSTRUCTURE
     1 RES1 1

@<TRIPOS>CRYSIN
  11.0498    3.6869   15.0190  90.0000 110.0640  90.0000 231 1

