# MOL2 file generated by ConQuest
# Please check atom types

@<TRIPOS>MOLECULE
MEGDAE
    16    16     1
SMALL
USER_CHARGES
****
Generated from CSD

@<TRIPOS>ATOM
      1 O1         4.6003    6.2654    1.0714 O.2       1 RES1   -1.0000
      2 O2        -0.7420    8.0120    3.7852 O.2       1 RES1    0.0000
      3 N1         3.5930    6.8632    1.6618 N.pl3     1 RES1    1.0000
      4 N2         0.1858   10.0586    3.6473 N.am      1 RES1    0.0000
      5 C1         3.5849    8.2230    1.8080 C.ar      1 RES1    0.0000
      6 H1         4.3350    8.7317    1.5232 H         1 RES1    0.0000
      7 C2         2.5116    8.8501    2.3577 C.ar      1 RES1    0.0000
      8 H2         2.5089    9.7984    2.4212 H         1 RES1    0.0000
      9 C3         1.4275    8.1374    2.8252 C.ar      1 RES1    0.0000
     10 C4         1.4719    6.7460    2.7209 C.ar      1 RES1    0.0000
     11 H3         0.7542    6.2220    3.0550 H         1 RES1    0.0000
     12 C5         2.5480    6.1388    2.1398 C.ar      1 RES1    0.0000
     13 H4         2.5655    5.1917    2.0681 H         1 RES1    0.0000
     14 C6         0.1885    8.7388    3.4642 C.2       1 RES1    0.0000
     15 H5        -0.5521   10.4326    3.8902 H         1 RES1    0.0000
     16 H6         0.8619   10.5264    3.4754 H         1 RES1    0.0000
@<TRIPOS>BOND
     1    1    3 1
     2    2   14 2
     3    3    5 ar
     4    4   14 1
     5    5    6 1
     6    7    5 ar
     7    8    7 1
     8    9    7 ar
     9   10    9 ar
    10   11   10 1
    11   12    3 ar
    12   13   12 1
    13   14    9 1
    14   15    4 1
    15   16    4 1
    16   10   12 ar
@<TRIPOS>SUBSTRUCTURE
     1 RES1 1

@<TRIPOS>CRYSIN
  13.4670   11.7220    3.7370  90.0000  90.0000  90.0000  33 1

