# MOL2 file generated by ConQuest
# Please check atom types

@<TRIPOS>MOLECULE
MEGMIV
    39    40     1
SMALL
NO_CHARGES
****
Generated from CSD

@<TRIPOS>ATOM
      1 C1         0.5722    1.7933    4.8704 C.3       1 RES1    0.0000
      2 H1         0.0579    2.0371    5.6557 H         1 RES1    0.0000
      3 H2         0.3617    0.8781    4.6262 H         1 RES1    0.0000
      4 C2         0.2928    2.7474    3.7150 C.3       1 RES1    0.0000
      5 H3        -0.4786    2.4618    3.1827 H         1 RES1    0.0000
      6 C3         1.5892    2.6788    2.9209 C.3       1 RES1    0.0000
      7 H4         1.6314    1.8674    2.3898 H         1 RES1    0.0000
      8 H5         1.6809    3.4456    2.3350 H         1 RES1    0.0000
      9 C4         2.6533    2.6815    3.9964 C.3       1 RES1    0.0000
     10 H6         3.4538    2.2235    3.6974 H         1 RES1    0.0000
     11 H7         2.8849    3.5875    4.2560 H         1 RES1    0.0000
     12 C5         2.6135    1.5948    6.2274 C.2       1 RES1    0.0000
     13 C6         4.0654    1.9555    6.3676 C.3       1 RES1    0.0000
     14 H8         4.1519    2.9087    6.4486 H         1 RES1    0.0000
     15 H9         4.5462    1.6551    5.5922 H         1 RES1    0.0000
     16 H10        4.4260    1.5336    7.1506 H         1 RES1    0.0000
     17 C7         2.3721    0.7251    8.3696 C.2       1 RES1    0.0000
     18 C8         2.1145   -0.7399   10.2391 C.3       1 RES1    0.0000
     19 H11        2.7936   -0.1428   10.5896 H         1 RES1    0.0000
     20 H12        2.4394   -1.6495   10.3322 H         1 RES1    0.0000
     21 C9         0.8511   -0.5795   11.0387 C.ar      1 RES1    0.0000
     22 C10        0.7917   -1.1405   12.3102 C.ar      1 RES1    0.0000
     23 H13        1.5179   -1.6236   12.6333 H         1 RES1    0.0000
     24 C11       -0.3330   -0.9894   13.0998 C.ar      1 RES1    0.0000
     25 H14       -0.3729   -1.3630   13.9508 H         1 RES1    0.0000
     26 C12       -1.3945   -0.2717   12.5939 C.ar      1 RES1    0.0000
     27 C13       -1.3699    0.2717   11.3289 C.ar      1 RES1    0.0000
     28 H15       -2.1081    0.7316   10.9981 H         1 RES1    0.0000
     29 C14       -0.2373    0.1233   10.5579 C.ar      1 RES1    0.0000
     30 H16       -0.2046    0.4988    9.7080 H         1 RES1    0.0000
     31 N1         2.0097    1.9583    5.1083 N.pl3     1 RES1    0.0000
     32 N2         1.9246    0.8781    7.0954 N.2       1 RES1    0.0000
     33 N3        -2.5795   -0.0621   13.4383 N.pl3     1 RES1    0.0000
     34 O1         0.1620    4.0835    4.1618 O.3       1 RES1    0.0000
     35 H17       -0.5865    4.1929    4.4794 H         1 RES1    0.0000
     36 O2         3.0180    1.4752    9.0616 O.2       1 RES1    0.0000
     37 O3         1.9026   -0.4525    8.8509 O.3       1 RES1    0.0000
     38 O4        -2.5073   -0.3653   14.6189 O.2       1 RES1    0.0000
     39 O5        -3.5744    0.4284   12.9246 O.2       1 RES1    0.0000
@<TRIPOS>BOND
     1    1    2 1
     2    3    1 1
     3    4    1 1
     4    5    4 1
     5    6    4 1
     6    7    6 1
     7    8    6 1
     8    9    6 1
     9   10    9 1
    10   11    9 1
    11   12   13 1
    12   13   14 1
    13   15   13 1
    14   16   13 1
    15   17   32 1
    16   18   19 1
    17   20   18 1
    18   21   18 1
    19   22   21 ar
    20   23   22 1
    21   24   22 ar
    22   25   24 1
    23   26   24 ar
    24   27   26 ar
    25   28   27 1
    26   29   21 ar
    27   30   29 1
    28   31    1 1
    29   32   12 2
    30   33   26 1
    31   34    4 1
    32   35   34 1
    33   36   17 2
    34   37   17 1
    35   38   33 2
    36   39   33 2
    37    9   31 1
    38   12   31 1
    39   18   37 1
    40   27   29 ar
@<TRIPOS>SUBSTRUCTURE
     1 RES1 1

@<TRIPOS>CRYSIN
   7.2123    9.2723   10.9592  90.0000  92.0580  90.0000   4 1

