# MOL2 file generated by ConQuest
# Please check atom types

@<TRIPOS>MOLECULE
MEGQEU
    30    32     1
SMALL
NO_CHARGES
****
Generated from CSD

@<TRIPOS>ATOM
      1 O1        -1.2347    5.3864    4.2185 O.3       1 RES1    0.0000
      2 C1         0.9156    5.3847    3.9190 C.2       1 RES1    0.0000
      3 C2         0.3217    5.3972    2.6178 C.2       1 RES1    0.0000
      4 N1         0.0085    5.3774    4.8684 N.2       1 RES1    0.0000
      5 C3        -1.0110    5.3912    2.8704 C.2       1 RES1    0.0000
      6 C4        -2.2173    5.3761    2.0426 C.ar      1 RES1    0.0000
      7 C5        -2.1649    4.9890    0.7012 C.ar      1 RES1    0.0000
      8 H1        -1.3254    4.7681    0.2908 H         1 RES1    0.0000
      9 C6        -3.3413    4.9446   -0.0184 C.ar      1 RES1    0.0000
     10 H2        -3.2964    4.6635   -0.9360 H         1 RES1    0.0000
     11 N2        -4.5421    5.2475    0.4691 N.ar      1 RES1    0.0000
     12 C7        -4.5754    5.6300    1.7455 C.ar      1 RES1    0.0000
     13 H3        -5.4287    5.8663    2.1169 H         1 RES1    0.0000
     14 C8        -3.4594    5.7084    2.5605 C.ar      1 RES1    0.0000
     15 H4        -3.5444    5.9967    3.4725 H         1 RES1    0.0000
     16 C9         2.3481    5.3641    4.2755 C.ar      1 RES1    0.0000
     17 C10        3.2265    4.5220    3.5892 C.ar      1 RES1    0.0000
     18 H5         2.8965    3.9739    2.8739 H         1 RES1    0.0000
     19 C11        4.5642    4.4800    3.9487 C.ar      1 RES1    0.0000
     20 H6         5.1665    3.8994    3.4789 H         1 RES1    0.0000
     21 C12        5.0347    5.2656    4.9703 C.ar      1 RES1    0.0000
     22 H7         5.9651    5.2426    5.2045 H         1 RES1    0.0000
     23 C13        4.1744    6.0945    5.6644 C.ar      1 RES1    0.0000
     24 H8         4.5091    6.6347    6.3832 H         1 RES1    0.0000
     25 C14        2.8379    6.1448    5.3184 C.ar      1 RES1    0.0000
     26 H9         2.2391    6.7164    5.8038 H         1 RES1    0.0000
     27 C15        1.0390    5.4928    1.3011 C.3       1 RES1    0.0000
     28 H10        1.1653    4.6018    0.9396 H         1 RES1    0.0000
     29 H11        1.9033    5.9107    1.4405 H         1 RES1    0.0000
     30 H12        0.5197    6.0239    0.6771 H         1 RES1    0.0000
@<TRIPOS>BOND
     1    1    4 1
     2    2    3 1
     3    3    5 2
     4    4    2 2
     5    5    1 1
     6    6    5 1
     7    7    6 ar
     8    8    7 1
     9    9    7 ar
    10   10    9 1
    11   11    9 ar
    12   12   11 ar
    13   13   12 1
    14   14    6 ar
    15   15   14 1
    16   16    2 1
    17   17   16 ar
    18   18   17 1
    19   19   17 ar
    20   20   19 1
    21   21   19 ar
    22   22   21 1
    23   23   21 ar
    24   24   23 1
    25   25   16 ar
    26   26   25 1
    27   27    3 1
    28   28   27 1
    29   29   27 1
    30   30   27 1
    31   12   14 ar
    32   23   25 ar
@<TRIPOS>SUBSTRUCTURE
     1 RES1 1

@<TRIPOS>CRYSIN
  11.8661   14.3359    7.0752  90.0000  90.0000  90.0000  30 1

