# MOL2 file generated by ConQuest
# Please check atom types

@<TRIPOS>MOLECULE
MEGSIB
    56    61     1
SMALL
NO_CHARGES
****
Generated from CSD

@<TRIPOS>ATOM
      1 N1        10.4373    0.8474    3.9263 N.pl3     1 RES1    0.0000
      2 O1        10.4742   -0.1482    4.6090 O.2       1 RES1    0.0000
      3 O2         9.8429    0.9222    2.8894 O.2       1 RES1    0.0000
      4 N2        14.5707    3.0602    4.3332 N.3       1 RES1    0.0000
      5 C1        12.5895    4.2234    5.3542 C.ar      1 RES1    0.0000
      6 H1        13.0659    4.9587    5.6638 H         1 RES1    0.0000
      7 C2        11.2243    4.1237    5.5526 C.ar      1 RES1    0.0000
      8 H2        10.7871    4.8064    6.0091 H         1 RES1    0.0000
      9 C3        10.4730    3.0298    5.0902 C.ar      1 RES1    0.0000
     10 C4        11.1718    2.0189    4.4155 C.ar      1 RES1    0.0000
     11 C5        12.5359    2.0715    4.1734 C.ar      1 RES1    0.0000
     12 C6        13.5070    1.2421    3.4689 C.ar      1 RES1    0.0000
     13 C7        13.4385    0.0706    2.7029 C.ar      1 RES1    0.0000
     14 H3        12.6260   -0.3628    2.5769 H         1 RES1    0.0000
     15 C8        14.5885   -0.4265    2.1403 C.ar      1 RES1    0.0000
     16 H4        14.5574   -1.2061    1.6342 H         1 RES1    0.0000
     17 C9        15.8089    0.2340    2.3268 C.ar      1 RES1    0.0000
     18 H5        16.5756   -0.1260    1.9448 H         1 RES1    0.0000
     19 C10       15.9107    1.3709    3.0363 C.ar      1 RES1    0.0000
     20 H6        16.7331    1.7918    3.1464 H         1 RES1    0.0000
     21 C11       14.7443    1.9068    3.6078 C.ar      1 RES1    0.0000
     22 C12       13.2264    3.1849    4.6765 C.ar      1 RES1    0.0000
     23 C13       15.6162    4.0143    4.7013 C.3       1 RES1    0.0000
     24 H7        15.2365    4.9074    4.7291 H         1 RES1    0.0000
     25 H8        16.3069    4.0060    4.0206 H         1 RES1    0.0000
     26 C14       16.2360    3.7027    6.0359 C.3       1 RES1    0.0000
     27 H9        16.9206    4.3466    6.2303 H         1 RES1    0.0000
     28 H10       16.6221    2.8234    6.0121 H         1 RES1    0.0000
     29 H11       15.5615    3.7360    6.7185 H         1 RES1    0.0000
     30 N3         4.9043    3.0699    5.9168 N.3       1 RES1    0.0000
     31 C15        6.8906    4.1832    4.8809 C.ar      1 RES1    0.0000
     32 H12        6.4168    4.8853    4.4939 H         1 RES1    0.0000
     33 C16        8.2500    4.0960    4.7529 C.ar      1 RES1    0.0000
     34 H13        8.6970    4.7717    4.2974 H         1 RES1    0.0000
     35 C17        9.0037    3.0228    5.2837 C.ar      1 RES1    0.0000
     36 C18        8.3421    2.0369    5.9734 C.ar      1 RES1    0.0000
     37 H14        8.8195    1.3238    6.3316 H         1 RES1    0.0000
     38 C19        6.9610    2.1006    6.1410 C.ar      1 RES1    0.0000
     39 C20        5.9966    1.2809    6.8336 C.ar      1 RES1    0.0000
     40 C21        6.0798    0.1135    7.5917 C.ar      1 RES1    0.0000
     41 H15        6.8988   -0.3088    7.7167 H         1 RES1    0.0000
     42 C22        4.9298   -0.4043    8.1553 C.ar      1 RES1    0.0000
     43 H16        4.9866   -1.1659    8.6872 H         1 RES1    0.0000
     44 C23        3.7032    0.1786    7.9469 C.ar      1 RES1    0.0000
     45 H17        2.9432   -0.2105    8.3141 H         1 RES1    0.0000
     46 C24        3.5809    1.3584    7.1869 C.ar      1 RES1    0.0000
     47 H18        2.7540    1.7600    7.0490 H         1 RES1    0.0000
     48 C25        4.7387    1.8929    6.6540 C.ar      1 RES1    0.0000
     49 C26        6.2367    3.1973    5.6042 C.ar      1 RES1    0.0000
     50 C27        3.8657    3.9963    5.5129 C.3       1 RES1    0.0000
     51 H19        4.2307    4.8950    5.4951 H         1 RES1    0.0000
     52 H20        3.1509    3.9783    6.1688 H         1 RES1    0.0000
     53 C28        3.2888    3.6640    4.1347 C.3       1 RES1    0.0000
     54 H21        2.5964    4.2912    3.9184 H         1 RES1    0.0000
     55 H22        2.9256    2.7750    4.1466 H         1 RES1    0.0000
     56 H23        3.9858    3.7166    3.4759 H         1 RES1    0.0000
@<TRIPOS>BOND
     1    1    2 2
     2    3    1 2
     3    4   21 1
     4    5    6 1
     5    7    5 ar
     6    8    7 1
     7    9    7 ar
     8   10    1 1
     9   11   10 ar
    10   12   11 1
    11   13   12 ar
    12   14   13 1
    13   15   13 ar
    14   16   15 1
    15   17   15 ar
    16   18   17 1
    17   19   17 ar
    18   20   19 1
    19   21   12 ar
    20   22    4 1
    21   23    4 1
    22   24   23 1
    23   25   23 1
    24   26   23 1
    25   27   26 1
    26   28   26 1
    27   29   26 1
    28   30   48 1
    29   31   32 1
    30   33   31 ar
    31   34   33 1
    32   35    9 1
    33   36   35 ar
    34   37   36 1
    35   38   36 ar
    36   39   38 1
    37   40   39 ar
    38   41   40 1
    39   42   40 ar
    40   43   42 1
    41   44   42 ar
    42   45   44 1
    43   46   44 ar
    44   47   46 1
    45   48   39 ar
    46   49   30 1
    47   50   30 1
    48   51   50 1
    49   52   50 1
    50   53   50 1
    51   54   53 1
    52   55   53 1
    53   56   53 1
    54    5   22 ar
    55    9   10 ar
    56   11   22 ar
    57   19   21 ar
    58   31   49 ar
    59   33   35 ar
    60   38   49 ar
    61   46   48 ar
@<TRIPOS>SUBSTRUCTURE
     1 RES1 1

@<TRIPOS>CRYSIN
  16.2810   13.8472    9.9233  90.0000  90.7210  90.0000   9 1

