# MOL2 file generated by ConQuest
# Please check atom types

@<TRIPOS>MOLECULE
MEKJUJ
    38    39     1
SMALL
NO_CHARGES
****
Generated from CSD

@<TRIPOS>ATOM
      1 C1         6.0895    5.8528    4.7612 C.2       1 RES1    0.0000
      2 C2         6.3252    7.1925    6.8041 C.2       1 RES1    0.0000
      3 C3         4.8658    7.3256    6.8423 C.2       1 RES1    0.0000
      4 C4         4.0428    6.7347    5.9459 C.2       1 RES1    0.0000
      5 C5         4.6215    5.9313    4.9149 C.2       1 RES1    0.0000
      6 C6         8.3200    6.3763    5.5981 C.3       1 RES1    0.0000
      7 H1         8.5811    6.4781    4.6591 H         1 RES1    0.0000
      8 H2         8.6115    5.4992    5.9246 H         1 RES1    0.0000
      9 H3         8.7431    7.0811    6.1321 H         1 RES1    0.0000
     10 C7         4.3403    8.1169    7.9114 C.1       1 RES1    0.0000
     11 C8         2.5473    6.9047    5.9908 C.3       1 RES1    0.0000
     12 H4         2.3069    7.4908    6.7380 H         1 RES1    0.0000
     13 H5         2.1229    6.0300    6.1108 H         1 RES1    0.0000
     14 H6         2.2394    7.3047    5.1505 H         1 RES1    0.0000
     15 C9         3.3131    3.8901    2.3111 C.ar      1 RES1    0.0000
     16 C10        3.6942    3.2046    1.1510 C.ar      1 RES1    0.0000
     17 C11        2.7738    2.6241    0.2827 C.ar      1 RES1    0.0000
     18 H7         3.0612    2.1695   -0.5004 H         1 RES1    0.0000
     19 C12        1.4224    2.7260    0.5923 C.ar      1 RES1    0.0000
     20 C13        1.0257    3.3369    1.7726 C.ar      1 RES1    0.0000
     21 H8         0.1029    3.3609    2.0003 H         1 RES1    0.0000
     22 C14        1.9407    3.9045    2.6140 C.ar      1 RES1    0.0000
     23 H9         1.6437    4.3158    3.4172 H         1 RES1    0.0000
     24 C15        0.7965    1.7149   -1.4741 C.3       1 RES1    0.0000
     25 H10        1.4057    0.9573   -1.3496 H         1 RES1    0.0000
     26 H11        1.2420    2.4085   -2.0025 H         1 RES1    0.0000
     27 H12       -0.0101    1.4119   -1.9431 H         1 RES1    0.0000
     28 N1         6.8519    6.4838    5.7159 N.am      1 RES1    0.0000
     29 N2         3.8845    8.7431    8.7663 N.1       1 RES1    0.0000
     30 N3         3.7753    5.2891    4.1229 N.2       1 RES1    0.0000
     31 N4         4.2259    4.5355    3.1457 N.3       1 RES1    0.0000
     32 H13        5.0913    4.4385    3.0190 H         1 RES1    0.0000
     33 N5         5.1022    3.0274    0.7808 N.pl3     1 RES1    0.0000
     34 O1         6.6251    5.2418    3.8402 O.2       1 RES1    0.0000
     35 O2         7.0492    7.6872    7.6433 O.2       1 RES1    0.0000
     36 O3         5.9732    3.6039    1.4506 O.2       1 RES1    0.0000
     37 O4         5.3738    2.3155   -0.1571 O.2       1 RES1    0.0000
     38 O5         0.4295    2.2513   -0.1907 O.3       1 RES1    0.0000
@<TRIPOS>BOND
     1    1    5 1
     2    2    3 1
     3    3    4 2
     4    4    5 1
     5    5   30 2
     6    6    7 1
     7    8    6 1
     8    9    6 1
     9   10    3 1
    10   11    4 1
    11   12   11 1
    12   13   11 1
    13   14   11 1
    14   15   16 ar
    15   16   17 ar
    16   17   18 1
    17   19   17 ar
    18   20   19 ar
    19   21   20 1
    20   22   15 ar
    21   23   22 1
    22   24   25 1
    23   26   24 1
    24   27   24 1
    25   28    1 1
    26   29   10 3
    27   30   31 1
    28   31   15 1
    29   32   31 1
    30   33   16 1
    31   34    1 2
    32   35    2 2
    33   36   33 2
    34   37   33 2
    35   38   19 1
    36    2   28 1
    37    6   28 1
    38   20   22 ar
    39   24   38 1
@<TRIPOS>SUBSTRUCTURE
     1 RES1 1

@<TRIPOS>CRYSIN
  16.8753    8.0175   11.2187  90.0000  90.0000  90.0000  29 1

