# MOL2 file generated by ConQuest
# Please check atom types

@<TRIPOS>MOLECULE
MEKKAQ
    41    42     1
SMALL
NO_CHARGES
****
Generated from CSD

@<TRIPOS>ATOM
      1 C1        -1.0681    5.0630    6.9458 C.2       1 RES1    0.0000
      2 C2        -2.8560    6.5274    6.1384 C.2       1 RES1    0.0000
      3 C3        -3.5270    5.3462    5.5965 C.2       1 RES1    0.0000
      4 C4        -3.0312    4.0886    5.6745 C.2       1 RES1    0.0000
      5 C5        -1.7796    3.9111    6.3786 C.2       1 RES1    0.0000
      6 C6         0.1395    1.0635    7.2790 C.ar      1 RES1    0.0000
      7 C7        -0.7077    0.0437    6.8384 C.ar      1 RES1    0.0000
      8 H1        -1.5329    0.2682    6.4253 H         1 RES1    0.0000
      9 C8        -0.3697   -1.2719    6.9929 C.ar      1 RES1    0.0000
     10 H2        -0.9660   -1.9463    6.6890 H         1 RES1    0.0000
     11 C9         0.8349   -1.6405    7.5870 C.ar      1 RES1    0.0000
     12 C10        1.7009   -0.6601    8.0272 C.ar      1 RES1    0.0000
     13 H3         2.5279   -0.8953    8.4315 H         1 RES1    0.0000
     14 C11        1.3510    0.6734    7.8720 C.ar      1 RES1    0.0000
     15 C12        2.3432   -3.4075    8.1497 C.3       1 RES1    0.0000
     16 H4         3.0489   -3.0244    7.5876 H         1 RES1    0.0000
     17 H5         2.3927   -4.3856    8.1169 H         1 RES1    0.0000
     18 H6         2.4625   -3.1057    9.0738 H         1 RES1    0.0000
     19 C13       -3.7137    2.9138    5.0483 C.3       1 RES1    0.0000
     20 H7        -4.6736    3.0962    4.9711 H         1 RES1    0.0000
     21 H8        -3.5770    2.1210    5.6078 H         1 RES1    0.0000
     22 H9        -3.3384    2.7549    4.1573 H         1 RES1    0.0000
     23 C14       -4.7809    5.6022    4.9266 C.1       1 RES1    0.0000
     24 C15       -0.8657    7.4903    7.2590 C.3       1 RES1    0.0000
     25 H10       -1.1414    8.2918    6.7474 H         1 RES1    0.0000
     26 H11        0.0993    7.3424    7.0959 H         1 RES1    0.0000
     27 C16       -1.0833    7.7449    8.7268 C.3       1 RES1    0.0000
     28 H12       -2.0349    7.9099    8.8930 H         1 RES1    0.0000
     29 H13       -0.5626    8.5275    9.0041 H         1 RES1    0.0000
     30 H14       -0.7935    6.9618    9.2415 H         1 RES1    0.0000
     31 N1        -1.6267    6.3152    6.7687 N.am      1 RES1    0.0000
     32 N2        -5.7719    5.7664    4.3873 N.1       1 RES1    0.0000
     33 N3        -1.3549    2.6634    6.4843 N.2       1 RES1    0.0000
     34 N4        -0.2389    2.3995    7.1229 N.3       1 RES1    0.0000
     35 H15        0.2599    3.0488    7.4444 H         1 RES1    0.0000
     36 N5         2.3152    1.6523    8.3620 N.pl3     1 RES1    0.0000
     37 O1        -0.0106    4.9420    7.5606 O.2       1 RES1    0.0000
     38 O2        -3.3228    7.6467    6.0414 O.2       1 RES1    0.0000
     39 O3         2.0202    2.8462    8.3706 O.2       1 RES1    0.0000
     40 O4         3.4119    1.2528    8.7336 O.2       1 RES1    0.0000
     41 O5         1.0678   -2.9791    7.6699 O.3       1 RES1    0.0000
@<TRIPOS>BOND
     1    1    5 1
     2    2    3 1
     3    3    4 2
     4    4    5 1
     5    5   33 2
     6    6    7 ar
     7    7    8 1
     8    9    7 ar
     9   10    9 1
    10   11    9 ar
    11   12   11 ar
    12   13   12 1
    13   14    6 ar
    14   15   16 1
    15   17   15 1
    16   18   15 1
    17   19    4 1
    18   20   19 1
    19   21   19 1
    20   22   19 1
    21   23    3 1
    22   24   25 1
    23   26   24 1
    24   27   24 1
    25   28   27 1
    26   29   27 1
    27   30   27 1
    28   31    1 1
    29   32   23 3
    30   33   34 1
    31   34    6 1
    32   35   34 1
    33   36   14 1
    34   37    1 2
    35   38    2 2
    36   39   36 2
    37   40   36 2
    38   41   11 1
    39    2   31 1
    40   12   14 ar
    41   15   41 1
    42   24   31 1
@<TRIPOS>SUBSTRUCTURE
     1 RES1 1

@<TRIPOS>CRYSIN
   6.4252   13.5443   19.5352  90.0000 105.3640  90.0000  14 1

