# MOL2 file generated by ConQuest
# Please check atom types

@<TRIPOS>MOLECULE
MELSAY
    46    48     1
SMALL
NO_CHARGES
****
Generated from CSD

@<TRIPOS>ATOM
      1 O1         0.0981   -0.1480    9.8592 O.3       1 RES1    0.0000
      2 O2         2.1276    3.7816    8.6631 O.2       1 RES1    0.0000
      3 N1         1.0085    0.8770   10.3413 N.3       1 RES1    0.0000
      4 N2         2.9116    1.7837    9.4266 N.am      1 RES1    0.0000
      5 C1         2.4310    0.5090    9.9730 C.3       1 RES1    0.0000
      6 C2         1.9613    2.6705    9.1751 C.2       1 RES1    0.0000
      7 C3         0.6418    2.1136    9.6287 C.3       1 RES1    0.0000
      8 C4        -0.2187    1.6243    8.5045 C.2       1 RES1    0.0000
      9 C5        -0.5047    0.3638    8.7125 C.2       1 RES1    0.0000
     10 C6         3.1360    0.0917   11.3053 C.3       1 RES1    0.0000
     11 C7         3.1759    1.2817   12.2574 C.3       1 RES1    0.0000
     12 C8         2.5416   -0.5626    8.9012 C.3       1 RES1    0.0000
     13 C9         4.2800    2.0445    9.0045 C.3       1 RES1    0.0000
     14 C10       -0.0890    3.1091   10.5254 C.3       1 RES1    0.0000
     15 C11       -1.3693   -0.5866    7.9955 C.ar      1 RES1    0.0000
     16 C12       -1.4666   -1.9077    8.3967 C.ar      1 RES1    0.0000
     17 C13       -2.2681   -2.7847    7.6961 C.ar      1 RES1    0.0000
     18 C14       -2.9573   -2.3744    6.6063 C.ar      1 RES1    0.0000
     19 C15       -2.8708   -1.0660    6.1886 C.ar      1 RES1    0.0000
     20 C16       -2.0843   -0.1748    6.8832 C.ar      1 RES1    0.0000
     21 C17        2.3204   -1.0265   11.9730 C.3       1 RES1    0.0000
     22 C18        4.5602   -0.4498   11.0793 C.3       1 RES1    0.0000
     23 H1        -0.5088    2.1418    7.7619 H         1 RES1    0.0000
     24 H2         3.5875    1.0208   13.0733 H         1 RES1    0.0000
     25 H3         2.2897    1.5778   12.4311 H         1 RES1    0.0000
     26 H4         3.6740    1.9867   11.8622 H         1 RES1    0.0000
     27 H5         2.0253   -0.3088    8.1452 H         1 RES1    0.0000
     28 H6         2.2182   -1.3874    9.2440 H         1 RES1    0.0000
     29 H7         3.4511   -0.6613    8.6437 H         1 RES1    0.0000
     30 H8         4.3017    2.1756    8.0628 H         1 RES1    0.0000
     31 H9         4.8288    1.3028    9.2335 H         1 RES1    0.0000
     32 H10        4.6026    2.8242    9.4401 H         1 RES1    0.0000
     33 H11       -0.8896    2.7143   10.8488 H         1 RES1    0.0000
     34 H12        0.4681    3.3431   11.2589 H         1 RES1    0.0000
     35 H13       -0.3001    3.8888   10.0254 H         1 RES1    0.0000
     36 H14       -0.9802   -2.2095    9.1542 H         1 RES1    0.0000
     37 H15       -2.3371   -3.6886    7.9835 H         1 RES1    0.0000
     38 H16       -3.5019   -2.9892    6.1287 H         1 RES1    0.0000
     39 H17       -3.3530   -0.7783    5.4221 H         1 RES1    0.0000
     40 H18       -2.0328    0.7304    6.5973 H         1 RES1    0.0000
     41 H19        1.4416   -0.7120   12.1526 H         1 RES1    0.0000
     42 H20        2.2755   -1.7766   11.3907 H         1 RES1    0.0000
     43 H21        2.7378   -1.2803   12.7874 H         1 RES1    0.0000
     44 H22        4.5245   -1.2112   10.5134 H         1 RES1    0.0000
     45 H23        4.9418   -0.6937   11.9146 H         1 RES1    0.0000
     46 H24        5.0932    0.2242   10.6736 H         1 RES1    0.0000
@<TRIPOS>BOND
     1    1    3 1
     2    2    6 2
     3    3    5 1
     4    4    5 1
     5    5   10 1
     6    6    4 1
     7    7    3 1
     8    8    7 1
     9    9    1 1
    10   10   11 1
    11   11   24 1
    12   12    5 1
    13   13    4 1
    14   14    7 1
    15   15    9 1
    16   16   15 ar
    17   17   16 ar
    18   18   17 ar
    19   19   18 ar
    20   20   15 ar
    21   21   10 1
    22   22   10 1
    23   23    8 1
    24   25   11 1
    25   26   11 1
    26   27   12 1
    27   28   12 1
    28   29   12 1
    29   30   13 1
    30   31   13 1
    31   32   13 1
    32   33   14 1
    33   34   14 1
    34   35   14 1
    35   36   16 1
    36   37   17 1
    37   38   18 1
    38   39   19 1
    39   40   20 1
    40   41   21 1
    41   42   21 1
    42   43   21 1
    43   44   22 1
    44   45   22 1
    45   46   22 1
    46    6    7 1
    47    8    9 2
    48   19   20 ar
@<TRIPOS>SUBSTRUCTURE
     1 RES1 1

@<TRIPOS>CRYSIN
   8.3140   14.1000   14.9700  90.0000  90.0000  90.0000  19 1

