# MOL2 file generated by ConQuest
# Please check atom types

@<TRIPOS>MOLECULE
MEMDIS
    39    42     1
SMALL
NO_CHARGES
****
Generated from CSD

@<TRIPOS>ATOM
      1 C1         8.1802    9.6766    8.5483 C.2       1 RES1    0.0000
      2 C2         9.1699    8.5959    8.8765 C.3       1 RES1    0.0000
      3 H1         8.7838    8.0336    9.5797 H         1 RES1    0.0000
      4 O1        10.4222    9.1218    9.3623 O.3       1 RES1    0.0000
      5 C3        11.2108    9.6103    8.3624 C.2       1 RES1    0.0000
      6 H2        11.9769   10.0805    8.6011 H         1 RES1    0.0000
      7 C4        10.9498    9.4557    7.0650 C.2       1 RES1    0.0000
      8 C5         9.7761    8.6041    6.6644 C.3       1 RES1    0.0000
      9 H3        10.0478    8.0263    5.9210 H         1 RES1    0.0000
     10 O2         8.6629    9.4130    6.2347 O.3       1 RES1    0.0000
     11 C6         7.9768    9.9739    7.2577 C.2       1 RES1    0.0000
     12 H4         7.3247   10.6040    7.0531 H         1 RES1    0.0000
     13 O3         9.3841    7.7921    7.7453 O.3       1 RES1    0.0000
     14 C7         7.3697   10.2446    9.6419 C.ar      1 RES1    0.0000
     15 C8         6.0614   10.6986    9.4271 C.ar      1 RES1    0.0000
     16 H5         5.7258   10.7361    8.5611 H         1 RES1    0.0000
     17 C9         5.2663   11.0902   10.4807 C.ar      1 RES1    0.0000
     18 H6         4.3942   11.3760   10.3316 H         1 RES1    0.0000
     19 C10        5.7817   11.0539   11.7637 C.ar      1 RES1    0.0000
     20 C11        7.0788   10.6736   12.0058 C.ar      1 RES1    0.0000
     21 H7         7.4230   10.6901   12.8693 H         1 RES1    0.0000
     22 C12        7.8639   10.2645   10.9419 C.ar      1 RES1    0.0000
     23 H8         8.7407    9.9969   11.0996 H         1 RES1    0.0000
     24 C13       11.8227    9.9817    5.9927 C.ar      1 RES1    0.0000
     25 C14       13.1242   10.4231    6.2518 C.ar      1 RES1    0.0000
     26 H9        13.4298   10.4574    7.1298 H         1 RES1    0.0000
     27 C15       13.9589   10.8078    5.2289 C.ar      1 RES1    0.0000
     28 H10       14.8290   11.0827    5.4070 H         1 RES1    0.0000
     29 C16       13.4817   10.7776    3.9323 C.ar      1 RES1    0.0000
     30 C17       12.1856   10.4136    3.6391 C.ar      1 RES1    0.0000
     31 H11       11.8709   10.4392    2.7645 H         1 RES1    0.0000
     32 C18       11.3684   10.0114    4.6714 C.ar      1 RES1    0.0000
     33 H12       10.4947    9.7533    4.4847 H         1 RES1    0.0000
     34 N1         4.9092   11.3811   12.8906 N.pl3     1 RES1    0.0000
     35 O4         5.4146   11.4984   14.0013 O.2       1 RES1    0.0000
     36 O5         3.7106   11.5044   12.6749 O.2       1 RES1    0.0000
     37 N2        14.3994   11.1009    2.8361 N.pl3     1 RES1    0.0000
     38 O6        15.5756   11.2754    3.1020 O.2       1 RES1    0.0000
     39 O7        13.9571   11.1491    1.6972 O.2       1 RES1    0.0000
@<TRIPOS>BOND
     1    1    2 1
     2    2    3 1
     3    4    2 1
     4    5    4 1
     5    6    5 1
     6    7    5 2
     7    8    7 1
     8    9    8 1
     9   10    8 1
    10   11    1 2
    11   12   11 1
    12   13    2 1
    13   14    1 1
    14   15   14 ar
    15   16   15 1
    16   17   15 ar
    17   18   17 1
    18   19   17 ar
    19   20   19 ar
    20   21   20 1
    21   22   14 ar
    22   23   22 1
    23   24    7 1
    24   25   24 ar
    25   26   25 1
    26   27   25 ar
    27   28   27 1
    28   29   27 ar
    29   30   29 ar
    30   31   30 1
    31   32   24 ar
    32   33   32 1
    33   34   19 1
    34   35   34 2
    35   36   34 2
    36   37   29 1
    37   38   37 2
    38   39   37 2
    39    8   13 1
    40   10   11 1
    41   20   22 ar
    42   30   32 ar
@<TRIPOS>SUBSTRUCTURE
     1 RES1 1

@<TRIPOS>CRYSIN
  15.3589   12.1189    8.5244  90.0000  90.0000  90.0000  33 1

