# MOL2 file generated by ConQuest
# Please check atom types

@<TRIPOS>MOLECULE
MENFXN
    13    13     1
SMALL
USER_CHARGES
****
Generated from CSD

@<TRIPOS>ATOM
      1 C1         1.3538   -0.8204    2.0838 C.2       1 RES1    0.0000
      2 C2         0.5126   -0.7747    0.9646 C.2       1 RES1    0.0000
      3 C3         2.4965   -0.0230    2.5697 C.3       1 RES1    0.0000
      4 H1         2.8250   -0.3087    3.3998 H         1 RES1    0.0000
      5 H2         3.2036   -0.0349    2.0769 H         1 RES1    0.0000
      6 H3         2.2502    0.7804    2.7597 H         1 RES1    0.0000
      7 N1         0.9335   -1.8938    2.7510 N.pl3     1 RES1    1.0000
      8 N2        -0.3870   -1.6929    0.8810 N.2       1 RES1    0.0000
      9 N3         0.5635    0.2218   -0.0989 N.pl3     1 RES1    0.0000
     10 O1        -0.2080   -2.4581    1.9996 O.3       1 RES1    0.0000
     11 O2        -0.0144   -0.0422   -1.1444 O.2       1 RES1    0.0000
     12 O3         1.2610   -2.4569    3.7829 O.2       1 RES1   -1.0000
     13 O4         1.1915    1.2366    0.1290 O.2       1 RES1    0.0000
@<TRIPOS>BOND
     1    1    2 1
     2    2    8 2
     3    3    1 1
     4    4    3 1
     5    5    3 1
     6    6    3 1
     7    7    1 2
     8    8   10 1
     9    9    2 1
    10   10    7 1
    11   11    9 2
    12   12    7 1
    13   13    9 2
@<TRIPOS>SUBSTRUCTURE
     1 RES1 1

@<TRIPOS>CRYSIN
   7.0100    5.8240   14.2250  90.0000  90.0000  90.0000  19 1

