# MOL2 file generated by ConQuest
# Please check atom types

@<TRIPOS>MOLECULE
MENNOI
    64    44     2
SMALL
NO_CHARGES
****
Generated from CSD

@<TRIPOS>ATOM
      1 O1         4.0764    6.7505    3.1025 O.3       1 RES1    0.0000
      2 O2        -0.5774    6.5627    9.3828 O.2       1 RES1    0.0000
      3 O3         6.8431    6.6391    3.5527 O.2       1 RES1    0.0000
      4 N1         6.7760    7.1629    2.4460 N.pl3     1 RES1    0.0000
      5 O4         7.1023    6.6131    1.4031 O.2       1 RES1    0.0000
      6 O5        -1.4885    6.8513    6.7125 O.2       1 RES1    0.0000
      7 C1         6.3203    8.5586    2.3832 C.ar      1 RES1    0.0000
      8 C2         5.1293    8.9412    3.0168 C.ar      1 RES1    0.0000
      9 C3         4.8487   10.3072    2.9989 C.ar      1 RES1    0.0000
     10 N2        -1.5256    7.3026    9.5759 N.pl3     1 RES1    0.0000
     11 C4         2.4116    7.0208    4.6088 C.2       1 RES1    0.0000
     12 C5        -0.8977    8.8702    7.7751 C.ar      1 RES1    0.0000
     13 C6         0.6132    7.7798    6.0606 C.2       1 RES1    0.0000
     14 C7         7.1471    9.4451    1.7393 C.ar      1 RES1    0.0000
     15 C8        -1.4730    8.6640    9.0299 C.ar      1 RES1    0.0000
     16 C9         3.1812    8.2288    4.5161 C.2       1 RES1    0.0000
     17 C10       -0.7453   10.1896    7.3661 C.ar      1 RES1    0.0000
     18 C11        3.0110    6.1611    3.7422 C.2       1 RES1    0.0000
     19 C12        6.8389   10.7882    1.7468 C.ar      1 RES1    0.0000
     20 C13        1.1776    6.7841    5.3550 C.2       1 RES1    0.0000
     21 O6        -2.4967    6.9827   10.2473 O.2       1 RES1    0.0000
     22 C14       -1.9178    9.6833    9.8387 C.ar      1 RES1    0.0000
     23 C15       -0.6266    7.7225    6.8226 C.2       1 RES1    0.0000
     24 C16        0.6258    5.3861    5.2644 C.3       1 RES1    0.0000
     25 C17       -1.1824   11.2379    8.1742 C.ar      1 RES1    0.0000
     26 C18        4.1514    8.0325    3.6067 C.2       1 RES1    0.0000
     27 C19        5.6947   11.2104    2.3949 C.ar      1 RES1    0.0000
     28 C20       -1.7707   10.9882    9.3927 C.ar      1 RES1    0.0000
     29 O7         1.2082   10.4522    3.3111 Du        2 SUP2    0.0000
     30 O8         1.8795   10.4583    1.2636 Du        2 SUP2    0.0000
     31 C21       -0.6850    8.4510    2.4460 Du        2 SUP2    0.0000
     32 N3         1.2626    9.9628    2.1962 Du        2 SUP2    0.0000
     33 C22        0.6047    8.6701    1.9685 Du        2 SUP2    0.0000
     34 C23        1.3362    7.7042    1.3199 Du        2 SUP2    0.0000
     35 C24        0.7850    6.4558    1.1659 Du        2 SUP2    0.0000
     36 C25       -1.2165    7.1835    2.2645 Du        2 SUP2    0.0000
     37 C26       -0.4785    6.1886    1.6407 Du        2 SUP2    0.0000
     38 C27       -2.8874   10.4698    4.6930 Du        2 SUP2    0.0000
     39 O9        -1.4762   10.7416    2.0819 Du        2 SUP2    0.0000
     40 O10       -1.4527   10.6088    2.9705 Du        2 SUP2    0.0000
     41 C28       -2.3384    8.9809    4.3235 Du        2 SUP2    0.0000
     42 C29       -1.5416    9.7750    2.7752 Du        2 SUP2    0.0000
     43 C30       -1.5044    9.2496    3.2710 Du        2 SUP2    0.0000
     44 C31       -2.7317   12.1076    4.3697 Du        2 SUP2    0.0000
     45 C32       -2.2835   11.2318    3.8655 Du        2 SUP2    0.0000
     46 H1        -0.2102    5.2303    5.8613 H         1 RES1    0.0000
     47 H2         1.2984    4.6882    5.4831 H         1 RES1    0.0000
     48 H3         0.2488    5.1998    4.3277 H         1 RES1    0.0000
     49 H4         7.9395    9.1702    1.2983 H         1 RES1    0.0000
     50 H5         7.4330   11.3769    1.3046 H         1 RES1    0.0000
     51 H6         5.4962   12.1252    2.3844 H         1 RES1    0.0000
     52 H7         4.0955   10.6133    3.3907 H         1 RES1    0.0000
     53 H8         3.0234    9.0099    5.0125 H         1 RES1    0.0000
     54 H9         2.7656    5.2150    3.4663 H         1 RES1    0.0000
     55 H10        1.0443    8.6205    6.0776 H         1 RES1    0.0000
     56 H11       -0.3754   10.3843    6.4579 H         1 RES1    0.0000
     57 H12       -1.0517   12.1557    7.8717 H         1 RES1    0.0000
     58 H13       -2.0031   11.6900    9.9998 H         1 RES1    0.0000
     59 H14       -2.1923    9.5215   10.7309 H         1 RES1    0.0000
     60 H15        2.2053    7.8646    1.0651 Du        2 SUP2    0.0000
     61 H16        1.3273    5.8259    0.7983 Du        2 SUP2    0.0000
     62 H17       -0.8552    5.3754    1.5336 Du        2 SUP2    0.0000
     63 H18       -2.1562    6.9865    2.6470 Du        2 SUP2    0.0000
     64 C33       -2.3878    1.9486    3.9894 Du        2 SUP2    0.0000
@<TRIPOS>BOND
     1    1   18 1
     2    2   10 2
     3    3    4 2
     4    4    5 2
     5    6   23 2
     6    7    4 1
     7    8    7 ar
     8    9    8 ar
     9   10   15 1
    10   11   16 1
    11   12   15 ar
    12   13   20 2
    13   14    7 ar
    14   15   22 ar
    15   16   26 2
    16   17   12 ar
    17   18   11 2
    18   19   14 ar
    19   20   11 1
    20   21   10 2
    21   22   28 ar
    22   23   12 1
    23   24   20 1
    24   25   17 ar
    25   26    1 1
    26   27    9 ar
    27   28   25 ar
    28   46   24 1
    29   47   24 1
    30   48   24 1
    31   49   14 1
    32   50   19 1
    33   51   27 1
    34   52    9 1
    35   53   16 1
    36   54   18 1
    37   55   13 1
    38   56   17 1
    39   57   25 1
    40   58   28 1
    41   59   22 1
    42    8   26 1
    43   13   23 1
    44   19   27 ar
@<TRIPOS>SUBSTRUCTURE
     1 RES1 1
     2 SUP2 29

@<TRIPOS>CRYSIN
  32.2120    7.6355   24.8660  90.0000 122.3440  90.0000  15 1

