# MOL2 file generated by ConQuest
# Please check atom types

@<TRIPOS>MOLECULE
MENOAN
    43    44     1
SMALL
NO_CHARGES
****
Generated from CSD

@<TRIPOS>ATOM
      1 C1         3.7481    0.8890    1.0464 C.ar      1 RES1    0.0000
      2 C2         3.2502    2.1218    0.6441 C.ar      1 RES1    0.0000
      3 C3         2.2392    2.2077   -0.3079 C.ar      1 RES1    0.0000
      4 C4         1.7412    1.0659   -0.8670 C.ar      1 RES1    0.0000
      5 C5         2.2274   -0.1818   -0.5289 C.ar      1 RES1    0.0000
      6 C6         3.2287   -0.2380    0.4288 C.ar      1 RES1    0.0000
      7 C7         1.6928   -1.4525   -1.1446 C.3       1 RES1    0.0000
      8 C8         2.8727    4.2023    2.0210 C.3       1 RES1    0.0000
      9 N1         3.7395    3.3347    1.2258 N.pl3     1 RES1    0.0000
     10 N2         4.9763    3.7677    1.0237 N.2       1 RES1    0.0000
     11 O1         5.6829    3.1050    0.3022 O.2       1 RES1    0.0000
     12 C9         4.8000    0.7635    2.1249 C.3       1 RES1    0.0000
     13 C10        4.6311   -0.4726    2.9824 C.ar      1 RES1    0.0000
     14 C11        3.6201   -0.5652    3.9325 C.ar      1 RES1    0.0000
     15 C12        3.5169   -1.6723    4.7560 C.ar      1 RES1    0.0000
     16 C13        4.3837   -2.7299    4.5973 C.ar      1 RES1    0.0000
     17 C14        5.3560   -2.7002    3.6152 C.ar      1 RES1    0.0000
     18 C15        5.4764   -1.5600    2.8408 C.ar      1 RES1    0.0000
     19 C16        6.2368   -3.9065    3.3640 C.3       1 RES1    0.0000
     20 C17        1.3229    0.3371    3.4433 C.3       1 RES1    0.0000
     21 N3         2.6404    0.4726    4.0609 N.pl3     1 RES1    0.0000
     22 N4         2.9211    1.4625    4.8561 N.2       1 RES1    0.0000
     23 O2         1.9757    2.2871    4.9827 O.2       1 RES1    0.0000
     24 H1         1.9574    3.1232   -0.5478 H         1 RES1    0.0000
     25 H2         1.0110    1.1402   -1.5488 H         1 RES1    0.0000
     26 H3         3.5814   -1.0741    0.6800 H         1 RES1    0.0000
     27 H4         1.4412   -1.2559   -0.2078 H         1 RES1    0.0000
     28 H5         2.3661   -2.1813   -1.1899 H         1 RES1    0.0000
     29 H6         0.8712   -1.7847   -0.6800 H         1 RES1    0.0000
     30 H7         2.5704    3.7512    2.8521 H         1 RES1    0.0000
     31 H8         3.4524    4.9740    2.2854 H         1 RES1    0.0000
     32 H9         2.1080    4.5113    1.4733 H         1 RES1    0.0000
     33 H10        4.7645    1.4212    2.7199 H         1 RES1    0.0000
     34 H11        5.6571    0.7106    1.6999 H         1 RES1    0.0000
     35 H12        2.8178   -1.6855    5.4586 H         1 RES1    0.0000
     36 H13        4.2697   -3.5033    5.1375 H         1 RES1    0.0000
     37 H14        6.1519   -1.4872    2.1532 H         1 RES1    0.0000
     38 H15        7.1521   -3.6851    3.1165 H         1 RES1    0.0000
     39 H16        6.0873   -4.6270    3.9854 H         1 RES1    0.0000
     40 H17        5.8830   -4.3791    2.4177 H         1 RES1    0.0000
     41 H18        0.9357   -0.4131    4.0420 H         1 RES1    0.0000
     42 H19        0.7098    1.0907    3.5698 H         1 RES1    0.0000
     43 H20        1.2798   -0.0661    2.5499 H         1 RES1    0.0000
@<TRIPOS>BOND
     1    1    2 ar
     2    2    3 ar
     3    3    4 ar
     4    4    5 ar
     5    5    6 ar
     6    6    1 ar
     7    7    5 1
     8    8    9 1
     9    9    2 1
    10   10    9 1
    11   11   10 2
    12   12    1 1
    13   13   12 1
    14   14   13 ar
    15   15   14 ar
    16   16   15 ar
    17   17   16 ar
    18   18   13 ar
    19   19   17 1
    20   20   21 1
    21   21   14 1
    22   22   21 1
    23   23   22 2
    24   24    3 1
    25   25    4 1
    26   26    6 1
    27   27    7 1
    28   28    7 1
    29   29    7 1
    30   30    8 1
    31   31    8 1
    32   32    8 1
    33   33   12 1
    34   34   12 1
    35   35   15 1
    36   36   16 1
    37   37   18 1
    38   38   19 1
    39   39   19 1
    40   40   19 1
    41   41   20 1
    42   42   20 1
    43   43   20 1
    44   17   18 ar
@<TRIPOS>SUBSTRUCTURE
     1 RES1 1

@<TRIPOS>CRYSIN
  10.7550   16.5250   18.8880  90.0000  90.0000  90.0000  61 1

