# MOL2 file generated by ConQuest
# Please check atom types

@<TRIPOS>MOLECULE
MENPPO
    27    28     1
SMALL
NO_CHARGES
****
Generated from CSD

@<TRIPOS>ATOM
      1 N1        10.0877    1.5652    5.9353 N.am      1 RES1    0.0000
      2 C1        11.1735    0.5815    5.8171 C.3       1 RES1    0.0000
      3 C2         8.8286    1.3574    5.4079 C.2       1 RES1    0.0000
      4 C3         8.0173    2.6099    5.6495 C.3       1 RES1    0.0000
      5 C4         8.8518    3.4030    6.6576 C.3       1 RES1    0.0000
      6 C5        10.1891    2.7301    6.6635 C.2       1 RES1    0.0000
      7 C6         6.5469    2.4070    5.9906 C.ar      1 RES1    0.0000
      8 C7         6.0125    1.3802    6.7665 C.ar      1 RES1    0.0000
      9 C8         4.6414    1.2266    6.9511 C.ar      1 RES1    0.0000
     10 C9         3.7816    2.1103    6.4219 C.ar      1 RES1    0.0000
     11 C10        4.2611    3.1581    5.6954 C.ar      1 RES1    0.0000
     12 C11        5.6280    3.2913    5.4487 C.ar      1 RES1    0.0000
     13 O1         8.4842    0.3651    4.8286 O.2       1 RES1    0.0000
     14 O2        11.1947    3.0934    7.2199 O.2       1 RES1    0.0000
     15 N2         6.8681    0.4416    7.4811 N.pl3     1 RES1    0.0000
     16 O3         7.9772    0.7925    7.8026 O.2       1 RES1    0.0000
     17 O4         6.4202   -0.6636    7.7465 O.2       1 RES1    0.0000
     18 H1        10.8376   -0.2960    5.8698 H         1 RES1    0.0000
     19 H2        11.7038    0.7894    5.1467 H         1 RES1    0.0000
     20 H3        11.8306    0.6660    6.5164 H         1 RES1    0.0000
     21 H4         8.0490    3.0773    4.7639 H         1 RES1    0.0000
     22 H5         8.9786    4.3971    6.4313 H         1 RES1    0.0000
     23 H6         8.4927    3.3672    7.6053 H         1 RES1    0.0000
     24 H7         4.3520    0.4995    7.5287 H         1 RES1    0.0000
     25 H8         2.8309    2.0289    6.5674 H         1 RES1    0.0000
     26 H9         3.7182    3.8420    5.3254 H         1 RES1    0.0000
     27 H10        5.9575    4.0085    4.9256 H         1 RES1    0.0000
@<TRIPOS>BOND
     1    1    2 1
     2    2   18 1
     3    3    1 1
     4    4    3 1
     5    5    4 1
     6    6    1 1
     7    7    4 1
     8    8    7 ar
     9    9    8 ar
    10   10    9 ar
    11   11   10 ar
    12   12    7 ar
    13   13    3 2
    14   14    6 2
    15   15    8 1
    16   16   15 2
    17   17   15 2
    18   19    2 1
    19   20    2 1
    20   21    4 1
    21   22    5 1
    22   23    5 1
    23   24    9 1
    24   25   10 1
    25   26   11 1
    26   27   12 1
    27    5    6 1
    28   11   12 ar
@<TRIPOS>SUBSTRUCTURE
     1 RES1 1

@<TRIPOS>CRYSIN
  21.1260    6.1670    8.5070  90.0000  90.0000  90.0000  29 1

