# MOL2 file generated by ConQuest
# Please check atom types

@<TRIPOS>MOLECULE
MENPHL
    43    47     1
SMALL
NO_CHARGES
****
Generated from CSD

@<TRIPOS>ATOM
      1 C1         4.4767    3.2848   -1.9051 C.3       1 RES1    0.0000
      2 C2         5.2761    2.7794   -3.1369 C.3       1 RES1    0.0000
      3 C3         4.1668    2.2554   -4.0878 C.3       1 RES1    0.0000
      4 C4         2.8709    2.4812   -3.2767 C.3       1 RES1    0.0000
      5 C5         2.6236    3.9931   -3.2928 C.3       1 RES1    0.0000
      6 C6         1.3500    4.7180   -2.7625 C.3       1 RES1    0.0000
      7 C7         1.0421    4.2892   -1.3479 C.2       1 RES1    0.0000
      8 C8         1.9866    4.7511   -0.5605 C.2       1 RES1    0.0000
      9 C9         2.9487    5.5112   -1.4189 C.3       1 RES1    0.0000
     10 C10        3.7367    4.5440   -2.3559 C.3       1 RES1    0.0000
     11 C11        1.9806    6.0890   -2.4462 C.3       1 RES1    0.0000
     12 C12        3.4630    2.1312   -1.9180 C.3       1 RES1    0.0000
     13 C13        2.9755    1.6300    0.3324 C.2       1 RES1    0.0000
     14 C14        1.9025    1.4767    1.3490 C.ar      1 RES1    0.0000
     15 C15        2.2642    1.4643    2.6937 C.ar      1 RES1    0.0000
     16 C16        1.3131    1.3669    3.6790 C.ar      1 RES1    0.0000
     17 C17       -0.0066    1.2364    3.3004 C.ar      1 RES1    0.0000
     18 C18       -0.4026    1.2095    1.9794 C.ar      1 RES1    0.0000
     19 C19        0.5617    1.3483    1.0090 C.ar      1 RES1    0.0000
     20 N1        -1.0350    1.1557    4.3514 N.pl3     1 RES1    0.0000
     21 O1         2.4927    1.9841   -0.8563 O.3       1 RES1    0.0000
     22 O2         4.1448    1.4601    0.5680 O.2       1 RES1    0.0000
     23 O3        -0.7167    1.4746    5.4863 O.2       1 RES1    0.0000
     24 O4        -2.1455    0.7725    4.0362 O.2       1 RES1    0.0000
     25 H1         4.9664    3.3697   -1.1123 H         1 RES1    0.0000
     26 H2         5.8042    3.5478   -3.8114 H         1 RES1    0.0000
     27 H3         5.9069    2.0380   -2.8572 H         1 RES1    0.0000
     28 H4         4.2598    1.3048   -4.3127 H         1 RES1    0.0000
     29 H5         4.1483    2.7276   -4.9204 H         1 RES1    0.0000
     30 H6         2.1446    1.9468   -3.5629 H         1 RES1    0.0000
     31 H7         2.7392    4.2685   -4.1954 H         1 RES1    0.0000
     32 H8         0.6299    4.6579   -3.3778 H         1 RES1    0.0000
     33 H9         0.3532    3.6596   -1.1435 H         1 RES1    0.0000
     34 H10        2.1647    4.4632    0.4013 H         1 RES1    0.0000
     35 H11        3.4776    6.0870   -1.0047 H         1 RES1    0.0000
     36 H12        4.3917    5.0990   -2.8561 H         1 RES1    0.0000
     37 H13        1.3446    6.6834   -2.0514 H         1 RES1    0.0000
     38 H14        2.3889    6.4204   -3.2315 H         1 RES1    0.0000
     39 H15        3.9105    1.2717   -1.9482 H         1 RES1    0.0000
     40 H16        3.1934    1.4953    2.9260 H         1 RES1    0.0000
     41 H17        1.5485    1.3566    4.5934 H         1 RES1    0.0000
     42 H18       -1.3048    1.0749    1.7319 H         1 RES1    0.0000
     43 H19        0.3486    1.3649    0.0936 H         1 RES1    0.0000
@<TRIPOS>BOND
     1    1    2 1
     2    2    3 1
     3    3    4 1
     4    4    5 1
     5    5    6 1
     6    6    7 1
     7    7    8 2
     8    8    9 1
     9    9   10 1
    10   10    1 1
    11   11    6 1
    12   12    1 1
    13   13   14 1
    14   14   15 ar
    15   15   16 ar
    16   16   17 ar
    17   17   18 ar
    18   18   19 ar
    19   19   14 ar
    20   20   17 1
    21   21   12 1
    22   22   13 2
    23   23   20 2
    24   24   20 2
    25   25    1 1
    26   26    2 1
    27   27    2 1
    28   28    3 1
    29   29    3 1
    30   30    4 1
    31   31    5 1
    32   32    6 1
    33   33    7 1
    34   34    8 1
    35   35    9 1
    36   36   10 1
    37   37   11 1
    38   38   11 1
    39   39   12 1
    40   40   15 1
    41   41   16 1
    42   42   18 1
    43   43   19 1
    44    4   12 1
    45    5   10 1
    46    9   11 1
    47   13   21 1
@<TRIPOS>SUBSTRUCTURE
     1 RES1 1

@<TRIPOS>CRYSIN
   7.4380   20.7110   10.7810  90.0000  93.7900  90.0000 231 1

