# MOL2 file generated by ConQuest
# Please check atom types

@<TRIPOS>MOLECULE
MENPND10
    33    33     1
SMALL
NO_CHARGES
****
Generated from CSD

@<TRIPOS>ATOM
      1 C1         0.0282    4.3155    2.2928 C.ar      1 RES1    0.0000
      2 C2         0.3383    2.9972    2.4556 C.ar      1 RES1    0.0000
      3 C3         1.4241    2.6602    3.2671 C.ar      1 RES1    0.0000
      4 C4         2.1770    3.6430    3.9251 C.ar      1 RES1    0.0000
      5 C5         1.8154    4.9761    3.7361 C.ar      1 RES1    0.0000
      6 C6         0.7594    5.3145    2.9069 C.ar      1 RES1    0.0000
      7 N1        -1.1057    4.6702    1.4265 N.pl3     1 RES1    0.0000
      8 O1        -1.8790    3.8056    1.0941 O.2       1 RES1    0.0000
      9 O2        -1.2050    5.8259    1.0722 O.2       1 RES1    0.0000
     10 N2         1.7351    1.2473    3.3540 N.pl3     1 RES1    0.0000
     11 O3         0.9372    0.4375    2.9128 O.2       1 RES1    0.0000
     12 O4         2.7808    0.8882    3.8922 O.2       1 RES1    0.0000
     13 N3         3.2387    3.3179    4.7501 N.3       1 RES1    0.0000
     14 N4         3.8831    4.3155    5.4064 N.2       1 RES1    0.0000
     15 C7         4.8631    4.0317    6.2027 C.2       1 RES1    0.0000
     16 C8         5.3888    2.6824    6.4844 C.2       1 RES1    0.0000
     17 O5         6.4362    2.7578    7.3035 O.3       1 RES1    0.0000
     18 C9         7.0852    1.4927    7.6629 C.3       1 RES1    0.0000
     19 O6         4.9272    1.6552    6.0374 O.2       1 RES1    0.0000
     20 C10        5.4540    5.2037    6.9332 C.2       1 RES1    0.0000
     21 O7         6.5157    5.6884    6.3410 O.3       1 RES1    0.0000
     22 C11        7.2022    6.7924    7.0344 C.3       1 RES1    0.0000
     23 O8         4.9938    5.6278    7.9472 O.2       1 RES1    0.0000
     24 H1        -0.2388    2.2316    1.9571 H         1 RES1    0.0000
     25 H2         2.3529    5.7638    4.2431 H         1 RES1    0.0000
     26 H3         0.5234    6.3550    2.7416 H         1 RES1    0.0000
     27 H4         3.5980    2.4829    4.9939 H         1 RES1    0.0000
     28 H5         7.9271    1.7144    8.3091 H         1 RES1    0.0000
     29 H6         7.4651    0.9902    6.7738 H         1 RES1    0.0000
     30 H7         6.3874    0.8720    8.1741 H         1 RES1    0.0000
     31 H8         6.4098    7.3895    7.3727 H         1 RES1    0.0000
     32 H9         7.7887    6.4436    7.8704 H         1 RES1    0.0000
     33 H10        7.8310    7.3156    6.3267 H         1 RES1    0.0000
@<TRIPOS>BOND
     1    1    2 ar
     2    2    3 ar
     3    3    4 ar
     4    4    5 ar
     5    5    6 ar
     6    6    1 ar
     7    7    1 1
     8    8    7 2
     9    9    7 2
    10   10    3 1
    11   11   10 2
    12   12   10 2
    13   13    4 1
    14   14   13 1
    15   15   14 2
    16   16   15 1
    17   17   16 1
    18   18   17 1
    19   19   16 2
    20   20   15 1
    21   21   20 1
    22   22   21 1
    23   23   20 2
    24   24    2 1
    25   25    5 1
    26   26    6 1
    27   27   13 1
    28   28   18 1
    29   29   18 1
    30   30   18 1
    31   31   22 1
    32   32   22 1
    33   33   22 1
@<TRIPOS>SUBSTRUCTURE
     1 RES1 1

@<TRIPOS>CRYSIN
  11.1980   14.7790    8.4430  90.0000  92.4000  90.0000  14 2

