# MOL2 file generated by ConQuest
# Please check atom types

@<TRIPOS>MOLECULE
MENQIG
    59    49     2
SMALL
NO_CHARGES
****
Generated from CSD

@<TRIPOS>ATOM
      1 O1         5.8181    2.8169    6.9682 O.2       1 RES1    0.0000
      2 O2         7.5088    1.4822    7.5794 O.3       1 RES1    0.0000
      3 O3         8.3153    7.4174    3.5729 O.2       1 RES1    0.0000
      4 O4         3.0081    5.7914    3.3709 O.2       1 RES1    0.0000
      5 O5         2.8120    4.5163    1.6447 O.2       1 RES1    0.0000
      6 N1        10.1770    4.2323    5.8558 N.pl3     1 RES1    0.0000
      7 H1        11.0157    4.0962    6.0431 H         1 RES1    0.0000
      8 N2         6.9668    7.5790    5.3772 N.am      1 RES1    0.0000
      9 H2         6.7552    7.2909    6.1731 H         1 RES1    0.0000
     10 N3         3.4346    4.9243    2.6132 N.pl3     1 RES1    0.0000
     11 C1         9.3541    3.3047    6.4341 C.2       1 RES1    0.0000
     12 C2         8.0019    3.4809    6.3838 C.2       1 RES1    0.0000
     13 C3         7.3665    4.6453    5.6486 C.3       1 RES1    0.0000
     14 H3         6.7129    5.0848    6.2650 H         1 RES1    0.0000
     15 C4         8.4084    5.6850    5.2385 C.2       1 RES1    0.0000
     16 C5         9.7288    5.4360    5.3208 C.2       1 RES1    0.0000
     17 C6        10.1031    2.1668    7.0713 C.3       1 RES1    0.0000
     18 H4        11.0665    2.3032    6.9543 H         1 RES1    0.0000
     19 H5         9.8395    1.3234    6.6474 H         1 RES1    0.0000
     20 H6         9.8917    2.1322    8.0276 H         1 RES1    0.0000
     21 C7         7.0211    2.5878    6.9898 C.2       1 RES1    0.0000
     22 C8         6.5335    0.5398    8.0831 C.3       1 RES1    0.0000
     23 H7         6.9964   -0.2203    8.4941 H         1 RES1    0.0000
     24 H8         5.9754    0.2203    7.3427 H         1 RES1    0.0000
     25 H9         5.9683    0.9798    8.7516 H         1 RES1    0.0000
     26 C9         6.6129    4.1922    4.3975 C.ar      1 RES1    0.0000
     27 C10        5.3907    4.7620    4.0723 C.ar      1 RES1    0.0000
     28 H10        5.0009    5.4269    4.6272 H         1 RES1    0.0000
     29 C11        4.7481    4.3367    2.9140 C.ar      1 RES1    0.0000
     30 C12        5.2610    3.3777    2.0670 C.ar      1 RES1    0.0000
     31 H11        4.7964    3.1135    1.2814 H         1 RES1    0.0000
     32 C13        6.4764    2.8179    2.4051 C.ar      1 RES1    0.0000
     33 H12        6.8596    2.1525    1.8459 H         1 RES1    0.0000
     34 C14        7.1441    3.2164    3.5547 C.ar      1 RES1    0.0000
     35 H13        7.9780    2.8178    3.7715 H         1 RES1    0.0000
     36 C15        7.9101    6.9626    4.6619 C.2       1 RES1    0.0000
     37 C16       10.8390    6.3599    4.9185 C.3       1 RES1    0.0000
     38 H14       11.7011    5.9255    5.0833 H         1 RES1    0.0000
     39 H15       10.7844    7.1851    5.4448 H         1 RES1    0.0000
     40 H16       10.7576    6.5734    3.9657 H         1 RES1    0.0000
     41 H17       10.4600    7.1981    4.5795 Du        2 SUP2    0.0000
     42 H18       11.3781    5.9371    4.2180 Du        2 SUP2    0.0000
     43 H19       11.4049    6.5488    5.6963 Du        2 SUP2    0.0000
     44 O6         4.0794    8.1243    5.8211 O.3       1 RES1    0.0000
     45 H20        4.6088    7.8286    6.4029 H         1 RES1    0.0000
     46 C17        6.2391    8.7723    4.9446 C.3       1 RES1    0.0000
     47 H21        6.6523    9.1143    4.1122 H         1 RES1    0.0000
     48 H22        6.3364    9.4738    5.6373 H         1 RES1    0.0000
     49 C18        4.8062    8.5461    4.7009 C.3       1 RES1    0.0000
     50 H23        4.4057    9.3868    4.3645 H         1 RES1    0.0000
     51 H24        4.7103    7.8649    3.9891 H         1 RES1    0.0000
     52 O7         4.4043    8.8998    6.3725 Du        2 SUP2    0.0000
     53 H25        4.8570    8.3707    6.8381 Du        2 SUP2    0.0000
     54 C19        6.4675    8.9360    5.1240 Du        2 SUP2    0.0000
     55 H26        6.8413    9.2665    4.2666 Du        2 SUP2    0.0000
     56 H27        6.7764    9.5390    5.8436 Du        2 SUP2    0.0000
     57 C20        4.9515    8.9723    5.0547 Du        2 SUP2    0.0000
     58 H28        4.6567    9.8072    4.6116 Du        2 SUP2    0.0000
     59 H29        4.6243    8.2070    4.5171 Du        2 SUP2    0.0000
@<TRIPOS>BOND
     1    1   21 2
     2    2   21 1
     3    3   36 2
     4    4   10 2
     5    5   10 2
     6    6    7 1
     7    8    9 1
     8   10   29 1
     9   11    6 1
    10   12   11 2
    11   13   12 1
    12   14   13 1
    13   15   13 1
    14   16    6 1
    15   17   11 1
    16   18   17 1
    17   19   17 1
    18   20   17 1
    19   21   12 1
    20   22    2 1
    21   23   22 1
    22   24   22 1
    23   25   22 1
    24   26   13 1
    25   27   26 ar
    26   28   27 1
    27   29   27 ar
    28   30   29 ar
    29   31   30 1
    30   32   30 ar
    31   33   32 1
    32   34   26 ar
    33   35   34 1
    34   36    8 1
    35   37   16 1
    36   38   37 1
    37   39   37 1
    38   40   37 1
    39   44   45 1
    40   46    8 1
    41   47   46 1
    42   48   46 1
    43   49   44 1
    44   50   49 1
    45   51   49 1
    46   15   16 2
    47   15   36 1
    48   32   34 ar
    49   46   49 1
@<TRIPOS>SUBSTRUCTURE
     1 RES1 1
     2 SUP2 41

@<TRIPOS>CRYSIN
  14.1028   14.4948    8.6701  90.0000  90.0000  90.0000  33 1

