# MOL2 file generated by ConQuest
# Please check atom types

@<TRIPOS>MOLECULE
MEPQAA
    32    34     1
SMALL
NO_CHARGES
****
Generated from CSD

@<TRIPOS>ATOM
      1 N1         2.4571    2.4149   14.6202 N.pl3     1 RES1    0.0000
      2 N2         0.5302    1.4704   12.4442 N.2       1 RES1    0.0000
      3 N3         1.2421    0.6181   10.4297 N.2       1 RES1    0.0000
      4 N4         3.9835    0.2378    9.6367 N.3       1 RES1    0.0000
      5 H1         3.3493   -0.0738    9.0715 H         1 RES1    0.0000
      6 N5         4.4829    2.7147    7.4662 N.ar      1 RES1    0.0000
      7 O1         0.1608    0.9541   11.2055 O.3       1 RES1    0.0000
      8 O2         1.2733    2.6047   14.8451 O.2       1 RES1    0.0000
      9 O3         3.3507    2.7339   15.3957 O.2       1 RES1    0.0000
     10 C1         2.2754    0.9135   11.1675 C.2       1 RES1    0.0000
     11 C2         1.8442    1.4416   12.4223 C.2       1 RES1    0.0000
     12 C3         2.8232    1.8381   13.3643 C.2       1 RES1    0.0000
     13 C4         4.1290    1.6823   13.0248 C.2       1 RES1    0.0000
     14 H2         4.7745    1.9349   13.6450 H         1 RES1    0.0000
     15 C5         4.5616    1.1676   11.8010 C.2       1 RES1    0.0000
     16 H3         5.4742    1.0989   11.6358 H         1 RES1    0.0000
     17 C6         3.6693    0.7570   10.8264 C.2       1 RES1    0.0000
     18 C7         5.3548    0.0517    9.1997 C.3       1 RES1    0.0000
     19 H4         5.3684   -0.6070    8.4877 H         1 RES1    0.0000
     20 H5         5.8715   -0.3050    9.9393 H         1 RES1    0.0000
     21 C8         6.0301    1.3256    8.7004 C.3       1 RES1    0.0000
     22 H6         5.9298    2.0183    9.3712 H         1 RES1    0.0000
     23 H7         6.9793    1.1558    8.5920 H         1 RES1    0.0000
     24 C9         5.4782    1.8241    7.4055 C.ar      1 RES1    0.0000
     25 C10        5.9596    1.3618    6.1960 C.ar      1 RES1    0.0000
     26 H8         6.6607    0.7518    6.1762 H         1 RES1    0.0000
     27 C11        5.3996    1.8019    5.0278 C.ar      1 RES1    0.0000
     28 H9         5.7060    1.4829    4.2087 H         1 RES1    0.0000
     29 C12        4.3989    2.7059    5.0760 C.ar      1 RES1    0.0000
     30 H10        4.0029    3.0242    4.2973 H         1 RES1    0.0000
     31 C13        3.9839    3.1408    6.3089 C.ar      1 RES1    0.0000
     32 H11        3.3059    3.7774    6.3378 H         1 RES1    0.0000
@<TRIPOS>BOND
     1    1    8 2
     2    2    7 1
     3    3    7 1
     4    4    5 1
     5    6   24 ar
     6    9    1 2
     7   10    3 2
     8   11    2 2
     9   12    1 1
    10   13   12 2
    11   14   13 1
    12   15   13 1
    13   16   15 1
    14   17    4 1
    15   18    4 1
    16   19   18 1
    17   20   18 1
    18   21   18 1
    19   22   21 1
    20   23   21 1
    21   24   21 1
    22   25   24 ar
    23   26   25 1
    24   27   25 ar
    25   28   27 1
    26   29   27 ar
    27   30   29 1
    28   31    6 ar
    29   32   31 1
    30   10   11 1
    31   10   17 1
    32   11   12 1
    33   15   17 2
    34   29   31 ar
@<TRIPOS>SUBSTRUCTURE
     1 RES1 1

@<TRIPOS>CRYSIN
  13.5600    7.3850   26.0600  90.0000  90.0000  90.0000  61 1

