# MOL2 file generated by ConQuest
# Please check atom types

@<TRIPOS>MOLECULE
MEQDUK
    61    62     1
SMALL
NO_CHARGES
****
Generated from CSD

@<TRIPOS>ATOM
      1 O1         6.6283    3.1727   18.4821 O.2       1 RES1    0.0000
      2 O2         9.1967    5.2429   21.7364 O.2       1 RES1    0.0000
      3 N1         8.9803    5.0297   20.4900 N.3       1 RES1    0.0000
      4 N2         8.2507    4.5899   17.8095 N.am      1 RES1    0.0000
      5 C1         7.6255    3.8392   18.7271 C.2       1 RES1    0.0000
      6 C2         8.2431    3.7756   20.1359 C.3       1 RES1    0.0000
      7 C3         9.3234    6.0596   19.4918 C.3       1 RES1    0.0000
      8 C4         9.4622    5.3304   18.1521 C.3       1 RES1    0.0000
      9 H1         9.6523    5.9830   17.4464 H         1 RES1    0.0000
     10 H2        10.2186    4.7085   18.2001 H         1 RES1    0.0000
     11 C5         7.8106    4.5712   16.3947 C.3       1 RES1    0.0000
     12 H3         7.0260    3.9709   16.3285 H         1 RES1    0.0000
     13 C6         7.3841    5.9455   15.9237 C.3       1 RES1    0.0000
     14 H4         8.1586    6.5288   15.8868 H         1 RES1    0.0000
     15 H5         6.7323    6.3110   16.5413 H         1 RES1    0.0000
     16 H6         6.9898    5.8763   15.0411 H         1 RES1    0.0000
     17 C7         8.9140    3.9981   15.5114 C.3       1 RES1    0.0000
     18 H7         9.2279    3.1617   15.8886 H         1 RES1    0.0000
     19 H8         9.6493    4.6291   15.4630 H         1 RES1    0.0000
     20 H9         8.5650    3.8404   14.6192 H         1 RES1    0.0000
     21 C8         7.1598    3.5249   21.1816 C.3       1 RES1    0.0000
     22 H10        6.7001    2.6873   20.9606 H         1 RES1    0.0000
     23 H11        7.5903    3.4034   22.0532 H         1 RES1    0.0000
     24 C9         9.2942    2.6329   20.1413 C.3       1 RES1    0.0000
     25 H12        9.9812    2.8406   19.4730 H         1 RES1    0.0000
     26 H13        9.7318    2.6181   21.0183 H         1 RES1    0.0000
     27 C10        8.1586    7.0759   19.4060 C.3       1 RES1    0.0000
     28 H14        8.2733    7.6183   18.5986 H         1 RES1    0.0000
     29 H15        7.3167    6.5822   19.3144 H         1 RES1    0.0000
     30 C11        8.0530    8.0087   20.6137 C.3       1 RES1    0.0000
     31 H16        7.9313    7.4560   21.4258 H         1 RES1    0.0000
     32 C12        9.3475    8.7770   20.7491 C.3       1 RES1    0.0000
     33 H17        9.2892    9.3819   21.5177 H         1 RES1    0.0000
     34 H18        9.4904    9.3195   19.9454 H         1 RES1    0.0000
     35 C13       10.5284    7.8260   20.9379 C.3       1 RES1    0.0000
     36 H19       10.4198    7.3425   21.7846 H         1 RES1    0.0000
     37 H20       11.3553    8.3480   20.9948 H         1 RES1    0.0000
     38 C14       10.6522    6.8092   19.7913 C.3       1 RES1    0.0000
     39 H21       10.8030    7.3664   18.9880 H         1 RES1    0.0000
     40 C15       11.9336    5.9399   19.8988 C.3       1 RES1    0.0000
     41 H22       11.8230    5.1738   19.2819 H         1 RES1    0.0000
     42 C16       13.1477    6.7252   19.4334 C.3       1 RES1    0.0000
     43 H23       13.9313    6.1532   19.4568 H         1 RES1    0.0000
     44 H24       13.2855    7.4867   20.0176 H         1 RES1    0.0000
     45 H25       13.0029    7.0373   18.5246 H         1 RES1    0.0000
     46 C17       12.2404    5.3781   21.2653 C.3       1 RES1    0.0000
     47 H26       12.4195    6.1067   21.8819 H         1 RES1    0.0000
     48 H27       13.0180    4.8016   21.2112 H         1 RES1    0.0000
     49 H28       11.4800    4.8674   21.5826 H         1 RES1    0.0000
     50 C18        6.8389    8.9302   20.4718 C.3       1 RES1    0.0000
     51 H29        6.0382    8.3946   20.3602 H         1 RES1    0.0000
     52 H30        6.9566    9.5022   19.6966 H         1 RES1    0.0000
     53 H31        6.7544    9.4772   21.2671 H         1 RES1    0.0000
     54 C19        6.1207    4.6291   21.3037 C.3       1 RES1    0.0000
     55 H32        5.6942    4.7675   20.4431 H         1 RES1    0.0000
     56 H33        6.5542    5.4496   21.5862 H         1 RES1    0.0000
     57 H34        5.4528    4.3738   21.9595 H         1 RES1    0.0000
     58 C20        8.7470    1.2449   19.8535 C.3       1 RES1    0.0000
     59 H35        8.3316    1.2370   18.9772 H         1 RES1    0.0000
     60 H36        8.0882    1.0112   20.5260 H         1 RES1    0.0000
     61 H37        9.4723    0.6015   19.8733 H         1 RES1    0.0000
@<TRIPOS>BOND
     1    1    5 2
     2    2    3 1
     3    3    6 1
     4    4    5 1
     5    5    6 1
     6    6   21 1
     7    7    3 1
     8    8    4 1
     9    9    8 1
    10   10    8 1
    11   11    4 1
    12   12   11 1
    13   13   11 1
    14   14   13 1
    15   15   13 1
    16   16   13 1
    17   17   11 1
    18   18   17 1
    19   19   17 1
    20   20   17 1
    21   21   22 1
    22   23   21 1
    23   24    6 1
    24   25   24 1
    25   26   24 1
    26   27    7 1
    27   28   27 1
    28   29   27 1
    29   30   27 1
    30   31   30 1
    31   32   30 1
    32   33   32 1
    33   34   32 1
    34   35   32 1
    35   36   35 1
    36   37   35 1
    37   38    7 1
    38   39   38 1
    39   40   38 1
    40   41   40 1
    41   42   40 1
    42   43   42 1
    43   44   42 1
    44   45   42 1
    45   46   40 1
    46   47   46 1
    47   48   46 1
    48   49   46 1
    49   50   30 1
    50   51   50 1
    51   52   50 1
    52   53   50 1
    53   54   21 1
    54   55   54 1
    55   56   54 1
    56   57   54 1
    57   58   24 1
    58   59   58 1
    59   60   58 1
    60   61   58 1
    61    7    8 1
    62   35   38 1
@<TRIPOS>SUBSTRUCTURE
     1 RES1 1

@<TRIPOS>CRYSIN
  10.0587   11.3486   18.0306  90.0000  90.0000  90.0000  19 1

