# MOL2 file generated by ConQuest
# Please check atom types

@<TRIPOS>MOLECULE
MEQMIF
    40    42     1
SMALL
NO_CHARGES
****
Generated from CSD

@<TRIPOS>ATOM
      1 O1         6.3519    6.0536    1.1167 O.2       1 RES1    0.0000
      2 O2         3.0418    2.5701    0.0481 O.2       1 RES1    0.0000
      3 C1         4.2410    2.5487    2.0135 C.ar      1 RES1    0.0000
      4 C2         5.9167    4.1665    2.4793 C.ar      1 RES1    0.0000
      5 C3         6.1892    3.5356    3.6964 C.ar      1 RES1    0.0000
      6 H1         6.8611    3.8649    4.2824 H         1 RES1    0.0000
      7 C4         4.9241    3.6835    1.6353 C.ar      1 RES1    0.0000
      8 H2         4.7229    4.1238    0.8164 H         1 RES1    0.0000
      9 C5         4.4743    1.8917    3.2080 C.ar      1 RES1    0.0000
     10 H3         3.9835    1.1169    3.4560 H         1 RES1    0.0000
     11 N1         5.7368    1.7299    5.2991 N.pl3     1 RES1    0.0000
     12 O3        11.0474    6.7025    6.0186 O.3       1 RES1    0.0000
     13 C6         6.6961    5.3452    2.0085 C.2       1 RES1    0.0000
     14 O4         6.6402    2.1592    5.9826 O.2       1 RES1    0.0000
     15 N2         3.2395    1.9807    1.1094 N.pl3     1 RES1    0.0000
     16 O5         7.7941    5.5290    2.7117 O.3       1 RES1    0.0000
     17 C7         5.4488    2.4164    4.0144 C.ar      1 RES1    0.0000
     18 O6        12.2194    3.6355    2.6513 O.3       1 RES1    0.0000
     19 O7         2.6736    0.9643    1.4447 O.2       1 RES1    0.0000
     20 C8        11.7768    5.3429    4.2623 C.2       1 RES1    0.0000
     21 C9        10.3608    5.7763    4.0069 C.3       1 RES1    0.0000
     22 H4         9.7429    5.0332    4.2648 H         1 RES1    0.0000
     23 O8         5.0424    0.7881    5.5846 O.2       1 RES1    0.0000
     24 C10       11.2415    4.0157    1.8281 C.2       1 RES1    0.0000
     25 H5        11.1618    3.3917    1.1169 H         1 RES1    0.0000
     26 C11       10.1393    7.0341    5.0362 C.3       1 RES1    0.0000
     27 H6        10.3599    7.9003    4.6104 H         1 RES1    0.0000
     28 H7         9.2141    7.0642    5.3868 H         1 RES1    0.0000
     29 C12       12.5947    4.4716    3.6863 C.2       1 RES1    0.0000
     30 H8        13.4887    4.4190    4.0019 H         1 RES1    0.0000
     31 C13       10.0639    6.1853    2.6270 C.3       1 RES1    0.0000
     32 H9        10.6836    6.9307    2.3816 H         1 RES1    0.0000
     33 C14       10.3814    4.9425    1.6854 C.2       1 RES1    0.0000
     34 H10        9.8487    4.8836    0.9016 H         1 RES1    0.0000
     35 C15       12.1935    6.1882    5.3993 C.3       1 RES1    0.0000
     36 H11       12.7160    5.6515    6.0454 H         1 RES1    0.0000
     37 H12       12.7644    6.9301    5.0762 H         1 RES1    0.0000
     38 C16        8.7078    6.5765    2.2514 C.3       1 RES1    0.0000
     39 H13        8.4735    7.4409    2.6746 H         1 RES1    0.0000
     40 H14        8.6415    6.6788    1.2697 H         1 RES1    0.0000
@<TRIPOS>BOND
     1    1   13 2
     2    2   15 2
     3    3    7 ar
     4    4    5 ar
     5    5    6 1
     6    7    4 ar
     7    8    7 1
     8    9    3 ar
     9   10    9 1
    10   11   14 2
    11   12   26 1
    12   13    4 1
    13   15    3 1
    14   16   13 1
    15   17    5 ar
    16   18   24 1
    17   19   15 2
    18   20   21 1
    19   21   22 1
    20   23   11 2
    21   24   25 1
    22   26   21 1
    23   27   26 1
    24   28   26 1
    25   29   18 1
    26   30   29 1
    27   31   21 1
    28   32   31 1
    29   33   24 2
    30   34   33 1
    31   35   12 1
    32   36   35 1
    33   37   35 1
    34   38   16 1
    35   39   38 1
    36   40   38 1
    37    9   17 ar
    38   11   17 1
    39   20   29 2
    40   20   35 1
    41   31   33 1
    42   31   38 1
@<TRIPOS>SUBSTRUCTURE
     1 RES1 1

@<TRIPOS>CRYSIN
  10.7652    5.7780   25.2260  90.0000  96.9030  90.0000 231 1

