# MOL2 file generated by ConQuest
# Please check atom types

@<TRIPOS>MOLECULE
MEQVIO
    36    37     1
SMALL
NO_CHARGES
****
Generated from CSD

@<TRIPOS>ATOM
      1 C1         1.3744    6.8266    9.2108 C.ar      1 RES1    0.0000
      2 H1         1.4698    6.0434    9.7023 H         1 RES1    0.0000
      3 C2         1.8828    7.9973    9.6941 C.ar      1 RES1    0.0000
      4 H2         2.3496    8.0087   10.4970 H         1 RES1    0.0000
      5 C3         1.6971    9.1541    8.9875 C.ar      1 RES1    0.0000
      6 C4         1.0724    9.0489    7.7893 C.ar      1 RES1    0.0000
      7 H3         0.9804    9.8214    7.2814 H         1 RES1    0.0000
      8 N1         0.5779    7.9149    7.2916 N.ar      1 RES1    0.0000
      9 C5         0.7358    6.7981    8.0187 C.ar      1 RES1    0.0000
     10 C6         2.0424   10.5809    9.6757 C.3       1 RES1    0.0000
     11 H4         1.4438   11.2784    9.3746 H         1 RES1    0.0000
     12 H5         2.0147   10.5255   10.6445 H         1 RES1    0.0000
     13 C7         3.2606   10.7604    9.2353 C.3       1 RES1    0.0000
     14 H6         3.7864    9.9789    9.4197 H         1 RES1    0.0000
     15 H7         3.6493   11.5191    9.6757 H         1 RES1    0.0000
     16 H8         3.2381   10.9170    8.2891 H         1 RES1    0.0000
     17 C8         0.1614    5.5409    7.4350 C.3       1 RES1    0.0000
     18 H9        -0.7774    5.6886    7.2383 H         1 RES1    0.0000
     19 H10        0.2169    4.8361    8.0986 H         1 RES1    0.0000
     20 C9         0.8503    5.0784    6.1794 C.3       1 RES1    0.0000
     21 H11        0.4460    4.2568    5.8579 H         1 RES1    0.0000
     22 H12        0.7722    5.7522    5.4851 H         1 RES1    0.0000
     23 O1         2.2316    4.8581    6.5030 O.3       1 RES1    0.0000
     24 C10        3.0576    4.3808    5.5383 C.ar      1 RES1    0.0000
     25 C11        2.6255    3.9705    4.2787 C.ar      1 RES1    0.0000
     26 H13        1.7249    4.0137    4.0452 H         1 RES1    0.0000
     27 C12        3.5608    3.5014    3.3877 C.ar      1 RES1    0.0000
     28 H14        3.2919    3.2232    2.5418 H         1 RES1    0.0000
     29 C13        4.8831    3.4378    3.7277 C.ar      1 RES1    0.0000
     30 C14        5.3204    3.8481    4.9730 C.ar      1 RES1    0.0000
     31 H15        6.2211    3.8073    5.1963 H         1 RES1    0.0000
     32 C15        4.3920    4.3180    5.8701 C.ar      1 RES1    0.0000
     33 H16        4.6697    4.5970    6.7120 H         1 RES1    0.0000
     34 N2         5.8480    2.9418    2.7610 N.pl3     1 RES1    0.0000
     35 O2         7.0280    2.8953    3.0703 O.2       1 RES1    0.0000
     36 O3         5.4263    2.5445    1.6816 O.2       1 RES1    0.0000
@<TRIPOS>BOND
     1    1    2 1
     2    3    1 ar
     3    4    3 1
     4    5    3 ar
     5    6    5 ar
     6    7    6 1
     7    8    6 ar
     8    9    1 ar
     9   10    5 1
    10   11   10 1
    11   12   10 1
    12   13   10 1
    13   14   13 1
    14   15   13 1
    15   16   13 1
    16   17    9 1
    17   18   17 1
    18   19   17 1
    19   20   17 1
    20   21   20 1
    21   22   20 1
    22   23   20 1
    23   24   23 1
    24   25   24 ar
    25   26   25 1
    26   27   25 ar
    27   28   27 1
    28   29   27 ar
    29   30   29 ar
    30   31   30 1
    31   32   24 ar
    32   33   32 1
    33   34   29 1
    34   35   34 2
    35   36   34 2
    36    8    9 ar
    37   30   32 ar
@<TRIPOS>SUBSTRUCTURE
     1 RES1 1

@<TRIPOS>CRYSIN
  17.3530    8.1580   20.4820  90.0000  90.0000  90.0000  61 1

