# MOL2 file generated by ConQuest
# Please check atom types

@<TRIPOS>MOLECULE
MEQVAG
    17    19     1
SMALL
NO_CHARGES
****
Generated from CSD

@<TRIPOS>ATOM
      1 C1         3.9269    7.0330    2.1691 C.2       1 RES1    0.0000
      2 N1         2.7046    7.4249    1.7055 N.pl3     1 RES1    0.0000
      3 N2         2.0695    8.6079    1.9008 N.2       1 RES1    0.0000
      4 N3         1.0246    8.5603    1.1618 N.2       1 RES1    0.0000
      5 N4         0.9254    7.3942    0.4779 N.2       1 RES1    0.0000
      6 C2         1.9887    6.6992    0.8136 C.2       1 RES1    0.0000
      7 C3         2.4879    5.3831    0.4436 C.2       1 RES1    0.0000
      8 N5         1.6781    4.5473   -0.4323 N.pl3     1 RES1    0.0000
      9 O1         1.9789    3.3892   -0.5348 O.2       1 RES1    0.0000
     10 O2         0.7711    5.0719   -1.0267 O.2       1 RES1    0.0000
     11 C4         3.6767    4.9446    0.8759 C.2       1 RES1    0.0000
     12 H1         4.0195    4.2077    0.6079 H         1 RES1    0.0000
     13 C5         4.4083    5.7999    1.7157 C.2       1 RES1    0.0000
     14 O3         6.5028    4.8383    2.1739 O.2       1 RES1    0.0000
     15 N6         5.6214    5.6398    2.2426 N.pl3     1 RES1    0.0000
     16 O4         5.8256    6.8361    3.0831 O.3       1 RES1    0.0000
     17 N7         4.7203    7.6830    2.9761 N.2       1 RES1    0.0000
@<TRIPOS>BOND
     1    1    2 1
     2    2    3 1
     3    3    4 2
     4    4    5 1
     5    5    6 2
     6    6    2 1
     7    7    6 1
     8    8    7 1
     9    9    8 2
    10   10    8 2
    11   11    7 2
    12   12   11 1
    13   13    1 1
    14   14   15 1
    15   15   13 2
    16   16   15 1
    17   17    1 2
    18   11   13 1
    19   16   17 1
@<TRIPOS>SUBSTRUCTURE
     1 RES1 1

@<TRIPOS>CRYSIN
   6.5678   10.8166   11.2579  90.0000  90.0000  90.0000  19 1

