# MOL2 file generated by ConQuest
# Please check atom types

@<TRIPOS>MOLECULE
MERKOM
    26    28     1
SMALL
NO_CHARGES
****
Generated from CSD

@<TRIPOS>ATOM
      1 O1         0.1634    1.4018    6.3160 O.2       1 RES1    0.0000
      2 O2        -0.2432   -0.7281    6.5738 O.2       1 RES1    0.0000
      3 O3         2.9036   -1.0618   10.6282 O.3       1 RES1    0.0000
      4 N1         0.3060    0.3245    6.9099 N.pl3     1 RES1    0.0000
      5 N2         1.4108   -0.8510    8.7486 N.2       1 RES1    0.0000
      6 N3         2.5271    0.9041    9.5992 N.pl3     1 RES1    0.0000
      7 C1         1.1787    0.3160    8.0428 C.2       1 RES1    0.0000
      8 C2         1.8485    1.4114    8.5168 C.2       1 RES1    0.0000
      9 C3         2.2370   -0.4148    9.6643 C.2       1 RES1    0.0000
     10 C4         3.5693   -0.0062   11.4229 C.3       1 RES1    0.0000
     11 C5         3.6099    1.2669   10.5286 C.3       1 RES1    0.0000
     12 C6         4.9130    1.4972    9.7778 C.ar      1 RES1    0.0000
     13 C7         5.6856    2.6208   10.0452 C.ar      1 RES1    0.0000
     14 C8         6.8742    2.8448    9.3522 C.ar      1 RES1    0.0000
     15 C9         7.2904    1.9425    8.3863 C.ar      1 RES1    0.0000
     16 C10        6.5299    0.8081    8.1296 C.ar      1 RES1    0.0000
     17 C11        5.3495    0.5858    8.8226 C.ar      1 RES1    0.0000
     18 H1         1.8451    2.2816    8.1881 H         1 RES1    0.0000
     19 H2         4.4692   -0.2793   11.6621 H         1 RES1    0.0000
     20 H3         3.0716    0.1687   12.2371 H         1 RES1    0.0000
     21 H4         3.3663    2.0615   11.0482 H         1 RES1    0.0000
     22 H5         5.4072    3.2280   10.6921 H         1 RES1    0.0000
     23 H6         7.3867    3.5988    9.5378 H         1 RES1    0.0000
     24 H7         8.0750    2.0960    7.9124 H         1 RES1    0.0000
     25 H8         6.8139    0.1953    7.4897 H         1 RES1    0.0000
     26 H9         4.8467   -0.1766    8.6482 H         1 RES1    0.0000
@<TRIPOS>BOND
     1    1    4 2
     2    2    4 2
     3    3    9 1
     4    4    7 1
     5    5    7 1
     6    6    8 1
     7    7    8 2
     8    8   18 1
     9    9    5 2
    10   10    3 1
    11   11    6 1
    12   12   11 1
    13   13   12 ar
    14   14   13 ar
    15   15   14 ar
    16   16   15 ar
    17   17   12 ar
    18   19   10 1
    19   20   10 1
    20   21   11 1
    21   22   13 1
    22   23   14 1
    23   24   15 1
    24   25   16 1
    25   26   17 1
    26    6    9 1
    27   10   11 1
    28   16   17 ar
@<TRIPOS>SUBSTRUCTURE
     1 RES1 1

@<TRIPOS>CRYSIN
  13.1083    5.6434   14.1795  90.0000 102.2430  90.0000 231 1

