# MOL2 file generated by ConQuest
# Please check atom types

@<TRIPOS>MOLECULE
MESHUO
    23    24     1
SMALL
NO_CHARGES
****
Generated from CSD

@<TRIPOS>ATOM
      1 C1         5.5176   -0.5489    3.8880 C.ar      1 RES1    0.0000
      2 H1         6.2370   -1.1364    3.9413 H         1 RES1    0.0000
      3 C2         4.7439   -0.5548    2.7573 C.ar      1 RES1    0.0000
      4 H2         4.9323   -1.1324    2.0547 H         1 RES1    0.0000
      5 C3         3.6801    0.3176    2.6895 C.ar      1 RES1    0.0000
      6 H3         3.1399    0.3196    1.9319 H         1 RES1    0.0000
      7 C4         3.4037    1.1821    3.7168 C.ar      1 RES1    0.0000
      8 H4         2.6900    1.7726    3.6393 H         1 RES1    0.0000
      9 C5         4.1734    1.1900    4.8766 C.ar      1 RES1    0.0000
     10 C6         5.2646    0.3067    4.9622 C.ar      1 RES1    0.0000
     11 C7         6.1571    0.2293    6.1204 C.2       1 RES1    0.0000
     12 C8         7.3019   -0.7245    6.2301 C.3       1 RES1    0.0000
     13 H5         7.9814   -0.5419    5.5615 H         1 RES1    0.0000
     14 H6         7.0073   -1.6446    6.1446 H         1 RES1    0.0000
     15 C9         7.8061   -0.4298    7.6291 C.3       1 RES1    0.0000
     16 H7         8.7603   -0.2084    7.5984 H         1 RES1    0.0000
     17 C10        7.5817   -1.5523    8.5579 C.1       1 RES1    0.0000
     18 N1         3.8320    2.0356    5.9055 N.3       1 RES1    0.0000
     19 H8         3.1491    2.5517    5.8296 H         1 RES1    0.0000
     20 H9         4.3019    2.0475    6.6260 H         1 RES1    0.0000
     21 N2         6.0235    0.9905    7.1535 N.2       1 RES1    0.0000
     22 N3         7.3790   -2.4257    9.2605 N.1       1 RES1    0.0000
     23 O1         7.0530    0.7086    8.0954 O.3       1 RES1    0.0000
@<TRIPOS>BOND
     1    1    2 1
     2    3    1 ar
     3    4    3 1
     4    5    3 ar
     5    6    5 1
     6    7    5 ar
     7    8    7 1
     8    9    7 ar
     9   10    1 ar
    10   11   10 1
    11   12   11 1
    12   13   12 1
    13   14   12 1
    14   15   12 1
    15   16   15 1
    16   17   15 1
    17   18    9 1
    18   19   18 1
    19   20   18 1
    20   21   11 2
    21   22   17 3
    22   23   15 1
    23    9   10 ar
    24   21   23 1
@<TRIPOS>SUBSTRUCTURE
     1 RES1 1

@<TRIPOS>CRYSIN
   5.7100    9.9250   16.1530  90.0000  90.0000  90.0000  19 1

