# MOL2 file generated by ConQuest
# Please check atom types

@<TRIPOS>MOLECULE
METNAM08
    12    11     1
SMALL
NO_CHARGES
****
Generated from CSD

@<TRIPOS>ATOM
      1 O1         1.6573    1.5488    1.9119 O.2       1 RES1    0.0000
      2 O2         3.3270    1.5488    3.3148 O.2       1 RES1    0.0000
      3 N1         1.2566    1.5488    4.0710 N.3       1 RES1    0.0000
      4 N2         2.1101    1.5488    3.0590 N.pl3     1 RES1    0.0000
      5 C1        -0.1660    1.5488    3.7441 C.3       1 RES1    0.0000
      6 C2         1.7939    1.5488    5.4027 C.3       1 RES1    0.0000
      7 H1        -0.7128    1.5488    4.6864 H         1 RES1    0.0000
      8 H2        -0.4234    0.6629    3.1640 H         1 RES1    0.0000
      9 H3         0.9630    1.5488    6.0989 H         1 RES1    0.0000
     10 H4         2.4079    0.6815    5.5591 H         1 RES1    0.0000
     11 H2C       -0.4234    2.4346    3.1640 H         1 RES1    0.0000
     12 H4C        2.4079    2.4161    5.5591 H         1 RES1    0.0000
@<TRIPOS>BOND
     1    1    4 2
     2    2    4 2
     3    3    4 1
     4    5    3 1
     5    6    3 1
     6    7    5 1
     7    8    5 1
     8    9    6 1
     9   10    6 1
    10   11    5 1
    11   12    6 1
@<TRIPOS>SUBSTRUCTURE
     1 RES1 1

@<TRIPOS>CRYSIN
   6.5400    6.1950    6.0600  90.0000 123.6500  90.0000  11 1

