# MOL2 file generated by ConQuest
# Please check atom types

@<TRIPOS>MOLECULE
METNAM03
    12    11     1
SMALL
NO_CHARGES
****
Generated from CSD

@<TRIPOS>ATOM
      1 C1        -0.1830    1.5665    1.9646 C.3       1 RES1    0.0000
      2 C2        -0.4765    1.5665    4.5193 C.3       1 RES1    0.0000
      3 N1         0.3400    1.5665    3.3220 N.pl3     1 RES1    0.0000
      4 N2         1.6620    1.5665    3.4739 N.pl3     1 RES1    0.0000
      5 O1         2.3621    1.5665    2.4482 O.2       1 RES1    0.0000
      6 O2         2.1189    1.5665    4.6232 O.2       1 RES1    0.0000
      7 H1         0.1003    0.7895    1.4645 H         1 RES1    0.0000
      8 H2        -1.1472    1.5665    2.0438 H         1 RES1    0.0000
      9 H3        -0.3356    0.7269    5.0221 H         1 RES1    0.0000
     10 H4        -1.3846    1.5665    4.2570 H         1 RES1    0.0000
     11 H1C        0.1003    2.3435    1.4645 H         1 RES1    0.0000
     12 H3C       -0.3356    2.4061    5.0221 H         1 RES1    0.0000
@<TRIPOS>BOND
     1    1    3 1
     2    2    3 1
     3    3    4 1
     4    4    5 2
     5    6    4 2
     6    7    1 1
     7    8    1 1
     8    9    2 1
     9   10    2 1
    10   11    1 1
    11   12    2 1
@<TRIPOS>SUBSTRUCTURE
     1 RES1 1

@<TRIPOS>CRYSIN
   6.0880    6.2660    5.9950  90.0000 114.2800  90.0000  11 1

