# MOL2 file generated by ConQuest
# Please check atom types

@<TRIPOS>MOLECULE
MEVZES
    28    30     1
SMALL
NO_CHARGES
****
Generated from CSD

@<TRIPOS>ATOM
      1 O1         1.2205    0.5415    5.4393 O.2       1 RES1    0.0000
      2 O2         1.8315   -1.2629    6.4422 O.2       1 RES1    0.0000
      3 N1         1.6437   -0.0605    6.4124 N.pl3     1 RES1    0.0000
      4 C1         1.9952    2.1863    9.9225 C.ar      1 RES1    0.0000
      5 H1         2.0240    2.6952   10.6999 H         1 RES1    0.0000
      6 C2         1.2211    1.0491    9.8967 C.ar      1 RES1    0.0000
      7 H2         0.7403    0.7902   10.6499 H         1 RES1    0.0000
      8 C3         1.1648    0.2988    8.7431 C.ar      1 RES1    0.0000
      9 H3         0.6488   -0.4743    8.7063 H         1 RES1    0.0000
     10 C4         1.8856    0.7133    7.6435 C.ar      1 RES1    0.0000
     11 C5         2.7167    1.8365    7.6356 C.ar      1 RES1    0.0000
     12 C6         3.5979    2.2487    6.5172 C.ar      1 RES1    0.0000
     13 C7         4.1476    1.3350    5.6194 C.ar      1 RES1    0.0000
     14 H4         3.9529    0.4299    5.7078 H         1 RES1    0.0000
     15 C8         4.9784    1.7587    4.6019 C.ar      1 RES1    0.0000
     16 H5         5.3403    1.1406    4.0083 H         1 RES1    0.0000
     17 C9         5.2705    3.0918    4.4674 C.ar      1 RES1    0.0000
     18 H6         5.8097    3.3798    3.7658 H         1 RES1    0.0000
     19 C10        4.7683    4.0067    5.3691 C.ar      1 RES1    0.0000
     20 H7         4.9814    4.9070    5.2745 H         1 RES1    0.0000
     21 C11        3.9475    3.6039    6.4148 C.ar      1 RES1    0.0000
     22 C12        3.4864    4.5452    7.4863 C.3       1 RES1    0.0000
     23 H8         2.5743    4.8240    7.3072 H         1 RES1    0.0000
     24 H9         4.0488    5.3353    7.4925 H         1 RES1    0.0000
     25 C13        3.5556    3.8559    8.8362 C.3       1 RES1    0.0000
     26 H10        4.4785    3.6407    9.0450 H         1 RES1    0.0000
     27 H11        3.2224    4.4534    9.5244 H         1 RES1    0.0000
     28 C14        2.7351    2.5962    8.8221 C.ar      1 RES1    0.0000
@<TRIPOS>BOND
     1    1    3 2
     2    2    3 2
     3    3   10 1
     4    4    5 1
     5    6    4 ar
     6    7    6 1
     7    8    6 ar
     8    9    8 1
     9   10    8 ar
    10   11   10 ar
    11   12   11 1
    12   13   12 ar
    13   14   13 1
    14   15   13 ar
    15   16   15 1
    16   17   15 ar
    17   18   17 1
    18   19   17 ar
    19   20   19 1
    20   21   12 ar
    21   22   21 1
    22   23   22 1
    23   24   22 1
    24   25   22 1
    25   26   25 1
    26   27   25 1
    27   28    4 ar
    28   11   28 ar
    29   19   21 ar
    30   25   28 1
@<TRIPOS>SUBSTRUCTURE
     1 RES1 1

@<TRIPOS>CRYSIN
   8.6710   16.4284    7.8287  90.0000  92.5420  90.0000  14 2

