# MOL2 file generated by ConQuest
# Please check atom types

@<TRIPOS>MOLECULE
MEWHIH
    44    46     1
SMALL
NO_CHARGES
****
Generated from CSD

@<TRIPOS>ATOM
      1 O1        -2.4485    3.1936    1.9189 O.3       1 RES1    0.0000
      2 O2         0.7135    1.1917    0.2748 O.2       1 RES1    0.0000
      3 O3         2.0621    2.7705    0.9307 O.2       1 RES1    0.0000
      4 O4         2.9902    3.3753    7.1874 O.3       1 RES1    0.0000
      5 N1         0.9229    2.2708    0.8854 N.pl3     1 RES1    0.0000
      6 N2        -1.8484    1.3873    0.7880 N.pl3     1 RES1    0.0000
      7 H1        -1.2628    0.8879    0.4051 H         1 RES1    0.0000
      8 N3        -0.5873    7.3803    3.3147 N.1       1 RES1    0.0000
      9 C1        -2.2455    4.4798    2.3887 C.2       1 RES1    0.0000
     10 C2        -1.0147    4.9611    2.5520 C.2       1 RES1    0.0000
     11 C3         0.2418    4.1667    2.2818 C.3       1 RES1    0.0000
     12 H2         0.8176    4.7142    1.7086 H         1 RES1    0.0000
     13 C4        -0.1243    2.9337    1.5079 C.2       1 RES1    0.0000
     14 C5        -1.4208    2.4750    1.3822 C.2       1 RES1    0.0000
     15 C6        -3.2319    0.9630    0.7269 C.3       1 RES1    0.0000
     16 H3        -3.2770    0.0652    0.3883 H         1 RES1    0.0000
     17 H4        -3.7218    1.5484    0.1448 H         1 RES1    0.0000
     18 H5        -3.6157    0.9933    1.6057 H         1 RES1    0.0000
     19 C7        -3.5297    5.1715    2.5946 C.ar      1 RES1    0.0000
     20 C8        -3.7264    6.0116    3.6858 C.ar      1 RES1    0.0000
     21 H6        -3.0590    6.1026    4.3281 H         1 RES1    0.0000
     22 C9        -4.9065    6.7093    3.8170 C.ar      1 RES1    0.0000
     23 H7        -5.0333    7.2734    4.5464 H         1 RES1    0.0000
     24 C10       -5.8956    6.5766    2.8786 C.ar      1 RES1    0.0000
     25 H8        -6.6824    7.0649    2.9617 H         1 RES1    0.0000
     26 C11       -5.7258    5.7205    1.8125 C.ar      1 RES1    0.0000
     27 H9        -6.4062    5.6166    1.1880 H         1 RES1    0.0000
     28 C12       -4.5457    5.0160    1.6719 C.ar      1 RES1    0.0000
     29 H10       -4.4340    4.4352    0.9529 H         1 RES1    0.0000
     30 C13       -0.8165    6.3157    2.9743 C.1       1 RES1    0.0000
     31 C14        1.0055    3.9013    3.5759 C.ar      1 RES1    0.0000
     32 C15        2.2383    4.4814    3.7753 C.ar      1 RES1    0.0000
     33 H11        2.6147    4.9864    3.0918 H         1 RES1    0.0000
     34 C16        2.9323    4.3358    4.9622 C.ar      1 RES1    0.0000
     35 H12        3.7607    4.7438    5.0754 H         1 RES1    0.0000
     36 C17        2.3849    3.5806    5.9769 C.ar      1 RES1    0.0000
     37 C18        1.1577    2.9671    5.7895 C.ar      1 RES1    0.0000
     38 H13        0.7916    2.4455    6.4670 H         1 RES1    0.0000
     39 C19        0.4740    3.1287    4.5997 C.ar      1 RES1    0.0000
     40 H14       -0.3499    2.7154    4.4835 H         1 RES1    0.0000
     41 C20        4.2302    4.0538    7.4061 C.3       1 RES1    0.0000
     42 H15        4.5545    3.8498    8.2868 H         1 RES1    0.0000
     43 H16        4.0962    5.0009    7.3255 H         1 RES1    0.0000
     44 H17        4.8713    3.7656    6.7525 H         1 RES1    0.0000
@<TRIPOS>BOND
     1    1    9 1
     2    2    5 2
     3    3    5 2
     4    4   36 1
     5    5   13 1
     6    6    7 1
     7    8   30 3
     8    9   10 2
     9   10   11 1
    10   11   12 1
    11   13   11 1
    12   14    1 1
    13   15    6 1
    14   16   15 1
    15   17   15 1
    16   18   15 1
    17   19    9 1
    18   20   19 ar
    19   21   20 1
    20   22   20 ar
    21   23   22 1
    22   24   22 ar
    23   25   24 1
    24   26   24 ar
    25   27   26 1
    26   28   19 ar
    27   29   28 1
    28   30   10 1
    29   31   11 1
    30   32   31 ar
    31   33   32 1
    32   34   32 ar
    33   35   34 1
    34   36   34 ar
    35   37   36 ar
    36   38   37 1
    37   39   31 ar
    38   40   39 1
    39   41    4 1
    40   42   41 1
    41   43   41 1
    42   44   41 1
    43    6   14 1
    44   13   14 2
    45   26   28 ar
    46   37   39 ar
@<TRIPOS>SUBSTRUCTURE
     1 RES1 1

@<TRIPOS>CRYSIN
  22.9422    7.5828   22.7319  90.0000 112.5760  90.0000  15 1

