# MOL2 file generated by ConQuest
# Please check atom types

@<TRIPOS>MOLECULE
MEWRIR
    28    29     1
SMALL
NO_CHARGES
****
Generated from CSD

@<TRIPOS>ATOM
      1 O1         0.4263    5.5299    6.8073 O.3       1 RES1    0.0000
      2 O2        -1.5469    4.6495   -0.5157 O.3       1 RES1    0.0000
      3 O3         2.1210    6.7536    1.1061 O.2       1 RES1    0.0000
      4 O4         2.1164    6.4513   -1.0960 O.3       1 RES1    0.0000
      5 N1        -1.5446    4.6090    0.9005 N.2       1 RES1    0.0000
      6 C1         1.7145    5.4733    7.3885 C.3       1 RES1    0.0000
      7 C2         0.3115    5.4301    5.4553 C.ar      1 RES1    0.0000
      8 C3         1.3355    5.0412    4.6079 C.ar      1 RES1    0.0000
      9 C4         1.1044    4.9735    3.2527 C.ar      1 RES1    0.0000
     10 C5        -0.1348    5.2769    2.7097 C.ar      1 RES1    0.0000
     11 C6        -1.1558    5.6591    3.5792 C.ar      1 RES1    0.0000
     12 C7        -0.9313    5.7372    4.9261 C.ar      1 RES1    0.0000
     13 C8        -0.4135    5.1530    1.2744 C.2       1 RES1    0.0000
     14 C9        -0.4087    5.2061   -0.9512 C.2       1 RES1    0.0000
     15 C10       -0.2797    5.3695   -2.4100 C.3       1 RES1    0.0000
     16 C11        0.3526    5.5483    0.1234 C.2       1 RES1    0.0000
     17 C12        1.6113    6.2893    0.0818 C.2       1 RES1    0.0000
     18 H1         2.1201    4.6267    7.1852 H         1 RES1    0.0000
     19 H2         1.6408    5.5719    8.3403 H         1 RES1    0.0000
     20 H3         2.2566    6.1821    7.0341 H         1 RES1    0.0000
     21 H4         2.1728    4.8271    4.9511 H         1 RES1    0.0000
     22 H5         1.7969    4.7174    2.6873 H         1 RES1    0.0000
     23 H6        -1.9974    5.8631    3.2393 H         1 RES1    0.0000
     24 H7        -1.6208    5.9992    5.4924 H         1 RES1    0.0000
     25 H8        -0.8990    4.7847   -2.8539 H         1 RES1    0.0000
     26 H9         0.6159    5.1505   -2.6790 H         1 RES1    0.0000
     27 H10       -0.4721    6.2786   -2.6481 H         1 RES1    0.0000
     28 H11        2.8172    6.8727   -1.0373 H         1 RES1    0.0000
@<TRIPOS>BOND
     1    1    6 1
     2    2    5 1
     3    3   17 2
     4    4   17 1
     5    5   13 2
     6    6   18 1
     7    7    1 1
     8    8    7 ar
     9    9    8 ar
    10   10    9 ar
    11   11   10 ar
    12   12    7 ar
    13   13   10 1
    14   14    2 1
    15   15   14 1
    16   16   13 1
    17   17   16 1
    18   19    6 1
    19   20    6 1
    20   21    8 1
    21   22    9 1
    22   23   11 1
    23   24   12 1
    24   25   15 1
    25   26   15 1
    26   27   15 1
    27   28    4 1
    28   11   12 ar
    29   14   16 2
@<TRIPOS>SUBSTRUCTURE
     1 RES1 1

@<TRIPOS>CRYSIN
   6.4147   14.6321   11.9911  90.0000  97.2200  90.0000  14 1

