# MOL2 file generated by ConQuest
# Please check atom types

@<TRIPOS>MOLECULE
MEWSAK
    19    18     1
SMALL
NO_CHARGES
****
Generated from CSD

@<TRIPOS>ATOM
      1 C1         7.0230    2.2231    2.5324 C.3       1 RES1    0.0000
      2 H1         7.0230    1.2662    2.3211 H         1 RES1    0.0000
      3 N1         7.0230    2.4306    4.0306 N.pl3     1 RES1    0.0000
      4 O1         7.0230    1.4449    4.7377 O.2       1 RES1    0.0000
      5 O2         7.0230    3.5700    4.4526 O.2       1 RES1    0.0000
      6 C2         8.2515    2.8927    1.9456 C.3       1 RES1    0.0000
      7 H2         8.2548    2.7611    0.9852 H         1 RES1    0.0000
      8 H3         8.2015    3.8466    2.1139 H         1 RES1    0.0000
      9 O3         9.4830    2.3831    2.4940 O.3       1 RES1    0.0000
     10 N2         9.9665    1.2230    1.8476 N.pl3     1 RES1    0.0000
     11 O4         9.2444    0.6899    1.0608 O.2       1 RES1    0.0000
     12 O5        11.0635    0.9300    2.2107 O.2       1 RES1    0.0000
     13 C2B        5.7945    2.8927    1.9456 C.3       1 RES1    0.0000
     14 H2B        5.7912    2.7611    0.9852 H         1 RES1    0.0000
     15 H3B        5.8445    3.8466    2.1139 H         1 RES1    0.0000
     16 O3B        4.5630    2.3831    2.4940 O.3       1 RES1    0.0000
     17 N2B        4.0795    1.2230    1.8476 N.pl3     1 RES1    0.0000
     18 O4B        4.8016    0.6899    1.0608 O.2       1 RES1    0.0000
     19 O5B        2.9825    0.9300    2.2107 O.2       1 RES1    0.0000
@<TRIPOS>BOND
     1    1    2 1
     2    3    1 1
     3    4    3 2
     4    5    3 2
     5    6    1 1
     6    7    6 1
     7    8    6 1
     8    9    6 1
     9   10    9 1
    10   11   10 2
    11   12   10 2
    12   13    1 1
    13   14   13 1
    14   15   13 1
    15   16   13 1
    16   17   16 1
    17   18   17 2
    18   19   17 2
@<TRIPOS>SUBSTRUCTURE
     1 RES1 1

@<TRIPOS>CRYSIN
  14.0460    9.6070    5.9030  90.0000  90.0000  90.0000  36 1

