# MOL2 file generated by ConQuest
# Please check atom types

@<TRIPOS>MOLECULE
MEWTUF
    37    38     1
SMALL
NO_CHARGES
****
Generated from CSD

@<TRIPOS>ATOM
      1 C1        -6.1764    1.7060    5.4157 C.3       1 RES1    0.0000
      2 H1        -6.9011    1.9831    4.8502 H         1 RES1    0.0000
      3 H2        -6.3898    0.8617    5.8188 H         1 RES1    0.0000
      4 H3        -5.3767    1.6171    4.8914 H         1 RES1    0.0000
      5 C2        -4.9733    2.4494    7.3337 C.ar      1 RES1    0.0000
      6 C3        -4.0553    1.4268    7.2649 C.ar      1 RES1    0.0000
      7 H4        -4.0673    0.8405    6.5434 H         1 RES1    0.0000
      8 C4        -3.1103    1.2683    8.2721 C.ar      1 RES1    0.0000
      9 H5        -2.4939    0.5741    8.2091 H         1 RES1    0.0000
     10 C5        -3.0622    2.1166    9.3667 C.ar      1 RES1    0.0000
     11 C6        -3.9882    3.1636    9.3911 C.ar      1 RES1    0.0000
     12 H6        -3.9797    3.7546   10.1092 H         1 RES1    0.0000
     13 C7        -4.9068    3.3486    8.3937 C.ar      1 RES1    0.0000
     14 H7        -5.4869    4.0747    8.4245 H         1 RES1    0.0000
     15 C8        -2.0733    1.9713   10.5026 C.3       1 RES1    0.0000
     16 H8        -2.5209    2.2987   11.3102 H         1 RES1    0.0000
     17 C9        -0.7374    2.7801   10.3665 C.3       1 RES1    0.0000
     18 C10       -0.4855    3.3301    8.9759 C.3       1 RES1    0.0000
     19 H9        -0.4849    2.6075    8.3284 H         1 RES1    0.0000
     20 H10       -1.1867    3.9561    8.7351 H         1 RES1    0.0000
     21 C11        0.3398    1.8204   10.8441 C.3       1 RES1    0.0000
     22 H11        0.7916    1.4056   10.0923 H         1 RES1    0.0000
     23 H12        0.9962    2.2819   11.3894 H         1 RES1    0.0000
     24 C12        0.4266   -0.3711   11.8978 C.3       1 RES1    0.0000
     25 H13        1.1780   -0.1332   12.4456 H         1 RES1    0.0000
     26 H14        0.7387   -0.7375   11.0672 H         1 RES1    0.0000
     27 H15       -0.1083   -1.0240   12.3548 H         1 RES1    0.0000
     28 C13       -1.5646    0.5691   10.8188 C.3       1 RES1    0.0000
     29 H16       -2.2264    0.0604   11.3133 H         1 RES1    0.0000
     30 H17       -1.3358    0.0884   10.0078 H         1 RES1    0.0000
     31 N1        -0.3821    0.8236   11.6314 N.3       1 RES1    0.0000
     32 N2        -0.8258    3.9865   11.3039 N.pl3     1 RES1    0.0000
     33 O1        -5.9714    2.6741    6.4277 O.3       1 RES1    0.0000
     34 O2         0.7590    3.9788    8.9709 O.3       1 RES1    0.0000
     35 H18        0.9023    4.2885    8.2260 H         1 RES1    0.0000
     36 O3        -1.7506    4.7530   11.1302 O.2       1 RES1    0.0000
     37 O4        -0.0081    4.1393   12.1674 O.2       1 RES1    0.0000
@<TRIPOS>BOND
     1    1    2 1
     2    3    1 1
     3    4    1 1
     4    5    6 ar
     5    6    7 1
     6    8    6 ar
     7    9    8 1
     8   10    8 ar
     9   11   10 ar
    10   12   11 1
    11   13    5 ar
    12   14   13 1
    13   15   10 1
    14   16   15 1
    15   17   15 1
    16   18   17 1
    17   19   18 1
    18   20   18 1
    19   21   17 1
    20   22   21 1
    21   23   21 1
    22   24   25 1
    23   26   24 1
    24   27   24 1
    25   28   15 1
    26   29   28 1
    27   30   28 1
    28   31   21 1
    29   32   17 1
    30   33    1 1
    31   34   18 1
    32   35   34 1
    33   36   32 2
    34   37   32 2
    35    5   33 1
    36   11   13 ar
    37   24   31 1
    38   28   31 1
@<TRIPOS>SUBSTRUCTURE
     1 RES1 1

@<TRIPOS>CRYSIN
  11.6827   11.1912   11.1789  90.0000 109.1180  90.0000  14 1

