# MOL2 file generated by ConQuest
# Please check atom types

@<TRIPOS>MOLECULE
MEWVUH
    32    34     1
SMALL
NO_CHARGES
****
Generated from CSD

@<TRIPOS>ATOM
      1 O1         3.4165    6.7811    4.3213 O.3       1 RES1    0.0000
      2 O2         0.5182    9.0532    6.0969 O.2       1 RES1    0.0000
      3 O3         0.1889    7.2628   12.4003 O.2       1 RES1    0.0000
      4 O4         0.9601    9.1326   13.1162 O.2       1 RES1    0.0000
      5 N1         0.8646    8.2718   12.2609 N.pl3     1 RES1    0.0000
      6 C1         2.8282    7.8023    3.6173 C.ar      1 RES1    0.0000
      7 C2         2.9689    6.5274    5.5730 C.2       1 RES1    0.0000
      8 H1         3.3618    5.7967    6.0350 H         1 RES1    0.0000
      9 C3         2.0139    7.2235    6.2185 C.2       1 RES1    0.0000
     10 C4         1.3843    8.3545    5.5547 C.2       1 RES1    0.0000
     11 C5         1.8433    8.6029    4.1859 C.ar      1 RES1    0.0000
     12 C6         1.2994    9.6375    3.4073 C.ar      1 RES1    0.0000
     13 H2         0.6230   10.1957    3.7712 H         1 RES1    0.0000
     14 C7         1.7376    9.8481    2.1212 C.ar      1 RES1    0.0000
     15 H3         1.3700   10.5543    1.6026 H         1 RES1    0.0000
     16 C8         2.7204    9.0255    1.5799 C.ar      1 RES1    0.0000
     17 H4         3.0174    9.1775    0.6902 H         1 RES1    0.0000
     18 C9         3.2693    7.9965    2.3085 C.ar      1 RES1    0.0000
     19 H5         3.9325    7.4319    1.9306 H         1 RES1    0.0000
     20 C10        1.5667    6.8199    7.5966 C.3       1 RES1    0.0000
     21 H6         1.9532    5.9311    7.7989 H         1 RES1    0.0000
     22 H7         0.5820    6.7180    7.5847 H         1 RES1    0.0000
     23 C11        1.9320    7.7638    8.7232 C.ar      1 RES1    0.0000
     24 C12        1.2865    7.6025    9.9485 C.ar      1 RES1    0.0000
     25 H8         0.6409    6.9149   10.0627 H         1 RES1    0.0000
     26 C13        1.5920    8.4496   10.9950 C.ar      1 RES1    0.0000
     27 C14        2.5255    9.4686   10.8937 C.ar      1 RES1    0.0000
     28 H9         2.7080   10.0467   11.6257 H         1 RES1    0.0000
     29 C15        3.1797    9.6084    9.6843 C.ar      1 RES1    0.0000
     30 H10        3.8371   10.2875    9.5841 H         1 RES1    0.0000
     31 C16        2.8900    8.7683    8.6100 C.ar      1 RES1    0.0000
     32 H11        3.3528    8.8826    7.7884 H         1 RES1    0.0000
@<TRIPOS>BOND
     1    1    6 1
     2    2   10 2
     3    3    5 2
     4    4    5 2
     5    5   26 1
     6    6   11 ar
     7    7    1 1
     8    8    7 1
     9    9    7 2
    10   10    9 1
    11   11   10 1
    12   12   11 ar
    13   13   12 1
    14   14   12 ar
    15   15   14 1
    16   16   14 ar
    17   17   16 1
    18   18    6 ar
    19   19   18 1
    20   20    9 1
    21   21   20 1
    22   22   20 1
    23   23   20 1
    24   24   23 ar
    25   25   24 1
    26   26   24 ar
    27   27   26 ar
    28   28   27 1
    29   29   27 ar
    30   30   29 1
    31   31   23 ar
    32   32   31 1
    33   16   18 ar
    34   29   31 ar
@<TRIPOS>SUBSTRUCTURE
     1 RES1 1

@<TRIPOS>CRYSIN
   4.6082   10.4219   26.4468  90.0000  90.4280  90.0000  14 1

