# MOL2 file generated by ConQuest
# Please check atom types

@<TRIPOS>MOLECULE
MEYJAB
    55    54     2
SMALL
NO_CHARGES
****
Generated from CSD

@<TRIPOS>ATOM
      1 C1         0.9932   -0.2579    1.4679 C.2       1 RES1    0.0000
      2 H1         0.2140   -0.7594    1.3805 H         1 RES1    0.0000
      3 C2         1.0762    1.1437    1.4096 C.2       1 RES1    0.0000
      4 C3         2.4032    1.5188    1.5325 C.2       1 RES1    0.0000
      5 C4         4.4930    0.1886    1.8302 C.2       1 RES1    0.0000
      6 C5         4.9739   -1.0652    2.1342 C.2       1 RES1    0.0000
      7 C6         4.0888   -2.2098    2.2092 C.2       1 RES1    0.0000
      8 C7         2.7843   -2.0600    1.8969 C.2       1 RES1    0.0000
      9 C8         2.2329   -0.7563    1.6699 C.2       1 RES1    0.0000
     10 C9         0.0064    2.0661    1.3243 C.1       1 RES1    0.0000
     11 C10        5.4496    1.3231    1.5887 C.3       1 RES1    0.0000
     12 H2         5.0552    1.9499    0.9786 H         1 RES1    0.0000
     13 H3         6.2641    0.9806    1.2139 H         1 RES1    0.0000
     14 H4         5.6402    1.7634    2.4216 H         1 RES1    0.0000
     15 H5         6.2512    1.1793    2.0967 Du        2 SUP2    0.0000
     16 H6         5.0423    2.1487    1.8615 Du        2 SUP2    0.0000
     17 H7         5.6660    1.3659    0.6559 Du        2 SUP2    0.0000
     18 C11        6.4243   -1.2140    2.4903 C.2       1 RES1    0.0000
     19 C12        7.9024   -1.2160    4.3684 C.3       1 RES1    0.0000
     20 H8         8.4705   -1.7715    3.7937 H         1 RES1    0.0000
     21 C13        8.4675    0.1570    4.4413 C.3       1 RES1    0.0000
     22 H9         7.9115    0.7023    5.0035 H         1 RES1    0.0000
     23 H10        8.5025    0.5362    3.5605 H         1 RES1    0.0000
     24 H11        9.3533    0.1182    4.8098 H         1 RES1    0.0000
     25 C14        7.7659   -1.8592    5.7031 C.3       1 RES1    0.0000
     26 H12        7.2079   -1.3169    6.2652 H         1 RES1    0.0000
     27 H13        8.6334   -1.9489    6.1049 H         1 RES1    0.0000
     28 H14        7.3700   -2.7276    5.6010 H         1 RES1    0.0000
     29 C15        4.7549   -3.5135    2.5340 C.ar      1 RES1    0.0000
     30 C16        5.4785   -4.1822    1.5637 C.ar      1 RES1    0.0000
     31 H15        5.4565   -3.8662    0.6892 H         1 RES1    0.0000
     32 C17        6.2360   -5.3095    1.8510 C.ar      1 RES1    0.0000
     33 H16        6.7079   -5.7448    1.1785 H         1 RES1    0.0000
     34 C18        6.2813   -5.7764    3.1482 C.ar      1 RES1    0.0000
     35 H17        6.7832   -6.5327    3.3481 H         1 RES1    0.0000
     36 C19        5.5994   -5.1413    4.1289 C.ar      1 RES1    0.0000
     37 H18        5.6444   -5.4502    5.0055 H         1 RES1    0.0000
     38 C20        4.8336   -4.0273    3.8187 C.ar      1 RES1    0.0000
     39 C21        1.9036   -3.2709    1.8594 C.2       1 RES1    0.0000
     40 C22       -0.3174   -4.0619    1.9302 C.3       1 RES1    0.0000
     41 H19       -1.2027   -3.7439    2.1238 H         1 RES1    0.0000
     42 H20       -0.0943   -4.7744    2.5340 H         1 RES1    0.0000
     43 H21       -0.2829   -4.3840    1.0265 H         1 RES1    0.0000
     44 N1         3.1480    0.3629    1.6587 N.pl3     1 RES1    0.0000
     45 N2        -0.8673    2.7919    1.2576 N.1       1 RES1    0.0000
     46 N3         2.9344    2.7919    1.5054 N.3       1 RES1    0.0000
     47 H22        2.2428    3.4656    1.3534 H         1 RES1    0.0000
     48 H23        3.5574    2.9560    2.0405 H         1 RES1    0.0000
     49 N4         4.0928   -3.3994    4.9306 N.pl3     1 RES1    0.0000
     50 O1         7.2987   -1.3445    1.7145 O.2       1 RES1    0.0000
     51 O2         6.5497   -1.1630    3.8097 O.3       1 RES1    0.0000
     52 O3         4.6776   -3.3402    6.0071 O.2       1 RES1    0.0000
     53 O4         2.9826   -2.9855    4.7161 O.2       1 RES1    0.0000
     54 O5         2.2980   -4.3697    1.6158 O.2       1 RES1    0.0000
     55 O6         0.6294   -2.9804    2.0926 O.3       1 RES1    0.0000
@<TRIPOS>BOND
     1    1    2 1
     2    3    1 1
     3    4    3 2
     4    5    6 2
     5    6    7 1
     6    7    8 2
     7    8    9 1
     8    9    1 2
     9   10    3 1
    10   11    5 1
    11   12   11 1
    12   13   11 1
    13   14   11 1
    14   18    6 1
    15   19   20 1
    16   21   19 1
    17   22   21 1
    18   23   21 1
    19   24   21 1
    20   25   19 1
    21   26   25 1
    22   27   25 1
    23   28   25 1
    24   29    7 1
    25   30   29 ar
    26   31   30 1
    27   32   30 ar
    28   33   32 1
    29   34   32 ar
    30   35   34 1
    31   36   34 ar
    32   37   36 1
    33   38   29 ar
    34   39    8 1
    35   40   41 1
    36   42   40 1
    37   43   40 1
    38   44    4 1
    39   45   10 3
    40   46    4 1
    41   47   46 1
    42   48   46 1
    43   49   38 1
    44   50   18 2
    45   51   18 1
    46   52   49 2
    47   53   49 2
    48   54   39 2
    49   55   39 1
    50    5   44 1
    51    9   44 1
    52   19   51 1
    53   36   38 ar
    54   40   55 1
@<TRIPOS>SUBSTRUCTURE
     1 RES1 1
     2 SUP2 15

@<TRIPOS>CRYSIN
   9.7120   10.1930   20.9430  90.0000  96.1700  90.0000  14 1

