# MOL2 file generated by ConQuest
# Please check atom types

@<TRIPOS>MOLECULE
MEZNOX
    50    52     1
SMALL
NO_CHARGES
****
Generated from CSD

@<TRIPOS>ATOM
      1 N1         1.2387   -1.1356   -1.5235 N.pl3     1 RES1    0.0000
      2 N2         2.5505   -0.0155    3.7830 N.3       1 RES1    0.0000
      3 H1         2.5116   -0.7491    4.3728 H         1 RES1    0.0000
      4 O1         0.9445   -2.2902   -1.8143 O.2       1 RES1    0.0000
      5 O2         1.2820   -0.2343   -2.3578 O.2       1 RES1    0.0000
      6 O3         3.0603    3.6738    5.6917 O.2       1 RES1    0.0000
      7 C1         1.5562   -0.8157   -0.1515 C.ar      1 RES1    0.0000
      8 C2         1.3900   -1.7873    0.8177 C.ar      1 RES1    0.0000
      9 H2         1.0594   -2.6464    0.5832 H         1 RES1    0.0000
     10 C3         1.7072   -1.4995    2.1235 C.ar      1 RES1    0.0000
     11 H3         1.5715   -2.1583    2.7934 H         1 RES1    0.0000
     12 C4         2.2294   -0.2450    2.4811 C.ar      1 RES1    0.0000
     13 C5         2.3786    0.7295    1.4745 C.ar      1 RES1    0.0000
     14 H4         2.7247    1.5863    1.6956 H         1 RES1    0.0000
     15 C6         2.0267    0.4495    0.1710 C.ar      1 RES1    0.0000
     16 H5         2.1054    1.1166   -0.5002 H         1 RES1    0.0000
     17 C7         3.0831    1.2444    4.2850 C.3       1 RES1    0.0000
     18 H6         2.5647    1.9906    3.8664 H         1 RES1    0.0000
     19 C8         4.5534    1.4228    3.9210 C.ar      1 RES1    0.0000
     20 C9         5.0037    2.5691    3.2786 C.ar      1 RES1    0.0000
     21 H7         4.3922    3.2683    3.0798 H         1 RES1    0.0000
     22 C10        6.3432    2.7035    2.9219 C.ar      1 RES1    0.0000
     23 H8         6.6410    3.4883    2.4759 H         1 RES1    0.0000
     24 C11        7.2388    1.6921    3.2174 C.ar      1 RES1    0.0000
     25 H9         8.1527    1.7801    2.9719 H         1 RES1    0.0000
     26 C12        6.8023    0.5470    3.8722 C.ar      1 RES1    0.0000
     27 H10        7.4201   -0.1439    4.0843 H         1 RES1    0.0000
     28 C13        5.4716    0.4120    4.2161 C.ar      1 RES1    0.0000
     29 H11        5.1770   -0.3758    4.6571 H         1 RES1    0.0000
     30 C14        2.8521    1.2932    5.8052 C.3       1 RES1    0.0000
     31 H12        3.4581    0.6249    6.2385 H         1 RES1    0.0000
     32 C15        1.3880    0.9602    6.2084 C.3       1 RES1    0.0000
     33 H13        1.2284   -0.0059    6.0621 H         1 RES1    0.0000
     34 H14        1.2753    1.1392    7.1745 H         1 RES1    0.0000
     35 C16        0.3450    1.7504    5.4399 C.3       1 RES1    0.0000
     36 H15        0.5775    2.7023    5.4582 H         1 RES1    0.0000
     37 H16       -0.5334    1.6214    5.8546 H         1 RES1    0.0000
     38 H17        0.3180    1.4382    4.5118 H         1 RES1    0.0000
     39 C17        3.1717    2.6630    6.3697 C.2       1 RES1    0.0000
     40 C18        3.5409    2.7885    7.8160 C.ar      1 RES1    0.0000
     41 C19        4.2067    1.7765    8.5102 C.ar      1 RES1    0.0000
     42 H18        4.4084    0.9566    8.0752 H         1 RES1    0.0000
     43 C20        4.5730    1.9656    9.8328 C.ar      1 RES1    0.0000
     44 H19        5.0475    1.2831   10.2937 H         1 RES1    0.0000
     45 C21        4.2536    3.1393   10.4845 C.ar      1 RES1    0.0000
     46 H20        4.4948    3.2570   11.3958 H         1 RES1    0.0000
     47 C22        3.5820    4.1447    9.8116 C.ar      1 RES1    0.0000
     48 H21        3.3585    4.9503   10.2626 H         1 RES1    0.0000
     49 C23        3.2336    3.9770    8.4776 C.ar      1 RES1    0.0000
     50 H22        2.7843    4.6744    8.0150 H         1 RES1    0.0000
@<TRIPOS>BOND
     1    1    4 2
     2    2    3 1
     3    5    1 2
     4    6   39 2
     5    7    1 1
     6    8    7 ar
     7    9    8 1
     8   10    8 ar
     9   11   10 1
    10   12    2 1
    11   13   12 ar
    12   14   13 1
    13   15    7 ar
    14   16   15 1
    15   17    2 1
    16   18   17 1
    17   19   17 1
    18   20   19 ar
    19   21   20 1
    20   22   20 ar
    21   23   22 1
    22   24   22 ar
    23   25   24 1
    24   26   24 ar
    25   27   26 1
    26   28   19 ar
    27   29   28 1
    28   30   17 1
    29   31   30 1
    30   32   30 1
    31   33   32 1
    32   34   32 1
    33   35   32 1
    34   36   35 1
    35   37   35 1
    36   38   35 1
    37   39   30 1
    38   40   39 1
    39   41   40 ar
    40   42   41 1
    41   43   41 ar
    42   44   43 1
    43   45   43 ar
    44   46   45 1
    45   47   45 ar
    46   48   47 1
    47   49   40 ar
    48   50   49 1
    49   10   12 ar
    50   13   15 ar
    51   26   28 ar
    52   47   49 ar
@<TRIPOS>SUBSTRUCTURE
     1 RES1 1

@<TRIPOS>CRYSIN
  15.2536    5.9456   20.9336  90.0000  97.5206  90.0000  14 1

