# MOL2 file generated by ConQuest
# Please check atom types

@<TRIPOS>MOLECULE
MEZXOE
    42    44     1
SMALL
NO_CHARGES
****
Generated from CSD

@<TRIPOS>ATOM
      1 O1         5.9679   -0.0228    1.1444 O.3       1 RES1    0.0000
      2 C1         5.2684   -1.1547    0.8387 C.2       1 RES1    0.0000
      3 N1         5.9835   -1.9219   -0.0039 N.3       1 RES1    0.0000
      4 C2         4.0310   -1.3938    1.3247 C.2       1 RES1    0.0000
      5 C3         3.3722   -2.5993    0.9589 C.1       1 RES1    0.0000
      6 N2         2.8353   -3.5702    0.6832 N.1       1 RES1    0.0000
      7 C4         3.3505   -0.4798    2.3202 C.3       1 RES1    0.0000
      8 C5         3.2470   -1.1733    3.6814 C.ar      1 RES1    0.0000
      9 C6         2.0843   -1.4701    4.3712 C.ar      1 RES1    0.0000
     10 N3         0.7829   -1.1212    3.8121 N.pl3     1 RES1    0.0000
     11 O2         0.5774   -1.2175    2.6442 O.2       1 RES1    0.0000
     12 O3        -0.0895   -0.8065    4.6443 O.2       1 RES1    0.0000
     13 C7         2.1002   -2.0892    5.6188 C.ar      1 RES1    0.0000
     14 C8         3.2884   -2.4366    6.1897 C.ar      1 RES1    0.0000
     15 C9         4.4434   -2.1341    5.5496 C.ar      1 RES1    0.0000
     16 C10        4.4220   -1.5116    4.3229 C.ar      1 RES1    0.0000
     17 C11        4.1518    0.7876    2.4521 C.2       1 RES1    0.0000
     18 C12        3.5476    1.9205    3.1537 C.2       1 RES1    0.0000
     19 O4         2.4099    1.8265    3.5991 O.2       1 RES1    0.0000
     20 C13        4.3380    3.1870    3.2477 C.3       1 RES1    0.0000
     21 C14        5.8450    2.9694    3.3431 C.3       1 RES1    0.0000
     22 C15        6.5779    4.3094    3.2556 C.3       1 RES1    0.0000
     23 C16        6.2030    2.2833    4.6678 C.3       1 RES1    0.0000
     24 C17        6.2778    2.0862    2.1595 C.3       1 RES1    0.0000
     25 C18        5.3785    0.9293    1.9465 C.2       1 RES1    0.0000
     26 H1         5.6556   -2.6618   -0.2952 H         1 RES1    0.0000
     27 H2         6.7682   -1.6732   -0.2508 H         1 RES1    0.0000
     28 H3         2.4512   -0.2626    1.9975 H         1 RES1    0.0000
     29 H4         1.3022   -2.2652    6.0617 H         1 RES1    0.0000
     30 H5         3.3063   -2.8760    7.0088 H         1 RES1    0.0000
     31 H6         5.2581   -2.3489    5.9428 H         1 RES1    0.0000
     32 H7         5.2304   -1.3103    3.9101 H         1 RES1    0.0000
     33 H8         4.0445    3.6806    4.0303 H         1 RES1    0.0000
     34 H9         4.1491    3.7315    2.4678 H         1 RES1    0.0000
     35 H10        6.3353    4.7552    2.4404 H         1 RES1    0.0000
     36 H11        7.5262    4.1567    3.2660 H         1 RES1    0.0000
     37 H12        6.3337    4.8566    4.0054 H         1 RES1    0.0000
     38 H13        5.8974    2.8237    5.3994 H         1 RES1    0.0000
     39 H14        7.1550    2.1748    4.7253 H         1 RES1    0.0000
     40 H15        5.7799    1.4222    4.7057 H         1 RES1    0.0000
     41 H16        6.2953    2.6253    1.3534 H         1 RES1    0.0000
     42 H17        7.1771    1.7620    2.3202 H         1 RES1    0.0000
@<TRIPOS>BOND
     1    1    2 1
     2    2    3 1
     3    3   26 1
     4    4    2 2
     5    5    4 1
     6    6    5 3
     7    7    4 1
     8    8    7 1
     9    9    8 ar
    10   10    9 1
    11   11   10 2
    12   12   10 2
    13   13    9 ar
    14   14   13 ar
    15   15   14 ar
    16   16    8 ar
    17   17    7 1
    18   18   17 1
    19   19   18 2
    20   20   18 1
    21   21   20 1
    22   22   21 1
    23   23   21 1
    24   24   21 1
    25   25    1 1
    26   27    3 1
    27   28    7 1
    28   29   13 1
    29   30   14 1
    30   31   15 1
    31   32   16 1
    32   33   20 1
    33   34   20 1
    34   35   22 1
    35   36   22 1
    36   37   22 1
    37   38   23 1
    38   39   23 1
    39   40   23 1
    40   41   24 1
    41   42   24 1
    42   15   16 ar
    43   17   25 2
    44   24   25 1
@<TRIPOS>SUBSTRUCTURE
     1 RES1 1

@<TRIPOS>CRYSIN
   7.6566    8.4992   13.3019  94.1880  99.6480  94.2820   2 1

