# MOL2 file generated by ConQuest
# Please check atom types

@<TRIPOS>MOLECULE
MEZYUO
    35    39     1
SMALL
NO_CHARGES
****
Generated from CSD

@<TRIPOS>ATOM
      1 C1        14.5825   10.1116   -0.7625 C.ar      1 RES1    0.0000
      2 H1        15.2996    9.7664   -1.2812 H         1 RES1    0.0000
      3 C2        14.5056   11.4626   -0.5117 C.ar      1 RES1    0.0000
      4 H2        15.1681   12.0486   -0.8605 H         1 RES1    0.0000
      5 C3        13.4700   11.9698    0.2456 C.ar      1 RES1    0.0000
      6 H3        13.4319   12.9010    0.4285 H         1 RES1    0.0000
      7 C4        12.4840   11.1331    0.7416 C.ar      1 RES1    0.0000
      8 C5        11.3320   11.7004    1.5559 C.3       1 RES1    0.0000
      9 H4        11.4972   11.5615    2.5222 H         1 RES1    0.0000
     10 H5        11.2441   12.6732    1.3900 H         1 RES1    0.0000
     11 C6        10.0592   10.9838    1.1357 C.3       1 RES1    0.0000
     12 H6         9.8496   11.1890    0.1803 H         1 RES1    0.0000
     13 C7        10.2689    9.5199    1.3095 C.ar      1 RES1    0.0000
     14 C8         8.2193    9.9813    2.2579 C.2       1 RES1    0.0000
     15 C9         7.3177   12.4110    0.7290 C.3       1 RES1    0.0000
     16 H7         6.8380   13.2649    0.7168 H         1 RES1    0.0000
     17 H8         6.6734   11.6732    0.7590 H         1 RES1    0.0000
     18 H9         7.8661   12.3322   -0.0793 H         1 RES1    0.0000
     19 C10       12.0845    5.4899    1.8773 C.3       1 RES1    0.0000
     20 H10       12.6395    4.7578    2.1199 H         1 RES1    0.0000
     21 H11       12.6304    5.6303    2.8567 H         1 RES1    0.0000
     22 O1        10.7043    5.6055    2.1434 O.3       1 RES1    0.0000
     23 O2        12.5030    6.6694    1.1753 O.3       1 RES1    0.0000
     24 O3         7.0949    9.8944    2.7204 O.2       1 RES1    0.0000
     25 O4         8.1615   12.3530    1.8851 O.3       1 RES1    0.0000
     26 N1         8.8721   11.1641    1.9587 N.am      1 RES1    0.0000
     27 C11        9.2085    8.9297    1.9461 C.ar      1 RES1    0.0000
     28 C12        9.2367    7.5630    2.2827 C.ar      1 RES1    0.0000
     29 H12        8.5129    7.1174    2.7086 H         1 RES1    0.0000
     30 C13       10.3980    6.9355    1.9405 C.ar      1 RES1    0.0000
     31 C14       11.4832    7.5601    1.3386 C.ar      1 RES1    0.0000
     32 C15       11.4799    8.9068    1.0107 C.ar      1 RES1    0.0000
     33 C16       13.6238    9.2592   -0.2635 C.ar      1 RES1    0.0000
     34 H13       13.6859    8.3266   -0.4320 H         1 RES1    0.0000
     35 C17       12.5593    9.7592    0.4890 C.ar      1 RES1    0.0000
@<TRIPOS>BOND
     1    1    2 1
     2    3    1 ar
     3    4    3 1
     4    5    3 ar
     5    6    5 1
     6    7    5 ar
     7    8    7 1
     8    9    8 1
     9   10    8 1
    10   11    8 1
    11   12   11 1
    12   13   11 1
    13   14   24 2
    14   15   16 1
    15   17   15 1
    16   18   15 1
    17   19   20 1
    18   21   19 1
    19   22   19 1
    20   23   19 1
    21   25   15 1
    22   26   11 1
    23   27   13 ar
    24   28   27 ar
    25   29   28 1
    26   30   22 1
    27   31   23 1
    28   32   13 ar
    29   33    1 ar
    30   34   33 1
    31   35    7 ar
    32   14   26 1
    33   14   27 1
    34   25   26 1
    35   28   30 ar
    36   30   31 ar
    37   31   32 ar
    38   32   35 1
    39   33   35 ar
@<TRIPOS>SUBSTRUCTURE
     1 RES1 1

@<TRIPOS>CRYSIN
  16.5428   16.5428    4.3547  90.0000  90.0000 120.0000 145 1

