# MOL2 file generated by ConQuest
# Please check atom types

@<TRIPOS>MOLECULE
MFCBXA
    15    15     1
SMALL
NO_CHARGES
****
Generated from CSD

@<TRIPOS>ATOM
      1 C1         0.9656   -2.3476    0.3831 C.2       1 RES1    0.0000
      2 C2         1.6361   -3.4940   -0.1169 C.2       1 RES1    0.0000
      3 C3        -0.4449   -1.9107    0.3453 C.3       1 RES1    0.0000
      4 C4         1.0216   -4.6063   -0.9036 C.2       1 RES1    0.0000
      5 H1         1.3654   -6.4744   -1.3859 H         1 RES1    0.0000
      6 H2         2.3826   -5.8659   -0.5158 H         1 RES1    0.0000
      7 H3        -0.6533   -1.3509    0.9253 H         1 RES1    0.0000
      8 H4        -0.6998   -1.6430   -0.5630 H         1 RES1    0.0000
      9 H5        -1.0734   -2.6409    0.6615 H         1 RES1    0.0000
     10 N1         1.8946   -1.6369    1.0036 N.pl3     1 RES1    0.0000
     11 N2         2.9111   -3.4904    0.1693 N.2       1 RES1    0.0000
     12 N3         1.7160   -5.7284   -0.9867 N.am      1 RES1    0.0000
     13 O1         3.1532   -2.3354    0.8757 O.3       1 RES1    0.0000
     14 O2         1.8985   -0.5817    1.6553 O.2       1 RES1    0.0000
     15 O3        -0.0607   -4.4128   -1.4482 O.2       1 RES1    0.0000
@<TRIPOS>BOND
     1    1    2 1
     2    2    4 1
     3    3    1 1
     4    4   12 1
     5    5   12 1
     6    6   12 1
     7    7    3 1
     8    8    3 1
     9    9    3 1
    10   10    1 2
    11   11    2 2
    12   13   10 1
    13   14   10 1
    14   15    4 2
    15   11   13 1
@<TRIPOS>SUBSTRUCTURE
     1 RES1 1

@<TRIPOS>CRYSIN
  12.6400   12.1700    3.9400  90.0000  92.1000  90.0000 231 1

