# MOL2 file generated by ConQuest
# Please check atom types

@<TRIPOS>MOLECULE
MFHPYC
    47    48     1
SMALL
NO_CHARGES
****
Generated from CSD

@<TRIPOS>ATOM
      1 O1         3.2559    3.0871   -1.4602 O.3       1 RES1    0.0000
      2 O2         1.1201    5.0325   -0.1904 O.2       1 RES1    0.0000
      3 O3         1.3364    0.1756    0.5899 O.2       1 RES1    0.0000
      4 O4         1.2797   -1.9579    0.1987 O.2       1 RES1    0.0000
      5 O5         1.3465    5.2177   -4.0557 O.2       1 RES1    0.0000
      6 O6         0.3554    3.7484   -5.4321 O.3       1 RES1    0.0000
      7 O7        -1.3684    1.6458   -3.5031 O.2       1 RES1    0.0000
      8 O8        -1.6619    3.8131   -2.9463 O.3       1 RES1    0.0000
      9 N1         0.9777    3.5357   -1.8586 N.am      1 RES1    0.0000
     10 N2         1.7282   -0.8266    0.0145 N.pl3     1 RES1    0.0000
     11 C1         0.8247    4.1737   -4.2513 C.2       1 RES1    0.0000
     12 C2         0.5537    3.0973   -3.2091 C.3       1 RES1    0.0000
     13 C3         1.4280    1.8582   -3.4596 C.3       1 RES1    0.0000
     14 C4         1.7233    1.3440   -2.0242 C.3       1 RES1    0.0000
     15 C5         1.9537    2.6285   -1.2367 C.3       1 RES1    0.0000
     16 C6         2.8564    0.3376   -1.8959 C.ar      1 RES1    0.0000
     17 C7         2.8383   -0.7118   -0.9614 C.ar      1 RES1    0.0000
     18 C8         3.8255   -1.6688   -0.8786 C.ar      1 RES1    0.0000
     19 C9         4.9187   -1.5846   -1.7065 C.ar      1 RES1    0.0000
     20 C10        4.9877   -0.5525   -2.6162 C.ar      1 RES1    0.0000
     21 C11        3.9698    0.3842   -2.7238 C.ar      1 RES1    0.0000
     22 C12        0.5163    4.6572   -6.5839 C.3       1 RES1    0.0000
     23 C13        1.8969    4.4688   -7.1738 C.3       1 RES1    0.0000
     24 C14        0.6388    4.6956   -1.2750 C.2       1 RES1    0.0000
     25 C15       -0.9480    2.7249   -3.2402 C.2       1 RES1    0.0000
     26 C16       -3.1188    3.6318   -2.8438 C.3       1 RES1    0.0000
     27 C17       -3.7676    3.7492   -4.1964 C.3       1 RES1    0.0000
     28 H1         3.3639    3.9082   -1.0556 H         1 RES1    0.0000
     29 H2         2.3139    2.0913   -3.9429 H         1 RES1    0.0000
     30 H3         0.9681    1.1633   -4.0464 H         1 RES1    0.0000
     31 H4         0.8602    0.8957   -1.6868 H         1 RES1    0.0000
     32 H5         1.7798    2.5157   -0.2380 H         1 RES1    0.0000
     33 H6         3.7512   -2.4303   -0.2070 H         1 RES1    0.0000
     34 H7         5.6823   -2.2785   -1.6558 H         1 RES1    0.0000
     35 H8         5.8003   -0.4691   -3.2185 H         1 RES1    0.0000
     36 H9         4.0362    1.1238   -3.4461 H         1 RES1    0.0000
     37 H10        0.3857    5.6276   -6.3127 H         1 RES1    0.0000
     38 H11       -0.1769    4.4545   -7.3062 H         1 RES1    0.0000
     39 H12        2.0784    5.0670   -7.9478 H         1 RES1    0.0000
     40 H13        2.0403    3.5155   -7.4511 H         1 RES1    0.0000
     41 H14        2.6063    4.6787   -6.4576 H         1 RES1    0.0000
     42 H15       -0.0445    5.3083   -1.7696 H         1 RES1    0.0000
     43 H16       -3.5203    4.3466   -2.2250 H         1 RES1    0.0000
     44 H17       -3.3554    2.7379   -2.4320 H         1 RES1    0.0000
     45 H18       -4.7778    3.6402   -4.1498 H         1 RES1    0.0000
     46 H19       -3.4160    3.0418   -4.8225 H         1 RES1    0.0000
     47 H20       -3.5917    4.6484   -4.6052 H         1 RES1    0.0000
@<TRIPOS>BOND
     1    1   15 1
     2    2   24 2
     3    3   10 2
     4    4   10 2
     5    5   11 2
     6    6   11 1
     7    7   25 2
     8    8   25 1
     9    9   12 1
    10   10   17 1
    11   11   12 1
    12   12   13 1
    13   13   14 1
    14   14   15 1
    15   15    9 1
    16   16   14 1
    17   17   16 ar
    18   18   17 ar
    19   19   18 ar
    20   20   19 ar
    21   21   16 ar
    22   22    6 1
    23   23   22 1
    24   24    9 1
    25   25   12 1
    26   26    8 1
    27   27   26 1
    28   28    1 1
    29   29   13 1
    30   30   13 1
    31   31   14 1
    32   32   15 1
    33   33   18 1
    34   34   19 1
    35   35   20 1
    36   36   21 1
    37   37   22 1
    38   38   22 1
    39   39   23 1
    40   40   23 1
    41   41   23 1
    42   42   24 1
    43   43   26 1
    44   44   26 1
    45   45   27 1
    46   46   27 1
    47   47   27 1
    48   20   21 ar
@<TRIPOS>SUBSTRUCTURE
     1 RES1 1

@<TRIPOS>CRYSIN
   9.0780   10.4650   10.7140  98.3400  98.9600 108.9400   2 1

