# MOL2 file generated by ConQuest
# Please check atom types

@<TRIPOS>MOLECULE
MFRCAH10
    17    17     1
SMALL
NO_CHARGES
****
Generated from CSD

@<TRIPOS>ATOM
      1 C1        -2.6643    1.3974   -3.1266 C.2       1 RES1    0.0000
      2 C2        -3.9673    0.8698   -2.9820 C.2       1 RES1    0.0000
      3 C3        -4.8456    0.3658   -4.0777 C.2       1 RES1    0.0000
      4 C4        -1.7946    1.6492   -4.3107 C.3       1 RES1    0.0000
      5 H1        -2.2278    2.4141   -4.7561 H         1 RES1    0.0000
      6 H2        -1.8217    0.9176   -4.9263 H         1 RES1    0.0000
      7 H3        -0.9393    1.9450   -4.0179 H         1 RES1    0.0000
      8 H4        -6.3211   -0.0292   -3.0424 H         1 RES1    0.0000
      9 H5        -7.1197    0.0953   -5.1465 H         1 RES1    0.0000
     10 H6        -6.6565   -1.2653   -4.9360 H         1 RES1    0.0000
     11 N1        -2.2578    1.6933   -1.9095 N.pl3     1 RES1    0.0000
     12 N2        -4.3518    0.8546   -1.7338 N.2       1 RES1    0.0000
     13 N3        -6.0550   -0.0388   -3.7049 N.am      1 RES1    0.0000
     14 N4        -7.0153   -0.5032   -4.6036 N.3       1 RES1    0.0000
     15 O1        -3.3311    1.3602   -0.9938 O.3       1 RES1    0.0000
     16 O2        -1.2280    2.1533   -1.4202 O.2       1 RES1    0.0000
     17 O3        -4.4326    0.3275   -5.2277 O.2       1 RES1    0.0000
@<TRIPOS>BOND
     1    1    2 1
     2    2    3 1
     3    3   13 1
     4    4    1 1
     5    5    4 1
     6    6    4 1
     7    7    4 1
     8    8   13 1
     9    9   14 1
    10   10   14 1
    11   11    1 2
    12   12    2 2
    13   13   14 1
    14   15   11 1
    15   16   11 1
    16   17    3 2
    17   12   15 1
@<TRIPOS>SUBSTRUCTURE
     1 RES1 1

@<TRIPOS>CRYSIN
   9.0920    6.7330    6.9870  69.9100 117.7200 117.4000   2 1

