# MOL2 file generated by ConQuest
# Please check atom types

@<TRIPOS>MOLECULE
MFURCH10
    17    17     1
SMALL
NO_CHARGES
****
Generated from CSD

@<TRIPOS>ATOM
      1 C1        -4.1864    2.6720    1.2731 C.2       1 RES1    0.0000
      2 C2        -3.1215    1.8526    1.7401 C.2       1 RES1    0.0000
      3 C3        -1.8279    2.2495    2.3384 C.2       1 RES1    0.0000
      4 C4        -4.2748    4.1609    1.2688 C.3       1 RES1    0.0000
      5 H1        -3.4482    4.5050    0.7239 H         1 RES1    0.0000
      6 H2        -4.1571    4.4606    2.2359 H         1 RES1    0.0000
      7 H3        -5.0939    4.4117    0.9159 H         1 RES1    0.0000
      8 H4        -1.2684    0.4330    2.7036 H         1 RES1    0.0000
      9 H5         0.8303    1.5152    2.7679 H         1 RES1    0.0000
     10 H6         0.1416    2.3813    3.6441 H         1 RES1    0.0000
     11 N1        -5.1607    1.9438    0.7968 N.2       1 RES1    0.0000
     12 N2        -3.4866    0.5957    1.5286 N.pl3     1 RES1    0.0000
     13 N3        -1.0173    1.2697    2.7260 N.am      1 RES1    0.0000
     14 N4         0.2153    1.5506    3.3626 N.3       1 RES1    0.0000
     15 O1        -4.7799    0.6153    0.9260 O.3       1 RES1    0.0000
     16 O2        -2.9701   -0.5001    1.7466 O.2       1 RES1    0.0000
     17 O3        -1.5794    3.4432    2.4655 O.2       1 RES1    0.0000
@<TRIPOS>BOND
     1    1    2 1
     2    2    3 1
     3    3   13 1
     4    4    1 1
     5    5    4 1
     6    6    4 1
     7    7    4 1
     8    8   13 1
     9    9   14 1
    10   10   14 1
    11   11    1 2
    12   12    2 2
    13   13   14 1
    14   15   11 1
    15   16   12 1
    16   17    3 2
    17   12   15 1
@<TRIPOS>SUBSTRUCTURE
     1 RES1 1

@<TRIPOS>CRYSIN
  12.1510    7.5310    7.2360  90.0000  94.1100  90.0000  14 1

