# MOL2 file generated by ConQuest
# Please check atom types

@<TRIPOS>MOLECULE
MFXCMA
    21    21     1
SMALL
NO_CHARGES
****
Generated from CSD

@<TRIPOS>ATOM
      1 C1         7.8935    3.6088    0.9645 C.2       1 RES1    0.0000
      2 C2         6.7176    4.3118    0.6280 C.2       1 RES1    0.0000
      3 C3         8.2369    2.1689    0.9653 C.3       1 RES1    0.0000
      4 C4         5.4937    3.6824    0.0213 C.2       1 RES1    0.0000
      5 C5         3.1364    3.5318   -0.3128 C.3       1 RES1    0.0000
      6 C6         4.0224    5.1698    1.3428 C.3       1 RES1    0.0000
      7 H1         9.0269    1.9018    0.3940 H         1 RES1    0.0000
      8 H2         7.5317    1.6414    0.8826 H         1 RES1    0.0000
      9 H3         8.7685    2.0036    1.5366 H         1 RES1    0.0000
     10 H4         2.4552    4.2224   -0.5043 H         1 RES1    0.0000
     11 H5         3.3043    3.3734   -1.2529 H         1 RES1    0.0000
     12 H6         2.8798    2.7168    0.0788 H         1 RES1    0.0000
     13 H7         3.9320    6.0675    0.9220 H         1 RES1    0.0000
     14 H8         3.1751    4.9468    1.7809 H         1 RES1    0.0000
     15 H9         4.7627    5.1959    1.9858 H         1 RES1    0.0000
     16 N1         8.7482    4.5167    1.3672 N.pl3     1 RES1    0.0000
     17 N2         6.8487    5.5955    0.7762 N.2       1 RES1    0.0000
     18 N3         4.2938    4.1420    0.3381 N.am      1 RES1    0.0000
     19 O1         8.1169    5.8128    1.2419 O.3       1 RES1    0.0000
     20 O2         9.9112    4.4827    1.8006 O.2       1 RES1    0.0000
     21 O3         5.6912    2.7576   -0.7581 O.2       1 RES1    0.0000
@<TRIPOS>BOND
     1    1    2 1
     2    2    4 1
     3    3    1 1
     4    4   18 1
     5    5   10 1
     6    6   13 1
     7    7    3 1
     8    8    3 1
     9    9    3 1
    10   11    5 1
    11   12    5 1
    12   14    6 1
    13   15    6 1
    14   16    1 2
    15   17    2 2
    16   18    5 1
    17   19   16 1
    18   20   16 1
    19   21    4 2
    20    6   18 1
    21   17   19 1
@<TRIPOS>SUBSTRUCTURE
     1 RES1 1

@<TRIPOS>CRYSIN
  18.4600   11.3200    7.8800  90.0000  90.0000  90.0000  61 1

