# MOL2 file generated by ConQuest
# Please check atom types

@<TRIPOS>MOLECULE
MFZCHZ
    16    16     1
SMALL
NO_CHARGES
****
Generated from CSD

@<TRIPOS>ATOM
      1 C1         3.0867    2.0923    1.2585 C.2       1 RES1    0.0000
      2 C2         3.5491    3.3392    1.8076 C.2       1 RES1    0.0000
      3 C3         1.7307    1.6981    0.8238 C.3       1 RES1    0.0000
      4 C4         2.7510    4.5539    2.1529 C.2       1 RES1    0.0000
      5 H1         4.2233    5.8009    1.6076 H         1 RES1    0.0000
      6 H2         1.8401    0.9172    0.3321 H         1 RES1    0.0000
      7 H3         1.2597    1.4378    1.6453 H         1 RES1    0.0000
      8 H4         1.3458    2.3550    0.2679 H         1 RES1    0.0000
      9 H5         2.7155    7.4866    1.7321 H         1 RES1    0.0000
     10 H6         3.2646    7.3131    3.0341 H         1 RES1    0.0000
     11 N1         4.1135    1.2866    1.1865 N.2       1 RES1    0.0000
     12 N2         4.8178    3.2599    2.0767 N.2       1 RES1    0.0000
     13 N3         3.3869    5.7166    1.9952 N.am      1 RES1    0.0000
     14 N4         2.7310    6.8966    2.4307 N.3       1 RES1    0.0000
     15 O1         5.1947    1.9906    1.7008 O.3       1 RES1    0.0000
     16 O2         1.6042    4.4201    2.5692 O.2       1 RES1    0.0000
@<TRIPOS>BOND
     1    1    2 1
     2    2    4 1
     3    3    1 1
     4    4   13 1
     5    5   13 1
     6    6    3 1
     7    7    3 1
     8    8    3 1
     9    9   14 1
    10   10   14 1
    11   11    1 2
    12   12    2 2
    13   13   14 1
    14   15   11 1
    15   16    4 2
    16   12   15 1
@<TRIPOS>SUBSTRUCTURE
     1 RES1 1

@<TRIPOS>CRYSIN
   6.6400   24.7900    3.7800  90.0000  93.3000  90.0000 231 1

