# MOL2 file generated by ConQuest
# Please check atom types

@<TRIPOS>MOLECULE
MHNTCN
    25    25     1
SMALL
NO_CHARGES
****
Generated from CSD

@<TRIPOS>ATOM
      1 C1        -0.3657   -7.2332    5.8900 C.ar      1 RES1    0.0000
      2 C2        -0.7443   -8.4728    6.5797 C.2       1 RES1    0.0000
      3 C3        -1.3770   -8.5650    7.7211 C.2       1 RES1    0.0000
      4 C4        -1.6888   -9.8689    8.3282 C.2       1 RES1    0.0000
      5 C5        -2.6516  -10.9237   10.2146 C.3       1 RES1    0.0000
      6 C6        -0.6274   -5.9748    6.4081 C.ar      1 RES1    0.0000
      7 C7        -0.2588   -4.8331    5.7086 C.ar      1 RES1    0.0000
      8 C8         0.4048   -4.9182    4.4776 C.ar      1 RES1    0.0000
      9 C9         0.6475   -6.1773    3.9641 C.ar      1 RES1    0.0000
     10 C10        0.2842   -7.3023    4.6541 C.ar      1 RES1    0.0000
     11 H1         0.6149   -3.1370    4.2520 H         1 RES1    0.0000
     12 H2        -0.5416   -9.3042    6.1228 H         1 RES1    0.0000
     13 H3        -1.7406   -7.7891    8.2367 H         1 RES1    0.0000
     14 H4        -1.8934  -11.4596   10.3262 H         1 RES1    0.0000
     15 H5        -3.1086  -10.6487   11.0065 H         1 RES1    0.0000
     16 H6        -3.1103  -11.5663    9.6338 H         1 RES1    0.0000
     17 H7        -1.0313   -5.8472    7.2162 H         1 RES1    0.0000
     18 H8         1.1086   -6.2099    3.1465 H         1 RES1    0.0000
     19 H9         0.3778   -8.1946    4.3006 H         1 RES1    0.0000
     20 N1        -0.5841   -3.5427    6.2855 N.pl3     1 RES1    0.0000
     21 O1         0.8268   -3.8653    3.7500 O.3       1 RES1    0.0000
     22 O2        -2.3099   -9.7142    9.5071 O.3       1 RES1    0.0000
     23 O3        -1.4207  -10.9372    7.8818 O.2       1 RES1    0.0000
     24 O4        -1.2537   -3.5015    7.2974 O.2       1 RES1    0.0000
     25 O5        -0.1776   -2.5222    5.7318 O.2       1 RES1    0.0000
@<TRIPOS>BOND
     1    1    2 1
     2    2    3 2
     3    3    4 1
     4    4   22 1
     5    5   14 1
     6    6    1 ar
     7    7    6 ar
     8    8    7 ar
     9    9    8 ar
    10   10    1 ar
    11   11   21 1
    12   12    2 1
    13   13    3 1
    14   15    5 1
    15   16    5 1
    16   17    6 1
    17   18    9 1
    18   19   10 1
    19   20    7 1
    20   21    8 1
    21   22    5 1
    22   23    4 2
    23   24   20 2
    24   25   20 2
    25    9   10 ar
@<TRIPOS>SUBSTRUCTURE
     1 RES1 1

@<TRIPOS>CRYSIN
   3.8730   21.3400   12.1500  90.0000  90.9000  90.0000  14 1

