# MOL2 file generated by ConQuest
# Please check atom types

@<TRIPOS>MOLECULE
MHPIPO10
    12    12     1
SMALL
USER_CHARGES
****
Generated from CSD

@<TRIPOS>ATOM
      1 C1         1.4043   -0.0000   -0.3499 C.3       1 RES1    0.0000
      2 C2         1.8047    1.2039   -1.2628 C.3       1 RES1    0.0000
      3 C3         3.3204    1.4081   -1.3135 C.3       1 RES1    0.0000
      4 C4         3.8761    1.8221    0.0304 C.3       1 RES1    0.0000
      5 C5         3.7298    2.3290   -2.4748 C.3       1 RES1    0.0000
      6 N1         3.7850   -0.0000   -1.6989 N.3       1 RES1    1.0000
      7 O1         0.0000    0.0000    0.0000 O.3       1 RES1    0.0000
      8 O2         4.9773   -0.0000   -2.0995 O.2       1 RES1   -1.0000
      9 C2B        1.8047   -1.2039   -1.2628 C.3       1 RES1    0.0000
     10 C3B        3.3204   -1.4081   -1.3135 C.3       1 RES1    0.0000
     11 C4B        3.8761   -1.8221    0.0304 C.3       1 RES1    0.0000
     12 C5B        3.7298   -2.3290   -2.4748 C.3       1 RES1    0.0000
@<TRIPOS>BOND
     1    1    2 1
     2    2    3 1
     3    3    4 1
     4    5    3 1
     5    6    3 1
     6    7    1 1
     7    8    6 1
     8    9    1 1
     9   10    6 1
    10   11   10 1
    11   12   10 1
    12    9   10 1
@<TRIPOS>SUBSTRUCTURE
     1 RES1 1

@<TRIPOS>CRYSIN
   7.0520   14.0810    5.7800  90.0000 118.6700  90.0000   8 1

