# MOL2 file generated by ConQuest
# Please check atom types

@<TRIPOS>MOLECULE
MHPIPO11
    30    29     2
SMALL
NO_CHARGES
****
Generated from CSD

@<TRIPOS>ATOM
      1 C1        -0.2565    6.9033    3.7928 C.3       1 RES1    0.0000
      2 H1         0.2411    6.9033    4.6605 H         1 RES1    0.0000
      3 C2         0.1683    8.1287    3.0031 C.3       1 RES1    0.0000
      4 H2        -0.1622    8.9400    3.4639 H         1 RES1    0.0000
      5 H3        -0.2528    8.0968    2.1075 H         1 RES1    0.0000
      6 C3         1.6843    8.2338    2.8366 C.3       1 RES1    0.0000
      7 C4         2.3647    8.6886    4.1328 C.3       1 RES1    0.0000
      8 H4         2.1296    8.0736    4.8584 H         1 RES1    0.0000
      9 H5         2.0636    9.5929    4.3599 H         1 RES1    0.0000
     10 H6         3.3372    8.6900    4.0080 H         1 RES1    0.0000
     11 C5         2.0040    9.2147    1.7024 C.3       1 RES1    0.0000
     12 H7         2.9753    9.2890    1.5988 H         1 RES1    0.0000
     13 H8         1.6299   10.0948    1.9172 H         1 RES1    0.0000
     14 H9         1.6100    8.8875    0.8669 H         1 RES1    0.0000
     15 N1         2.2545    6.9033    2.4400 N.3       1 RES1    0.0000
     16 O1        -1.6467    6.9033    4.0792 O.3       1 RES1    0.0000
     17 O2         3.4736    6.9033    2.0358 O.2       1 RES1    0.0000
     18 H10       -2.1304    7.1518    3.2994 Du        2 SUP2    0.0000
     19 C2A        0.1683    5.6778    3.0031 C.3       1 RES1    0.0000
     20 H2A       -0.1622    4.8665    3.4639 H         1 RES1    0.0000
     21 H3A       -0.2528    5.7097    2.1075 H         1 RES1    0.0000
     22 C3A        1.6843    5.5727    2.8366 C.3       1 RES1    0.0000
     23 C4A        2.3647    5.1179    4.1328 C.3       1 RES1    0.0000
     24 H4A        2.1296    5.7329    4.8584 H         1 RES1    0.0000
     25 H5A        2.0636    4.2136    4.3599 H         1 RES1    0.0000
     26 H6A        3.3372    5.1165    4.0080 H         1 RES1    0.0000
     27 C5A        2.0040    4.5918    1.7024 C.3       1 RES1    0.0000
     28 H7A        2.9753    4.5175    1.5988 H         1 RES1    0.0000
     29 H8A        1.6299    3.7117    1.9172 H         1 RES1    0.0000
     30 H9A        1.6100    4.9190    0.8669 H         1 RES1    0.0000
@<TRIPOS>BOND
     1    1    2 1
     2    3    1 1
     3    4    3 1
     4    5    3 1
     5    6    3 1
     6    7    6 1
     7    8    7 1
     8    9    7 1
     9   10    7 1
    10   11    6 1
    11   12   11 1
    12   13   11 1
    13   14   11 1
    14   15    6 1
    15   16    1 1
    16   17   15 1
    17   19    1 1
    18   20   19 1
    19   21   19 1
    20   22   15 1
    21   23   22 1
    22   24   23 1
    23   25   23 1
    24   26   23 1
    25   27   22 1
    26   28   27 1
    27   29   27 1
    28   30   27 1
    29   19   22 1
@<TRIPOS>SUBSTRUCTURE
     1 RES1 1
     2 SUP2 18

@<TRIPOS>CRYSIN
   7.0310   13.8065    5.7429  90.0000 119.1750  90.0000   8 1

