# MOL2 file generated by ConQuest
# Please check atom types

@<TRIPOS>MOLECULE
MIBJOX
    35    37     1
SMALL
NO_CHARGES
****
Generated from CSD

@<TRIPOS>ATOM
      1 N1         7.5947    1.1364   12.1884 N.2       1 RES1    0.0000
      2 O1         5.0397    3.0698    7.9325 O.2       1 RES1    0.0000
      3 O2         4.0968    3.8400    9.7872 O.3       1 RES1    0.0000
      4 O3         8.7952    1.6377   11.6289 O.3       1 RES1    0.0000
      5 O4         5.2349    2.5168   14.0311 O.3       1 RES1    0.0000
      6 O5         4.0251    3.7965   12.6257 O.3       1 RES1    0.0000
      7 C1         3.2241    4.6072    7.7603 C.3       1 RES1    0.0000
      8 H1         3.3402    4.5211    6.8105 H         1 RES1    0.0000
      9 H2         3.3547    5.5233    8.0167 H         1 RES1    0.0000
     10 H3         2.3373    4.3313    8.0009 H         1 RES1    0.0000
     11 C2         4.2142    3.7534    8.4588 C.2       1 RES1    0.0000
     12 C3         5.0760    3.1320   10.5857 C.3       1 RES1    0.0000
     13 H4         5.3800    2.3446   10.0877 H         1 RES1    0.0000
     14 C4         6.2612    4.0387   10.8311 C.3       1 RES1    0.0000
     15 H5         5.9484    4.8853   11.1864 H         1 RES1    0.0000
     16 H6         6.7094    4.2151    9.9897 H         1 RES1    0.0000
     17 C5         7.2585    3.4128   11.8147 C.3       1 RES1    0.0000
     18 H7         7.3972    4.0138   12.5761 H         1 RES1    0.0000
     19 C6         8.5992    2.9971   11.2347 C.3       1 RES1    0.0000
     20 H8         8.5896    3.0729   10.2679 H         1 RES1    0.0000
     21 H9         9.3095    3.5584   11.5833 H         1 RES1    0.0000
     22 C7         6.7748    2.0877   12.2977 C.2       1 RES1    0.0000
     23 C8         5.3719    1.8995   12.7628 C.3       1 RES1    0.0000
     24 H10        5.1373    0.9492   12.8037 H         1 RES1    0.0000
     25 C9         4.4012    2.6740   11.8471 C.3       1 RES1    0.0000
     26 H11        3.6176    2.1247   11.6354 H         1 RES1    0.0000
     27 C10        4.1271    3.4246   13.9938 C.3       1 RES1    0.0000
     28 C11        4.4915    4.6549   14.7800 C.3       1 RES1    0.0000
     29 H12        5.3050    5.0274   14.4336 H         1 RES1    0.0000
     30 H13        4.6149    4.4205   15.7031 H         1 RES1    0.0000
     31 H14        3.7861    5.3023   14.7055 H         1 RES1    0.0000
     32 C12        2.8742    2.7336   14.4678 C.3       1 RES1    0.0000
     33 H15        2.7178    1.9524   13.9325 H         1 RES1    0.0000
     34 H16        2.1284    3.3322   14.3862 H         1 RES1    0.0000
     35 H17        2.9790    2.4763   15.3869 H         1 RES1    0.0000
@<TRIPOS>BOND
     1    1    4 1
     2    2   11 2
     3    3   11 1
     4    4   19 1
     5    5   23 1
     6    6   25 1
     7    7    8 1
     8    9    7 1
     9   10    7 1
    10   11    7 1
    11   12    3 1
    12   13   12 1
    13   14   12 1
    14   15   14 1
    15   16   14 1
    16   17   14 1
    17   18   17 1
    18   19   17 1
    19   20   19 1
    20   21   19 1
    21   22    1 2
    22   23   22 1
    23   24   23 1
    24   25   12 1
    25   26   25 1
    26   27    5 1
    27   28   27 1
    28   29   28 1
    29   30   28 1
    30   31   28 1
    31   32   27 1
    32   33   32 1
    33   34   32 1
    34   35   32 1
    35    6   27 1
    36   17   22 1
    37   23   25 1
@<TRIPOS>SUBSTRUCTURE
     1 RES1 1

@<TRIPOS>CRYSIN
   8.0623   10.3743   15.8090  90.0000  90.0000  90.0000  19 1

