# MOL2 file generated by ConQuest
# Please check atom types

@<TRIPOS>MOLECULE
MIBJIR
    30    32     1
SMALL
NO_CHARGES
****
Generated from CSD

@<TRIPOS>ATOM
      1 N1         2.5004    2.3070    3.4668 N.2       1 RES1    0.0000
      2 O1         2.4741    1.7430    4.7745 O.3       1 RES1    0.0000
      3 O2        -2.0638    2.9058    2.4856 O.3       1 RES1    0.0000
      4 H1        -2.6466    2.7038    3.0253 H         1 RES1    0.0000
      5 O3         0.5752    1.2042    0.7008 O.3       1 RES1    0.0000
      6 O4         1.9523    3.0344    0.8342 O.3       1 RES1    0.0000
      7 C1         1.1513    1.9350    5.3375 C.3       1 RES1    0.0000
      8 H2         1.1664    2.6274    6.0166 H         1 RES1    0.0000
      9 H3         0.8266    1.1130    5.7375 H         1 RES1    0.0000
     10 C2         0.2684    2.3489    4.1674 C.3       1 RES1    0.0000
     11 H4        -0.2595    3.1435    4.3903 H         1 RES1    0.0000
     12 C3         1.3253    2.6739    3.1551 C.2       1 RES1    0.0000
     13 C4        -0.6145    1.2617    3.5354 C.3       1 RES1    0.0000
     14 H5        -0.0805    0.4729    3.3513 H         1 RES1    0.0000
     15 H6        -1.3185    1.0124    4.1546 H         1 RES1    0.0000
     16 C5        -1.2281    1.7771    2.2438 C.3       1 RES1    0.0000
     17 H7        -1.7599    1.0639    1.8314 H         1 RES1    0.0000
     18 C6        -0.1933    2.2809    1.2391 C.3       1 RES1    0.0000
     19 H8        -0.6498    2.7504    0.5098 H         1 RES1    0.0000
     20 C7         0.9266    3.1732    1.7985 C.3       1 RES1    0.0000
     21 H9         0.6290    4.1052    1.8501 H         1 RES1    0.0000
     22 C8         1.7350    1.8003    0.1096 C.3       1 RES1    0.0000
     23 C9         2.9082    0.8736    0.3013 C.3       1 RES1    0.0000
     24 H10        3.0141    0.6816    1.2365 H         1 RES1    0.0000
     25 H11        3.7051    1.2925   -0.0323 H         1 RES1    0.0000
     26 H12        2.7518    0.0565   -0.1770 H         1 RES1    0.0000
     27 C10        1.4894    2.1511   -1.3471 C.3       1 RES1    0.0000
     28 H13        0.7347    2.7404   -1.4118 H         1 RES1    0.0000
     29 H14        1.3135    1.3490   -1.8441 H         1 RES1    0.0000
     30 H15        2.2664    2.5858   -1.7071 H         1 RES1    0.0000
@<TRIPOS>BOND
     1    1    2 1
     2    2    7 1
     3    3    4 1
     4    5   18 1
     5    6   20 1
     6    7    8 1
     7    9    7 1
     8   10    7 1
     9   11   10 1
    10   12    1 2
    11   13   10 1
    12   14   13 1
    13   15   13 1
    14   16    3 1
    15   17   16 1
    16   18   16 1
    17   19   18 1
    18   20   12 1
    19   21   20 1
    20   22    5 1
    21   23   22 1
    22   24   23 1
    23   25   23 1
    24   26   23 1
    25   27   22 1
    26   28   27 1
    27   29   27 1
    28   30   27 1
    29    6   22 1
    30   10   12 1
    31   13   16 1
    32   18   20 1
@<TRIPOS>SUBSTRUCTURE
     1 RES1 1

@<TRIPOS>CRYSIN
   7.2410    8.3118    9.2383  90.0000 112.9020  90.0000   4 1

