# MOL2 file generated by ConQuest
# Please check atom types

@<TRIPOS>MOLECULE
MICXAY
    68    73     1
SMALL
NO_CHARGES
****
Generated from CSD

@<TRIPOS>ATOM
      1 O1         2.8161    6.1747    1.8318 O.3       1 RES1    0.0000
      2 O2        -0.4081    5.8964    3.7493 O.3       1 RES1    0.0000
      3 O3        -0.8875    4.1779    1.6164 O.3       1 RES1    0.0000
      4 O4        -0.6291    2.5962    3.2022 O.2       1 RES1    0.0000
      5 O5         2.5222    4.7034    4.3504 O.3       1 RES1    0.0000
      6 O6         3.7877    4.9395    6.1889 O.2       1 RES1    0.0000
      7 O7        -7.5665    2.7531    1.2324 O.2       1 RES1    0.0000
      8 O8        -7.0377    0.6662    1.3935 O.2       1 RES1    0.0000
      9 O9         3.4381   -2.0313    4.3080 O.2       1 RES1    0.0000
     10 O10        4.3552   -1.9735    6.2568 O.2       1 RES1    0.0000
     11 N1        -6.7650    1.8589    1.4251 N.pl3     1 RES1    0.0000
     12 N2         3.8002   -1.4362    5.3175 N.pl3     1 RES1    0.0000
     13 C1        -0.7279    6.7956    2.6633 C.3       1 RES1    0.0000
     14 H1        -1.4882    6.5033    2.0824 H         1 RES1    0.0000
     15 C2         0.4620    5.9301    2.6112 C.3       1 RES1    0.0000
     16 C3         1.8675    6.4411    2.8910 C.3       1 RES1    0.0000
     17 C4         2.4832    7.5466    2.1227 C.3       1 RES1    0.0000
     18 H2         3.1946    8.0423    2.6209 H         1 RES1    0.0000
     19 C5         0.4635    4.6412    1.8091 C.3       1 RES1    0.0000
     20 H3         0.8908    4.7972    0.9299 H         1 RES1    0.0000
     21 H4         0.9872    3.9513    2.2879 H         1 RES1    0.0000
     22 C6         2.4168    6.1385    4.2579 C.3       1 RES1    0.0000
     23 H5         3.3058    6.5581    4.3725 H         1 RES1    0.0000
     24 H6         1.8102    6.4866    4.9585 H         1 RES1    0.0000
     25 C7        -0.6924    8.2513    2.9652 C.ar      1 RES1    0.0000
     26 C8        -1.3175    9.1312    2.0889 C.ar      1 RES1    0.0000
     27 H7        -1.7911    8.7927    1.3386 H         1 RES1    0.0000
     28 C9        -1.2548   10.4957    2.3037 C.ar      1 RES1    0.0000
     29 H8        -1.6778   11.0917    1.6975 H         1 RES1    0.0000
     30 C10       -0.5753   10.9929    3.4039 C.ar      1 RES1    0.0000
     31 H9        -0.5084   11.9304    3.5378 H         1 RES1    0.0000
     32 C11        0.0036   10.1237    4.3013 C.ar      1 RES1    0.0000
     33 H10        0.4438   10.4653    5.0709 H         1 RES1    0.0000
     34 C12       -0.0507    8.7560    4.0911 C.ar      1 RES1    0.0000
     35 H11        0.3495    8.1628    4.7163 H         1 RES1    0.0000
     36 C13        1.8213    8.3454    1.0555 C.ar      1 RES1    0.0000
     37 C14        1.1189    7.7667    0.0045 C.ar      1 RES1    0.0000
     38 H12        1.0730    6.8206   -0.0670 H         1 RES1    0.0000
     39 C15        0.4850    8.5564   -0.9396 C.ar      1 RES1    0.0000
     40 H13       -0.0011    8.1532   -1.6499 H         1 RES1    0.0000
     41 C16        0.5614    9.9365   -0.8462 C.ar      1 RES1    0.0000
     42 H14        0.1155   10.4820   -1.4834 H         1 RES1    0.0000
     43 C17        1.2854   10.5187    0.1743 C.ar      1 RES1    0.0000
     44 H15        1.3516   11.4651    0.2292 H         1 RES1    0.0000
     45 C18        1.9148    9.7271    1.1184 C.ar      1 RES1    0.0000
     46 H16        2.4150   10.1337    1.8165 H         1 RES1    0.0000
     47 C19       -2.7586    2.8746    2.1601 C.ar      1 RES1    0.0000
     48 C20       -3.5828    3.7637    1.4830 C.ar      1 RES1    0.0000
     49 H17       -3.2306    4.5849    1.1591 H         1 RES1    0.0000
     50 C21       -4.9134    3.4573    1.2776 C.ar      1 RES1    0.0000
     51 H18       -5.4984    4.0730    0.8520 H         1 RES1    0.0000
     52 C22       -5.3681    2.2257    1.7105 C.ar      1 RES1    0.0000
     53 C23       -4.5804    1.3245    2.3858 C.ar      1 RES1    0.0000
     54 H19       -4.9286    0.4880    2.6728 H         1 RES1    0.0000
     55 C24       -3.2624    1.6741    2.6362 C.ar      1 RES1    0.0000
     56 H20       -2.7031    1.0892    3.1356 H         1 RES1    0.0000
     57 C25       -1.3188    3.1811    2.4098 C.2       1 RES1    0.0000
     58 C26        3.2990    2.7429    5.3826 C.ar      1 RES1    0.0000
     59 C27        2.5914    1.9798    4.4672 C.ar      1 RES1    0.0000
     60 H21        1.9987    2.4016    3.8556 H         1 RES1    0.0000
     61 C28        2.7479    0.5996    4.4419 C.ar      1 RES1    0.0000
     62 H22        2.2869    0.0680    3.8037 H         1 RES1    0.0000
     63 C29        3.5903    0.0218    5.3683 C.ar      1 RES1    0.0000
     64 C30        4.2622    0.7519    6.3258 C.ar      1 RES1    0.0000
     65 H23        4.8120    0.3221    6.9717 H         1 RES1    0.0000
     66 C31        4.1143    2.1243    6.3217 C.ar      1 RES1    0.0000
     67 H24        4.5737    2.6497    6.9653 H         1 RES1    0.0000
     68 C32        3.2366    4.2362    5.3858 C.2       1 RES1    0.0000
@<TRIPOS>BOND
     1    1   16 1
     2    2   13 1
     3    3   19 1
     4    4   57 2
     5    5   22 1
     6    6   68 2
     7    7   11 2
     8    8   11 2
     9    9   12 2
    10   10   12 2
    11   11   52 1
    12   12   63 1
    13   13   14 1
    14   15    2 1
    15   16   15 1
    16   17    1 1
    17   18   17 1
    18   19   15 1
    19   20   19 1
    20   21   19 1
    21   22   16 1
    22   23   22 1
    23   24   22 1
    24   25   13 1
    25   26   25 ar
    26   27   26 1
    27   28   26 ar
    28   29   28 1
    29   30   28 ar
    30   31   30 1
    31   32   30 ar
    32   33   32 1
    33   34   25 ar
    34   35   34 1
    35   36   17 1
    36   37   36 ar
    37   38   37 1
    38   39   37 ar
    39   40   39 1
    40   41   39 ar
    41   42   41 1
    42   43   41 ar
    43   44   43 1
    44   45   36 ar
    45   46   45 1
    46   47   48 ar
    47   48   49 1
    48   50   48 ar
    49   51   50 1
    50   52   50 ar
    51   53   52 ar
    52   54   53 1
    53   55   47 ar
    54   56   55 1
    55   57    3 1
    56   58   59 ar
    57   59   60 1
    58   61   59 ar
    59   62   61 1
    60   63   61 ar
    61   64   63 ar
    62   65   64 1
    63   66   58 ar
    64   67   66 1
    65   68    5 1
    66   13   15 1
    67   16   17 1
    68   32   34 ar
    69   43   45 ar
    70   47   57 1
    71   53   55 ar
    72   58   68 1
    73   64   66 ar
@<TRIPOS>SUBSTRUCTURE
     1 RES1 1

@<TRIPOS>CRYSIN
  10.5922   11.9304   21.6245  90.0000  90.0000  90.0000  19 1

