# MOL2 file generated by ConQuest
# Please check atom types

@<TRIPOS>MOLECULE
MIDDUB
    53    57     1
SMALL
NO_CHARGES
****
Generated from CSD

@<TRIPOS>ATOM
      1 N1         3.2885    9.1999    1.9641 N.3       1 RES1    0.0000
      2 O1         4.6017    7.8606   -0.8411 O.2       1 RES1    0.0000
      3 O2         3.0757   11.7991    2.5517 O.2       1 RES1    0.0000
      4 O3         3.0250   12.3517    4.6120 O.2       1 RES1    0.0000
      5 C1         4.8409    6.8603    2.6268 C.3       1 RES1    0.0000
      6 C2         3.9575    6.9394    1.3158 C.3       1 RES1    0.0000
      7 C3         4.5557    8.0049    3.6174 C.ar      1 RES1    0.0000
      8 C4         6.3098    7.3503    0.7623 C.2       1 RES1    0.0000
      9 C5         6.2676    7.1179    2.0859 C.2       1 RES1    0.0000
     10 C6         3.8931    9.1901    3.1902 C.ar      1 RES1    0.0000
     11 C7         4.9335    7.4325    0.2510 C.2       1 RES1    0.0000
     12 C8         3.8799   10.2763    4.0954 C.ar      1 RES1    0.0000
     13 C9         5.0976    7.9618    4.8937 C.ar      1 RES1    0.0000
     14 C10        5.0048    9.0235    5.7900 C.ar      1 RES1    0.0000
     15 C11        4.4012   10.1880    5.3810 C.ar      1 RES1    0.0000
     16 C12        2.8118    7.9214    1.4730 C.3       1 RES1    0.0000
     17 C13        7.4260    7.2785    3.0020 C.ar      1 RES1    0.0000
     18 C14        4.7371    5.4844    3.2968 C.ar      1 RES1    0.0000
     19 C15        3.8443    5.2444    4.3358 C.ar      1 RES1    0.0000
     20 N2         3.2863   11.5508    3.7274 N.pl3     1 RES1    0.0000
     21 C16        7.9010    8.5749    3.2192 C.ar      1 RES1    0.0000
     22 C17        5.4828    4.4049    2.8237 C.ar      1 RES1    0.0000
     23 C18        5.3530    3.1395    3.3820 C.ar      1 RES1    0.0000
     24 C19        8.0296    6.2263    3.6864 C.ar      1 RES1    0.0000
     25 C20        9.5048    7.7616    4.8083 C.ar      1 RES1    0.0000
     26 C21        9.0581    6.4782    4.5839 C.ar      1 RES1    0.0000
     27 C22        7.5075    7.5921   -0.0994 C.3       1 RES1    0.0000
     28 H1         8.2332    7.9107    0.4431 H         1 RES1    0.0000
     29 H2         7.2945    8.2494   -0.7658 H         1 RES1    0.0000
     30 H3         7.7636    6.7724   -0.5276 H         1 RES1    0.0000
     31 C23        8.9288    8.8115    4.1192 C.ar      1 RES1    0.0000
     32 C24        3.7080    3.9761    4.8886 C.ar      1 RES1    0.0000
     33 C25        3.3803    5.6087    0.8098 C.3       1 RES1    0.0000
     34 C26        4.4674    2.9213    4.4162 C.ar      1 RES1    0.0000
     35 H4         2.8198    9.9226    1.8223 H         1 RES1    0.0000
     36 H5         5.5361    7.1199    5.1428 H         1 RES1    0.0000
     37 H6         5.3317    8.9416    6.6628 H         1 RES1    0.0000
     38 H7         4.2969   10.9532    5.9739 H         1 RES1    0.0000
     39 H8         3.2968    5.9712    4.6946 H         1 RES1    0.0000
     40 H9         6.1446    4.5216    2.0861 H         1 RES1    0.0000
     41 H10        5.8870    2.3820    3.0068 H         1 RES1    0.0000
     42 H11        4.3963    2.0343    4.7932 H         1 RES1    0.0000
     43 H12        7.4859    9.2977    2.7289 H         1 RES1    0.0000
     44 H13       10.2508    7.9351    5.4232 H         1 RES1    0.0000
     45 H14        9.4703    5.7227    5.0775 H         1 RES1    0.0000
     46 H15        9.2401    9.7018    4.2425 H         1 RES1    0.0000
     47 H16        7.6938    5.3009    3.5664 H         1 RES1    0.0000
     48 H17        2.3744    8.0894    0.6070 H         1 RES1    0.0000
     49 H18        2.7791    5.2227    1.4637 H         1 RES1    0.0000
     50 H19        2.1563    7.5422    2.0861 H         1 RES1    0.0000
     51 H20        2.8622    5.8018    0.0231 H         1 RES1    0.0000
     52 H21        4.0923    4.9167    0.5814 H         1 RES1    0.0000
     53 H22        3.0594    3.8402    5.6025 H         1 RES1    0.0000
@<TRIPOS>BOND
     1    1   10 1
     2    2   11 2
     3    3   20 2
     4    4   20 2
     5    5    6 1
     6    6   11 1
     7    7    5 1
     8    8    9 2
     9    9    5 1
    10   10    7 ar
    11   11    8 1
    12   12   10 ar
    13   13    7 ar
    14   14   13 ar
    15   15   12 ar
    16   16    1 1
    17   17    9 1
    18   18    5 1
    19   19   18 ar
    20   20   12 1
    21   21   17 ar
    22   22   18 ar
    23   23   22 ar
    24   24   17 ar
    25   25   26 ar
    26   26   24 ar
    27   27    8 1
    28   28   27 1
    29   29   27 1
    30   30   27 1
    31   31   21 ar
    32   32   19 ar
    33   33    6 1
    34   34   23 ar
    35   35    1 1
    36   36   13 1
    37   37   14 1
    38   38   15 1
    39   39   19 1
    40   40   22 1
    41   41   23 1
    42   42   34 1
    43   43   21 1
    44   44   25 1
    45   45   26 1
    46   46   31 1
    47   47   24 1
    48   48   16 1
    49   49   33 1
    50   50   16 1
    51   51   33 1
    52   52   33 1
    53   53   32 1
    54    6   16 1
    55   14   15 ar
    56   25   31 ar
    57   32   34 ar
@<TRIPOS>SUBSTRUCTURE
     1 RES1 1

@<TRIPOS>CRYSIN
   8.5133    9.6782   13.5667  70.9410  87.5200  73.9280   2 1

