# MOL2 file generated by ConQuest
# Please check atom types

@<TRIPOS>MOLECULE
MIDFAJ
    56    60     1
SMALL
NO_CHARGES
****
Generated from CSD

@<TRIPOS>ATOM
      1 C1         5.6629    7.5610    4.5276 C.3       1 RES1    0.0000
      2 C2         6.3203    6.7144    3.4232 C.ar      1 RES1    0.0000
      3 C3         6.0028    7.0494    5.9819 C.3       1 RES1    0.0000
      4 C4         7.0358    5.5252    3.7166 C.ar      1 RES1    0.0000
      5 C5         7.4840    4.7826    2.6003 C.ar      1 RES1    0.0000
      6 C6         6.1323    7.0993    2.1086 C.ar      1 RES1    0.0000
      7 C7         7.2738    6.2295    6.0122 C.3       1 RES1    0.0000
      8 C8         7.2421    5.1788    1.2832 C.ar      1 RES1    0.0000
      9 C9         6.5762    6.3441    1.0134 C.ar      1 RES1    0.0000
     10 C10        4.7886    6.2190    6.3733 C.2       1 RES1    0.0000
     11 C11        4.1432    7.2602    4.4316 C.2       1 RES1    0.0000
     12 C12        3.6855    6.5390    5.4681 C.2       1 RES1    0.0000
     13 C13        2.3045    6.0361    5.7173 C.3       1 RES1    0.0000
     14 C14        6.3110    6.8034   -0.3991 C.3       1 RES1    0.0000
     15 H1         6.7693    6.2262   -1.0144 H         1 RES1    0.0000
     16 H2         6.6278    7.7022   -0.5086 H         1 RES1    0.0000
     17 H3         5.3678    6.7724   -0.5734 H         1 RES1    0.0000
     18 C15        6.0529    9.0266    4.3674 C.ar      1 RES1    0.0000
     19 C16        3.2973    7.4823    3.2247 C.ar      1 RES1    0.0000
     20 C17        5.1948   10.0605    4.7141 C.ar      1 RES1    0.0000
     21 C18        7.3568    9.3575    3.9918 C.ar      1 RES1    0.0000
     22 C19        2.8301    8.7161    2.8016 C.ar      1 RES1    0.0000
     23 C20        2.8989    6.3512    2.5160 C.ar      1 RES1    0.0000
     24 C21        7.7724   10.6817    3.9814 C.ar      1 RES1    0.0000
     25 C22        2.0568    6.4449    1.4277 C.ar      1 RES1    0.0000
     26 C23        5.6073   11.3842    4.6692 C.ar      1 RES1    0.0000
     27 C24        6.9010   11.6917    4.3136 C.ar      1 RES1    0.0000
     28 C25        1.9792    8.7944    1.7030 C.ar      1 RES1    0.0000
     29 C26        1.5920    7.6736    1.0297 C.ar      1 RES1    0.0000
     30 C27        6.1060    8.1520    7.0485 C.3       1 RES1    0.0000
     31 O1         4.7547    5.4292    7.2926 O.2       1 RES1    0.0000
     32 O2         8.3434    3.0544    3.8739 O.2       1 RES1    0.0000
     33 N1         7.2536    5.1788    5.0149 N.3       1 RES1    0.0000
     34 N2         8.2796    3.5862    2.7713 N.pl3     1 RES1    0.0000
     35 H4         7.7122    4.4386    5.1620 H         1 RES1    0.0000
     36 H5         7.6084    4.6321    0.5621 H         1 RES1    0.0000
     37 H6         5.6665    7.9499    1.9287 H         1 RES1    0.0000
     38 H7         7.9896    8.6652    3.7489 H         1 RES1    0.0000
     39 H8         4.2889    9.8769    5.0239 H         1 RES1    0.0000
     40 H9         4.9505   12.0669    4.9492 H         1 RES1    0.0000
     41 H10        8.6922   10.8811    3.7630 H         1 RES1    0.0000
     42 H11        7.1875   12.6188    4.3181 H         1 RES1    0.0000
     43 H12        3.0785    9.5316    3.2615 H         1 RES1    0.0000
     44 H13        3.2077    5.4862    2.7867 H         1 RES1    0.0000
     45 H14        1.0174    7.7207    0.2733 H         1 RES1    0.0000
     46 H15        1.7790    5.6215    0.9453 H         1 RES1    0.0000
     47 H16        1.6613    9.6389    1.4793 H         1 RES1    0.0000
     48 H17        7.3717    5.8069    6.8624 H         1 RES1    0.0000
     49 H18        1.6828    6.2494    5.0436 H         1 RES1    0.0000
     50 H19        6.2241    7.7452    7.9303 H         1 RES1    0.0000
     51 H20        8.0331    6.8344    5.8692 H         1 RES1    0.0000
     52 H21        6.8539    8.7375    6.8667 H         1 RES1    0.0000
     53 H22        2.3047    5.1165    5.8185 H         1 RES1    0.0000
     54 H23        5.2833    8.7067    7.1231 H         1 RES1    0.0000
     55 H24        1.8950    6.4727    6.4806 H         1 RES1    0.0000
     56 O3         8.8874    3.1422    1.8122 O.2       1 RES1    0.0000
@<TRIPOS>BOND
     1    1    2 1
     2    2    4 ar
     3    3    1 1
     4    4    5 ar
     5    5    8 ar
     6    6    2 ar
     7    7    3 1
     8    8    9 ar
     9    9    6 ar
    10   10    3 1
    11   11    1 1
    12   12   10 1
    13   13   12 1
    14   14    9 1
    15   15   14 1
    16   16   14 1
    17   17   14 1
    18   18    1 1
    19   19   11 1
    20   20   18 ar
    21   21   18 ar
    22   22   19 ar
    23   23   19 ar
    24   24   21 ar
    25   25   23 ar
    26   26   20 ar
    27   27   24 ar
    28   28   22 ar
    29   29   25 ar
    30   30    3 1
    31   31   10 2
    32   32   34 2
    33   33    4 1
    34   34    5 1
    35   35   33 1
    36   36    8 1
    37   37    6 1
    38   38   21 1
    39   39   20 1
    40   40   26 1
    41   41   24 1
    42   42   27 1
    43   43   22 1
    44   44   23 1
    45   45   29 1
    46   46   25 1
    47   47   28 1
    48   48    7 1
    49   49   13 1
    50   50   30 1
    51   51    7 1
    52   52   30 1
    53   53   13 1
    54   54   30 1
    55   55   13 1
    56   56   34 2
    57    7   33 1
    58   11   12 2
    59   26   27 ar
    60   28   29 ar
@<TRIPOS>SUBSTRUCTURE
     1 RES1 1

@<TRIPOS>CRYSIN
   8.5165    9.4058   14.3218  87.9710  79.6740  74.0860   2 1

