# MOL2 file generated by ConQuest
# Please check atom types

@<TRIPOS>MOLECULE
MIFREY
   107   115     1
SMALL
NO_CHARGES
****
Generated from CSD

@<TRIPOS>ATOM
      1 C1         1.6767   12.0084    5.3654 C.3       1 RES1    0.0000
      2 H1         0.7341   11.9497    5.6956 H         1 RES1    0.0000
      3 N1         2.0972   13.3788    5.4401 N.3       1 RES1    0.0000
      4 C2         1.3472   14.3631    6.2306 C.3       1 RES1    0.0000
      5 H2         1.9873   14.9019    6.7600 H         1 RES1    0.0000
      6 H3         0.7599   13.8817    6.8665 H         1 RES1    0.0000
      7 C3         0.5016   15.2933    5.3938 C.ar      1 RES1    0.0000
      8 C4         0.8999   16.5946    5.1267 C.ar      1 RES1    0.0000
      9 H4         1.7022   16.9292    5.5105 H         1 RES1    0.0000
     10 C5         0.1374   17.4141    4.3017 C.ar      1 RES1    0.0000
     11 H5         0.4210   18.3025    4.1202 H         1 RES1    0.0000
     12 C6        -1.0320   16.9376    3.7457 C.ar      1 RES1    0.0000
     13 H6        -1.5477   17.4956    3.1753 H         1 RES1    0.0000
     14 C7        -1.4547   15.6507    4.0174 C.ar      1 RES1    0.0000
     15 H7        -2.2669   15.3283    3.6453 H         1 RES1    0.0000
     16 C8        -0.6928   14.8318    4.8322 C.ar      1 RES1    0.0000
     17 H8        -0.9851   13.9462    5.0127 H         1 RES1    0.0000
     18 C9         3.2071   13.8161    4.6624 C.3       1 RES1    0.0000
     19 H9         3.1464   14.8080    4.5542 H         1 RES1    0.0000
     20 N2         4.5487   13.4837    5.2161 N.pl3     1 RES1    0.0000
     21 C10        4.8133   13.6928    6.6334 C.3       1 RES1    0.0000
     22 H10        5.7204   13.3601    6.8485 H         1 RES1    0.0000
     23 H11        4.1626   13.1718    7.1678 H         1 RES1    0.0000
     24 C11        4.7140   15.1509    7.0125 C.ar      1 RES1    0.0000
     25 C12        4.2900   15.5148    8.2930 C.ar      1 RES1    0.0000
     26 H12        4.1167   14.8402    8.9397 H         1 RES1    0.0000
     27 C13        4.1188   16.8491    8.6321 C.ar      1 RES1    0.0000
     28 H13        3.8438   17.0845    9.5112 H         1 RES1    0.0000
     29 C14        4.3483   17.8426    7.6913 C.ar      1 RES1    0.0000
     30 H14        4.2145   18.7558    7.9194 H         1 RES1    0.0000
     31 C15        4.7736   17.4974    6.4160 C.ar      1 RES1    0.0000
     32 H15        4.9237   18.1745    5.7660 H         1 RES1    0.0000
     33 C16        4.9800   16.1639    6.0896 C.ar      1 RES1    0.0000
     34 H16        5.3078   15.9388    5.2272 H         1 RES1    0.0000
     35 C17        5.2932   12.7550    4.3531 C.2       1 RES1    0.0000
     36 C18        6.6621   12.5189    4.6498 C.2       1 RES1    0.0000
     37 H17        7.0763   13.1228    5.2551 H         1 RES1    0.0000
     38 N3         7.4410   11.5199    4.1589 N.pl3     1 RES1    0.0000
     39 O1         8.6954   11.5795    4.3716 O.2       1 RES1    0.0000
     40 O2         6.9520   10.5471    3.5295 O.2       1 RES1    0.0000
     41 N4         4.5925   12.4761    3.2400 N.3       1 RES1    0.0000
     42 C19        5.1277   12.1098    1.9121 C.3       1 RES1    0.0000
     43 H18        4.3736   11.9017    1.3052 H         1 RES1    0.0000
     44 H19        5.6805   11.2935    1.9995 H         1 RES1    0.0000
     45 C20        5.9644   13.2105    1.3022 C.ar      1 RES1    0.0000
     46 C21        5.3716   14.3187    0.6925 C.ar      1 RES1    0.0000
     47 H20        4.4254   14.3604    0.6207 H         1 RES1    0.0000
     48 C22        6.1363   15.3557    0.1929 C.ar      1 RES1    0.0000
     49 H21        5.7132   16.1086   -0.2014 H         1 RES1    0.0000
     50 C23        7.5139   15.3013    0.2656 C.ar      1 RES1    0.0000
     51 H22        8.0397   16.0194   -0.0671 H         1 RES1    0.0000
     52 C24        8.1221   14.1994    0.8249 C.ar      1 RES1    0.0000
     53 H23        9.0710   14.1477    0.8565 H         1 RES1    0.0000
     54 C25        7.3576   13.1611    1.3422 C.ar      1 RES1    0.0000
     55 H24        7.7887   12.4077    1.7277 H         1 RES1    0.0000
     56 C26        3.2933   13.1733    3.2574 C.3       1 RES1    0.0000
     57 H25        3.3436   13.9165    2.5907 H         1 RES1    0.0000
     58 N5         2.1867   12.3186    2.8740 N.3       1 RES1    0.0000
     59 C27        1.0770   13.1038    2.2794 C.3       1 RES1    0.0000
     60 H26        0.7661   13.7775    2.9346 H         1 RES1    0.0000
     61 H27        0.3182   12.4986    2.0814 H         1 RES1    0.0000
     62 C28        1.4997   13.8045    1.0073 C.ar      1 RES1    0.0000
     63 C29        1.9107   13.0711   -0.1096 C.ar      1 RES1    0.0000
     64 H28        1.9210   12.1220   -0.0671 H         1 RES1    0.0000
     65 C30        2.3047   13.7075   -1.2786 C.ar      1 RES1    0.0000
     66 H29        2.5707   13.1952   -2.0339 H         1 RES1    0.0000
     67 C31        2.3082   15.0950   -1.3402 C.ar      1 RES1    0.0000
     68 H30        2.5869   15.5351   -2.1338 H         1 RES1    0.0000
     69 C32        1.9060   15.8339   -0.2468 C.ar      1 RES1    0.0000
     70 H31        1.9088   16.7831   -0.2915 H         1 RES1    0.0000
     71 C33        1.4949   15.1945    0.9238 C.ar      1 RES1    0.0000
     72 H32        1.2100   15.7113    1.6687 H         1 RES1    0.0000
     73 C34        1.7315   11.4159    3.9325 C.3       1 RES1    0.0000
     74 H33        0.8158   11.0915    3.6944 H         1 RES1    0.0000
     75 N6         2.6106   10.2542    4.0514 N.3       1 RES1    0.0000
     76 C35        2.2760    9.2129    3.0875 C.3       1 RES1    0.0000
     77 H34        2.2463    9.6102    2.1813 H         1 RES1    0.0000
     78 H35        1.3726    8.8628    3.2932 H         1 RES1    0.0000
     79 C36        3.2623    8.0614    3.0879 C.ar      1 RES1    0.0000
     80 C37        2.8366    6.7842    2.7543 C.ar      1 RES1    0.0000
     81 H36        1.9137    6.6235    2.5989 H         1 RES1    0.0000
     82 C38        3.7470    5.7349    2.6446 C.ar      1 RES1    0.0000
     83 H37        3.4481    4.8677    2.4007 H         1 RES1    0.0000
     84 C39        5.0896    5.9632    2.8938 C.ar      1 RES1    0.0000
     85 H38        5.7165    5.2535    2.8150 H         1 RES1    0.0000
     86 C40        5.5178    7.2303    3.2570 C.ar      1 RES1    0.0000
     87 H39        6.4370    7.3830    3.4439 H         1 RES1    0.0000
     88 C41        4.6115    8.2772    3.3494 C.ar      1 RES1    0.0000
     89 H40        4.9135    9.1447    3.5929 H         1 RES1    0.0000
     90 C42        2.4925    9.8282    5.4406 C.3       1 RES1    0.0000
     91 H41        3.2531    9.2516    5.7038 H         1 RES1    0.0000
     92 H42        1.6465    9.3383    5.5940 H         1 RES1    0.0000
     93 N7         2.5104   11.0910    6.1721 N.3       1 RES1    0.0000
     94 C43        2.0150   10.9986    7.5439 C.3       1 RES1    0.0000
     95 H43        1.0908   10.6451    7.5248 H         1 RES1    0.0000
     96 H44        1.9791   11.9096    7.9293 H         1 RES1    0.0000
     97 C44        2.8514   10.1215    8.4495 C.ar      1 RES1    0.0000
     98 C45        2.2253    9.2991    9.3687 C.ar      1 RES1    0.0000
     99 H45        1.2758    9.2489    9.3785 H         1 RES1    0.0000
    100 C46        2.9580    8.5454   10.2766 C.ar      1 RES1    0.0000
    101 H46        2.5111    7.9873   10.9032 H         1 RES1    0.0000
    102 C47        4.3291    8.6086   10.2655 C.ar      1 RES1    0.0000
    103 H47        4.8354    8.1056   10.8917 H         1 RES1    0.0000
    104 C48        4.9682    9.4082    9.3386 C.ar      1 RES1    0.0000
    105 H48        5.9170    9.4469    9.3278 H         1 RES1    0.0000
    106 C49        4.2389   10.1549    8.4219 C.ar      1 RES1    0.0000
    107 H49        4.6889   10.6881    7.7770 H         1 RES1    0.0000
@<TRIPOS>BOND
     1    1    2 1
     2    3    1 1
     3    4    3 1
     4    5    4 1
     5    6    4 1
     6    7    4 1
     7    8    7 ar
     8    9    8 1
     9   10    8 ar
    10   11   10 1
    11   12   10 ar
    12   13   12 1
    13   14   12 ar
    14   15   14 1
    15   16    7 ar
    16   17   16 1
    17   18    3 1
    18   19   18 1
    19   20   18 1
    20   21   20 1
    21   22   21 1
    22   23   21 1
    23   24   21 1
    24   25   24 ar
    25   26   25 1
    26   27   25 ar
    27   28   27 1
    28   29   27 ar
    29   30   29 1
    30   31   29 ar
    31   32   31 1
    32   33   24 ar
    33   34   33 1
    34   35   20 1
    35   36   35 2
    36   37   36 1
    37   38   36 1
    38   39   38 2
    39   40   38 2
    40   41   35 1
    41   42   41 1
    42   43   42 1
    43   44   42 1
    44   45   42 1
    45   46   45 ar
    46   47   46 1
    47   48   46 ar
    48   49   48 1
    49   50   48 ar
    50   51   50 1
    51   52   50 ar
    52   53   52 1
    53   54   45 ar
    54   55   54 1
    55   56   18 1
    56   57   56 1
    57   58   56 1
    58   59   58 1
    59   60   59 1
    60   61   59 1
    61   62   59 1
    62   63   62 ar
    63   64   63 1
    64   65   63 ar
    65   66   65 1
    66   67   65 ar
    67   68   67 1
    68   69   67 ar
    69   70   69 1
    70   71   62 ar
    71   72   71 1
    72   73    1 1
    73   74   73 1
    74   75   73 1
    75   76   75 1
    76   77   76 1
    77   78   76 1
    78   79   76 1
    79   80   79 ar
    80   81   80 1
    81   82   80 ar
    82   83   82 1
    83   84   82 ar
    84   85   84 1
    85   86   84 ar
    86   87   86 1
    87   88   79 ar
    88   89   88 1
    89   90   75 1
    90   91   90 1
    91   92   90 1
    92   93    1 1
    93   94   93 1
    94   95   94 1
    95   96   94 1
    96   97   94 1
    97   98   97 ar
    98   99   98 1
    99  100   98 ar
   100  101  100 1
   101  102  100 ar
   102  103  102 1
   103  104  102 ar
   104  105  104 1
   105  106   97 ar
   106  107  106 1
   107   14   16 ar
   108   31   33 ar
   109   41   56 1
   110   52   54 ar
   111   58   73 1
   112   69   71 ar
   113   86   88 ar
   114   90   93 1
   115  104  106 ar
@<TRIPOS>SUBSTRUCTURE
     1 RES1 1

@<TRIPOS>CRYSIN
  10.4199   11.7594   17.2880  71.4490  86.8110  86.9530   2 1

