# MOL2 file generated by ConQuest
# Please check atom types

@<TRIPOS>MOLECULE
MIFZUZ
    40    42     1
SMALL
NO_CHARGES
****
Generated from CSD

@<TRIPOS>ATOM
      1 C1         0.8762    3.2093    5.9788 C.3       1 RES1    0.0000
      2 H1         0.6273    2.3232    6.3155 H         1 RES1    0.0000
      3 C2         0.8016    3.1748    4.4731 C.3       1 RES1    0.0000
      4 H2        -0.0827    2.8753    4.2104 H         1 RES1    0.0000
      5 H3         1.4422    2.5252    4.1434 H         1 RES1    0.0000
      6 C3         1.0803    4.5170    3.8115 C.3       1 RES1    0.0000
      7 H4         0.7187    4.4521    2.9038 H         1 RES1    0.0000
      8 C4         2.5877    4.8278    3.6515 C.3       1 RES1    0.0000
      9 C5         3.2130    5.4182    4.9383 C.2       1 RES1    0.0000
     10 C6         2.7180    4.9945    6.2943 C.3       1 RES1    0.0000
     11 H5         3.4547    5.1526    6.9215 H         1 RES1    0.0000
     12 C7         1.5965    5.9655    6.6871 C.3       1 RES1    0.0000
     13 H6         1.4901    5.9574    7.6515 H         1 RES1    0.0000
     14 H7         1.8449    6.8650    6.4217 H         1 RES1    0.0000
     15 C8         0.2737    5.5987    6.0346 C.3       1 RES1    0.0000
     16 H8        -0.4037    6.2341    6.3482 H         1 RES1    0.0000
     17 C9        -0.1362    4.2104    6.4993 C.3       1 RES1    0.0000
     18 H9        -0.1641    4.1800    7.4686 H         1 RES1    0.0000
     19 H10       -1.0194    3.9950    6.1620 H         1 RES1    0.0000
     20 C10        2.2711    3.5402    6.5063 C.3       1 RES1    0.0000
     21 H11        2.9115    2.9546    6.0722 H         1 RES1    0.0000
     22 H12        2.2951    3.3459    7.4571 H         1 RES1    0.0000
     23 C11        0.3035    5.6574    4.5014 C.3       1 RES1    0.0000
     24 H13        0.6977    6.5024    4.2349 H         1 RES1    0.0000
     25 H14       -0.6105    5.6466    4.1761 H         1 RES1    0.0000
     26 C12        3.3619    3.5847    3.2216 C.2       1 RES1    0.0000
     27 O1         4.1510    3.0295    3.9482 O.2       1 RES1    0.0000
     28 O2         3.0190    3.2083    2.0093 O.3       1 RES1    0.0000
     29 C13        3.7355    2.0479    1.4759 C.3       1 RES1    0.0000
     30 H15        4.6882    2.1428    1.6332 H         1 RES1    0.0000
     31 H16        3.4317    1.2374    1.9141 H         1 RES1    0.0000
     32 C14        3.4668    1.9766    0.0418 C.3       1 RES1    0.0000
     33 H17        2.5251    1.8564   -0.1013 H         1 RES1    0.0000
     34 H18        3.9457    1.2357   -0.3364 H         1 RES1    0.0000
     35 H19        3.7536    2.7911   -0.3789 H         1 RES1    0.0000
     36 N1         3.7950    6.2012    2.0488 N.pl3     1 RES1    0.0000
     37 O3         2.5589    5.8517    2.6085 O.3       1 RES1    0.0000
     38 O4         3.7086    7.2176    1.4205 O.2       1 RES1    0.0000
     39 O5         4.7357    5.4984    2.2045 O.2       1 RES1    0.0000
     40 O6         4.0081    6.3099    4.8240 O.2       1 RES1    0.0000
@<TRIPOS>BOND
     1    1    2 1
     2    3    1 1
     3    4    3 1
     4    5    3 1
     5    6    3 1
     6    7    6 1
     7    8    6 1
     8    9    8 1
     9   10    9 1
    10   11   10 1
    11   12   10 1
    12   13   12 1
    13   14   12 1
    14   15   12 1
    15   16   15 1
    16   17    1 1
    17   18   17 1
    18   19   17 1
    19   20    1 1
    20   21   20 1
    21   22   20 1
    22   23    6 1
    23   24   23 1
    24   25   23 1
    25   26    8 1
    26   27   26 2
    27   28   26 1
    28   29   28 1
    29   30   29 1
    30   31   29 1
    31   32   29 1
    32   33   32 1
    33   34   32 1
    34   35   32 1
    35   36   37 1
    36   37    8 1
    37   38   36 2
    38   39   36 2
    39   40    9 2
    40   10   20 1
    41   15   17 1
    42   15   23 1
@<TRIPOS>SUBSTRUCTURE
     1 RES1 1

@<TRIPOS>CRYSIN
   7.0486    7.1294   16.3828  91.5600  92.9900 118.3100   2 1

