# MOL2 file generated by ConQuest
# Please check atom types

@<TRIPOS>MOLECULE
MIHCUE
    50    52     1
SMALL
NO_CHARGES
****
Generated from CSD

@<TRIPOS>ATOM
      1 C1         6.1449   12.0024    3.2002 C.2       1 RES1    0.0000
      2 C2         5.9159   12.9727    4.3231 C.3       1 RES1    0.0000
      3 H1         6.7491   13.0631    4.8515 H         1 RES1    0.0000
      4 H2         5.6976   13.8615    3.9457 H         1 RES1    0.0000
      5 C3         4.8059   12.5355    5.2261 C.2       1 RES1    0.0000
      6 H3         4.5748   13.1165    5.9410 H         1 RES1    0.0000
      7 C4         4.1168   11.4060    5.1155 C.2       1 RES1    0.0000
      8 C5         2.8920   11.2336    5.9791 C.3       1 RES1    0.0000
      9 H4         2.7286   12.0816    6.4837 H         1 RES1    0.0000
     10 C6         1.6664   10.9131    5.1469 C.3       1 RES1    0.0000
     11 H5         1.3889   11.7244    4.6516 H         1 RES1    0.0000
     12 H6         0.9231   10.6552    5.7492 H         1 RES1    0.0000
     13 C7         1.9204    9.7871    4.1583 C.3       1 RES1    0.0000
     14 H7         1.1057    9.6381    3.6172 H         1 RES1    0.0000
     15 H8         2.1115    8.9528    4.6557 H         1 RES1    0.0000
     16 C8         3.0960   10.0986    3.2267 C.3       1 RES1    0.0000
     17 H9         2.8770   10.9603    2.7685 H         1 RES1    0.0000
     18 C9         4.4128   10.3506    4.0499 C.3       1 RES1    0.0000
     19 C10        5.4793   10.8544    3.1021 C.2       1 RES1    0.0000
     20 H10        5.6948   10.2967    2.3646 H         1 RES1    0.0000
     21 C11        7.1750   12.4024    2.1993 C.2       1 RES1    0.0000
     22 C12        7.3448   11.5998    0.9366 C.3       1 RES1    0.0000
     23 H11        8.0167   12.0270    0.3652 H         1 RES1    0.0000
     24 H12        6.4901   11.5578    0.4590 H         1 RES1    0.0000
     25 H13        7.6372   10.6921    1.1629 H         1 RES1    0.0000
     26 C13        3.0275   10.4532    8.2431 C.2       1 RES1    0.0000
     27 C14        3.1302    9.2530    9.1328 C.ar      1 RES1    0.0000
     28 C15        2.9804    9.4449   10.5081 C.ar      1 RES1    0.0000
     29 H14        2.7971   10.3132   10.8476 H         1 RES1    0.0000
     30 C16        3.0974    8.3774   11.3788 C.ar      1 RES1    0.0000
     31 H15        2.9961    8.5002   12.3165 H         1 RES1    0.0000
     32 C17        3.3649    7.1266   10.8519 C.ar      1 RES1    0.0000
     33 C18        3.4997    6.9065    9.4923 C.ar      1 RES1    0.0000
     34 H16        3.6674    6.0326    9.1583 H         1 RES1    0.0000
     35 C19        3.3863    7.9761    8.6309 C.ar      1 RES1    0.0000
     36 H17        3.4833    7.8442    7.6955 H         1 RES1    0.0000
     37 C20        3.2329    9.0425    2.1289 C.3       1 RES1    0.0000
     38 H18        3.4776    8.1824    2.5319 H         1 RES1    0.0000
     39 H19        3.9299    9.3165    1.4975 H         1 RES1    0.0000
     40 H20        2.3798    8.9503    1.6546 H         1 RES1    0.0000
     41 C21        4.9493    9.0543    4.6985 C.3       1 RES1    0.0000
     42 H21        5.2774    8.4507    3.9987 H         1 RES1    0.0000
     43 H22        4.2281    8.6159    5.1963 H         1 RES1    0.0000
     44 H23        5.6826    9.2745    5.3106 H         1 RES1    0.0000
     45 N1         3.5518    5.9854   11.7701 N.pl3     1 RES1    0.0000
     46 O1         7.8634   13.3930    2.4086 O.2       1 RES1    0.0000
     47 O2         3.0746   10.1276    6.9462 O.3       1 RES1    0.0000
     48 O3         2.9027   11.5735    8.6611 O.2       1 RES1    0.0000
     49 O4         3.5518    6.2043   12.9747 O.2       1 RES1    0.0000
     50 O5         3.7109    4.8672   11.2811 O.2       1 RES1    0.0000
@<TRIPOS>BOND
     1    1    2 1
     2    2    3 1
     3    4    2 1
     4    5    2 1
     5    6    5 1
     6    7    5 2
     7    8    7 1
     8    9    8 1
     9   10    8 1
    10   11   10 1
    11   12   10 1
    12   13   10 1
    13   14   13 1
    14   15   13 1
    15   16   13 1
    16   17   16 1
    17   18    7 1
    18   19    1 2
    19   20   19 1
    20   21    1 1
    21   22   21 1
    22   23   22 1
    23   24   22 1
    24   25   22 1
    25   26   27 1
    26   27   28 ar
    27   28   29 1
    28   30   28 ar
    29   31   30 1
    30   32   30 ar
    31   33   32 ar
    32   34   33 1
    33   35   27 ar
    34   36   35 1
    35   37   16 1
    36   38   37 1
    37   39   37 1
    38   40   37 1
    39   41   18 1
    40   42   41 1
    41   43   41 1
    42   44   41 1
    43   45   32 1
    44   46   21 2
    45   47    8 1
    46   48   26 2
    47   49   45 2
    48   50   45 2
    49   16   18 1
    50   18   19 1
    51   26   47 1
    52   33   35 ar
@<TRIPOS>SUBSTRUCTURE
     1 RES1 1

@<TRIPOS>CRYSIN
   7.1336   12.7135   20.4017  90.0000  90.0000  90.0000  19 1

