# MOL2 file generated by ConQuest
# Please check atom types

@<TRIPOS>MOLECULE
MIKTEG
    19    19     1
SMALL
NO_CHARGES
****
Generated from CSD

@<TRIPOS>ATOM
      1 O1         2.3359    1.8000    6.9750 O.2       1 RES1    0.0000
      2 O2         0.7018    0.6929    7.8801 O.2       1 RES1    0.0000
      3 O3         1.1617   -1.1089    0.5627 O.2       1 RES1    0.0000
      4 O4        -0.6931   -0.6104    1.5834 O.2       1 RES1    0.0000
      5 N1         1.0656    1.7075    4.5682 N.2       1 RES1    0.0000
      6 N2         0.0888    1.4153    3.7163 N.3       1 RES1    0.0000
      7 N3        -0.9393    0.7672    4.2617 N.2       1 RES1    0.0000
      8 N4        -0.6386    0.6181    5.5318 N.2       1 RES1    0.0000
      9 N5         1.2523    1.2379    6.9378 N.pl3     1 RES1    0.0000
     10 N6         0.9607    0.8555    1.5459 N.3       1 RES1    0.0000
     11 N7         0.4406   -0.3523    1.2147 N.pl3     1 RES1    0.0000
     12 C1         0.5620    1.1890    5.6603 C.2       1 RES1    0.0000
     13 C2         0.1274    1.7529    2.2936 C.3       1 RES1    0.0000
     14 C3         2.3209    1.1484    1.1423 C.3       1 RES1    0.0000
     15 H1        -0.7707    1.6557    2.0069 H         1 RES1    0.0000
     16 H2         0.5042    2.5807    2.2257 H         1 RES1    0.0000
     17 H3         2.3560    1.0724    0.1416 H         1 RES1    0.0000
     18 H4         2.9594    0.5951    1.6007 H         1 RES1    0.0000
     19 H5         2.5430    2.0505    1.4591 H         1 RES1    0.0000
@<TRIPOS>BOND
     1    1    9 2
     2    2    9 2
     3    3   11 2
     4    4   11 2
     5    5    6 1
     6    6    7 1
     7    7    8 2
     8    8   12 1
     9    9   12 1
    10   10   11 1
    11   12    5 2
    12   13    6 1
    13   14   10 1
    14   15   13 1
    15   16   13 1
    16   17   14 1
    17   18   14 1
    18   19   14 1
    19   10   13 1
@<TRIPOS>SUBSTRUCTURE
     1 RES1 1

@<TRIPOS>CRYSIN
   6.0615    5.8921   11.0733  90.0000 100.4647  90.0000   4 1

