# MOL2 file generated by ConQuest
# Please check atom types

@<TRIPOS>MOLECULE
MILFOE
    45    47     1
SMALL
NO_CHARGES
****
Generated from CSD

@<TRIPOS>ATOM
      1 O1         0.7589    4.3225   11.7701 O.2       1 RES1    0.0000
      2 N1         0.6967    6.5626   12.3083 N.am      1 RES1    0.0000
      3 C1         0.3450    5.4383   11.5763 C.2       1 RES1    0.0000
      4 O2         0.1044    8.7652   12.5964 O.2       1 RES1    0.0000
      5 N2        -0.6636    5.3283    9.2980 N.am      1 RES1    0.0000
      6 H1        -1.3560    4.8702    9.0211 H         1 RES1    0.0000
      7 C2        -0.7404    5.9253   10.6089 C.3       1 RES1    0.0000
      8 O3         1.5690    6.5100   13.3827 O.3       1 RES1    0.0000
      9 C3        -0.4932    7.4724   10.5691 C.3       1 RES1    0.0000
     10 H2         0.2628    7.6075    9.9293 H         1 RES1    0.0000
     11 O4        -0.2556    6.1635   14.6780 O.2       1 RES1    0.0000
     12 C4         0.0798    7.7592   11.9387 C.2       1 RES1    0.0000
     13 O5         1.4957    5.8931    8.9439 O.2       1 RES1    0.0000
     14 C5        -2.0832    5.5605   11.2372 C.3       1 RES1    0.0000
     15 H3        -2.8098    5.9003   10.6750 H         1 RES1    0.0000
     16 H4        -2.1456    5.9599   12.1297 H         1 RES1    0.0000
     17 H5        -2.1558    4.5854   11.3109 H         1 RES1    0.0000
     18 C6        -1.6128    8.3289   10.0569 C.ar      1 RES1    0.0000
     19 C7        -2.6286    8.8316   10.8599 C.ar      1 RES1    0.0000
     20 H6        -2.6364    8.6348   11.7884 H         1 RES1    0.0000
     21 C8        -3.6347    9.6219   10.3121 C.ar      1 RES1    0.0000
     22 H7        -4.3187    9.9744   10.8700 H         1 RES1    0.0000
     23 C9        -3.6407    9.8963    8.9530 C.ar      1 RES1    0.0000
     24 H8        -4.3265   10.4364    8.5782 H         1 RES1    0.0000
     25 C10       -2.6442    9.3808    8.1450 C.ar      1 RES1    0.0000
     26 H9        -2.6574    9.5516    7.2108 H         1 RES1    0.0000
     27 C11       -1.6308    8.6189    8.6907 C.ar      1 RES1    0.0000
     28 H10       -0.9378    8.2875    8.1312 H         1 RES1    0.0000
     29 C12        0.4380    5.4316    8.5174 C.2       1 RES1    0.0000
     30 C13        0.2778    5.0151    7.0921 C.ar      1 RES1    0.0000
     31 C14        1.3848    4.4923    6.4261 C.ar      1 RES1    0.0000
     32 H11        2.1924    4.3326    6.8999 H         1 RES1    0.0000
     33 C15        1.3050    4.2067    5.0750 C.ar      1 RES1    0.0000
     34 H12        2.0544    3.8343    4.6243 H         1 RES1    0.0000
     35 C16        0.1392    4.4609    4.3799 C.ar      1 RES1    0.0000
     36 H13        0.0942    4.2789    3.4479 H         1 RES1    0.0000
     37 C17       -0.9648    4.9809    5.0345 C.ar      1 RES1    0.0000
     38 H14       -1.7640    5.1535    4.5512 H         1 RES1    0.0000
     39 C18       -0.9054    5.2496    6.3924 C.ar      1 RES1    0.0000
     40 H15       -1.6674    5.5923    6.8451 H         1 RES1    0.0000
     41 C19        0.9216    6.3127   14.6059 C.2       1 RES1    0.0000
     42 C20        1.9524    6.3217   15.6776 C.3       1 RES1    0.0000
     43 H16        1.5402    6.5905   16.5245 H         1 RES1    0.0000
     44 H17        2.6616    6.9566   15.4436 H         1 RES1    0.0000
     45 H18        2.3346    5.4238   15.7707 H         1 RES1    0.0000
@<TRIPOS>BOND
     1    1    3 2
     2    2    3 1
     3    3    7 1
     4    4   12 2
     5    5    6 1
     6    7    5 1
     7    8    2 1
     8    9    7 1
     9   10    9 1
    10   11   41 2
    11   12    2 1
    12   13   29 2
    13   14    7 1
    14   15   14 1
    15   16   14 1
    16   17   14 1
    17   18    9 1
    18   19   18 ar
    19   20   19 1
    20   21   19 ar
    21   22   21 1
    22   23   21 ar
    23   24   23 1
    24   25   23 ar
    25   26   25 1
    26   27   18 ar
    27   28   27 1
    28   29    5 1
    29   30   29 1
    30   31   30 ar
    31   32   31 1
    32   33   31 ar
    33   34   33 1
    34   35   33 ar
    35   36   35 1
    36   37   35 ar
    37   38   37 1
    38   39   30 ar
    39   40   39 1
    40   41    8 1
    41   42   41 1
    42   43   42 1
    43   44   42 1
    44   45   42 1
    45    9   12 1
    46   25   27 ar
    47   37   39 ar
@<TRIPOS>SUBSTRUCTURE
     1 RES1 1

@<TRIPOS>CRYSIN
   5.9999   14.5293   20.3178  90.0000  90.0000  90.0000  19 1

