# MOL2 file generated by ConQuest
# Please check atom types

@<TRIPOS>MOLECULE
MILXOV
    37    35     2
SMALL
NO_CHARGES
****
Generated from CSD

@<TRIPOS>ATOM
      1 O1         5.6850    5.3340    7.5189 O.3       1 RES1    0.0000
      2 O2         1.8262    5.5080    3.5846 O.3       1 RES1    0.0000
      3 H1         2.1274    5.6112    2.8067 H         1 RES1    0.0000
      4 O3         5.6221    4.7942    2.4281 O.2       1 RES1    0.0000
      5 O4         3.7555    5.7443    1.8960 O.2       1 RES1    0.0000
      6 O5         0.5231    6.5074    6.1638 O.2       1 RES1    0.0000
      7 O6         0.5900    4.3923    6.4422 O.2       1 RES1    0.0000
      8 N1         4.5651    5.3111    2.7364 N.pl3     1 RES1    0.0000
      9 N2         1.1084    5.4489    6.1585 N.pl3     1 RES1    0.0000
     10 C1         7.1084    5.1208    7.2492 C.3       1 RES1    0.0000
     11 C2         7.4718    5.9427    6.0298 C.3       1 RES1    0.0000
     12 H2         8.4429    5.8585    5.8549 H         1 RES1    0.0000
     13 H3         7.2742    6.8965    6.2059 H         1 RES1    0.0000
     14 C3         6.6982    5.4855    4.8076 C.3       1 RES1    0.0000
     15 H4         6.8386    6.1259    4.0660 H         1 RES1    0.0000
     16 H5         7.0300    4.5991    4.5162 H         1 RES1    0.0000
     17 C4         5.2217    5.3947    5.1292 C.ar      1 RES1    0.0000
     18 C5         4.2093    5.4116    4.1445 C.ar      1 RES1    0.0000
     19 C6         2.8501    5.4658    4.4605 C.ar      1 RES1    0.0000
     20 C7         2.5387    5.4436    5.8184 C.ar      1 RES1    0.0000
     21 C8         3.4613    5.4108    6.8349 C.ar      1 RES1    0.0000
     22 C9         4.8244    5.3738    6.4625 C.ar      1 RES1    0.0000
     23 C10        7.8082    5.6210    8.5013 C.3       1 RES1    0.0000
     24 H6         7.6418    6.5802    8.6072 H         1 RES1    0.0000
     25 H7         8.7720    5.4631    8.4217 H         1 RES1    0.0000
     26 H8         7.4626    5.1411    9.2826 H         1 RES1    0.0000
     27 C11        7.3513    3.6322    7.0620 C.3       1 RES1    0.0000
     28 H9         7.1682    3.1629    7.9025 H         1 RES1    0.0000
     29 H10        8.2844    3.4835    6.8011 H         1 RES1    0.0000
     30 H11        6.7576    3.2894    6.3612 H         1 RES1    0.0000
     31 C12        3.0671    5.4359    8.2793 C.3       1 RES1    0.0000
     32 H12        2.0940    5.5264    8.3510 H         1 RES1    0.0000
     33 H13        3.4990    6.1949    8.7228 H         1 RES1    0.0000
     34 H14        3.3502    4.6019    8.7098 H         1 RES1    0.0000
     35 H15        3.8680    5.3567    8.8384 Du        2 SUP2    0.0000
     36 H16        2.4634    4.6868    8.4657 Du        2 SUP2    0.0000
     37 H17        2.6118    6.2811    8.4795 Du        2 SUP2    0.0000
@<TRIPOS>BOND
     1    1   10 1
     2    2    3 1
     3    4    8 2
     4    5    8 2
     5    6    9 2
     6    7    9 2
     7    8   18 1
     8    9   20 1
     9   10   11 1
    10   11   12 1
    11   13   11 1
    12   14   11 1
    13   15   14 1
    14   16   14 1
    15   17   14 1
    16   18   17 ar
    17   19    2 1
    18   20   19 ar
    19   21   20 ar
    20   22    1 1
    21   23   10 1
    22   24   23 1
    23   25   23 1
    24   26   23 1
    25   27   10 1
    26   28   27 1
    27   29   27 1
    28   30   27 1
    29   31   21 1
    30   32   31 1
    31   33   31 1
    32   34   31 1
    33   17   22 ar
    34   18   19 ar
    35   21   22 ar
@<TRIPOS>SUBSTRUCTURE
     1 RES1 1
     2 SUP2 35

@<TRIPOS>CRYSIN
  10.4534   14.3766    9.4672  90.0000 114.3460  90.0000  14 1

