# MOL2 file generated by ConQuest
# Please check atom types

@<TRIPOS>MOLECULE
MIMXOW01
    19    19     1
SMALL
NO_CHARGES
****
Generated from CSD

@<TRIPOS>ATOM
      1 O1         0.8970    3.4439    3.9871 O.2       1 RES1    0.0000
      2 O2        -1.2639    2.2182    5.5192 O.2       1 RES1    0.0000
      3 O3         0.3990    1.6496    6.7815 O.2       1 RES1    0.0000
      4 N1        -0.1708    1.7068    5.7016 N.pl3     1 RES1    0.0000
      5 C1         1.9965    1.9033    2.5481 C.ar      1 RES1    0.0000
      6 C2         2.5373    2.9227    1.7692 C.ar      1 RES1    0.0000
      7 H1         2.3287    3.8294    1.9613 H         1 RES1    0.0000
      8 C3         3.3809    2.6150    0.7126 C.ar      1 RES1    0.0000
      9 H2         3.7448    3.3109    0.1790 H         1 RES1    0.0000
     10 C4         3.6955    1.2874    0.4323 C.ar      1 RES1    0.0000
     11 H3         4.2796    1.0789   -0.2873 H         1 RES1    0.0000
     12 C5         3.1567    0.2727    1.2030 C.ar      1 RES1    0.0000
     13 H4         3.3737   -0.6320    1.0105 H         1 RES1    0.0000
     14 C6         2.3004    0.5678    2.2561 C.ar      1 RES1    0.0000
     15 H5         1.9232   -0.1323    2.7754 H         1 RES1    0.0000
     16 C7         1.1285    2.2857    3.6957 C.2       1 RES1    0.0000
     17 C8         0.5404    1.1400    4.5165 C.3       1 RES1    0.0000
     18 H6        -0.0928    0.6186    3.9622 H         1 RES1    0.0000
     19 H7         1.2634    0.5336    4.8157 H         1 RES1    0.0000
@<TRIPOS>BOND
     1    1   16 2
     2    2    4 2
     3    3    4 2
     4    4   17 1
     5    5    6 ar
     6    6    7 1
     7    8    6 ar
     8    9    8 1
     9   10    8 ar
    10   11   10 1
    11   12   10 ar
    12   13   12 1
    13   14    5 ar
    14   15   14 1
    15   16    5 1
    16   17   16 1
    17   18   17 1
    18   19   17 1
    19   12   14 ar
@<TRIPOS>SUBSTRUCTURE
     1 RES1 1

@<TRIPOS>CRYSIN
   4.6428    8.9388    9.2042  90.0000  94.3210  90.0000   4 1

