# MOL2 file generated by ConQuest
# Please check atom types

@<TRIPOS>MOLECULE
MINFAS
    55    59     1
SMALL
NO_CHARGES
****
Generated from CSD

@<TRIPOS>ATOM
      1 O1         2.8074    4.4729   10.1369 O.3       1 RES1    0.0000
      2 N1         3.4402    3.2200   10.2707 N.2       1 RES1    0.0000
      3 C1         4.3992    3.4551   11.1374 C.2       1 RES1    0.0000
      4 C2         5.3841    2.4594   11.5950 C.2       1 RES1    0.0000
      5 O2         5.3938    1.2794   11.2949 O.2       1 RES1    0.0000
      6 N2         6.3325    3.0441   12.4217 N.am      1 RES1    0.0000
      7 N3         6.3348    4.3431   12.9382 N.2       1 RES1    0.0000
      8 C3         5.4367    5.1905   12.5443 C.2       1 RES1    0.0000
      9 C4         4.4368    4.7947   11.5830 C.2       1 RES1    0.0000
     10 C5         3.4095    5.4011   10.9117 C.2       1 RES1    0.0000
     11 C6         7.4932    2.3023   12.8529 C.ar      1 RES1    0.0000
     12 C7         8.3332    1.7434   11.9039 C.ar      1 RES1    0.0000
     13 H1         8.1164    1.7939   10.9802 H         1 RES1    0.0000
     14 C8         9.4980    1.1079   12.3199 C.ar      1 RES1    0.0000
     15 H2        10.0804    0.7199   11.6770 H         1 RES1    0.0000
     16 C9         9.8127    1.0369   13.6654 C.ar      1 RES1    0.0000
     17 H3        10.6060    0.5952   13.9460 H         1 RES1    0.0000
     18 C10        8.9700    1.6112   14.6041 C.ar      1 RES1    0.0000
     19 H4         9.1915    1.5673   15.5277 H         1 RES1    0.0000
     20 C11        7.8034    2.2509   14.2037 C.ar      1 RES1    0.0000
     21 H5         7.2265    2.6479   14.8467 H         1 RES1    0.0000
     22 C12        5.5091    6.5617   13.1253 C.3       1 RES1    0.0000
     23 H6         6.2432    6.6039   13.7738 H         1 RES1    0.0000
     24 H7         4.6634    6.7707   13.5747 H         1 RES1    0.0000
     25 H8         5.6679    7.2116   12.4102 H         1 RES1    0.0000
     26 C13        2.8422    6.7861   10.8369 C.3       1 RES1    0.0000
     27 H9         3.4771    7.3920   11.3167 H         1 RES1    0.0000
     28 C14        1.4837    6.8692   11.5770 C.3       1 RES1    0.0000
     29 H10        1.0345    7.7232   11.3547 H         1 RES1    0.0000
     30 H11        0.8984    6.1269   11.2835 H         1 RES1    0.0000
     31 C15        1.7038    6.7840   13.0650 C.ar      1 RES1    0.0000
     32 C16        1.7372    5.5558   13.7297 C.ar      1 RES1    0.0000
     33 H12        1.5424    4.7579   13.2524 H         1 RES1    0.0000
     34 C17        2.0518    5.4885   15.0775 C.ar      1 RES1    0.0000
     35 H13        2.0582    4.6477   15.5198 H         1 RES1    0.0000
     36 C18        2.3567    6.6407   15.7831 C.ar      1 RES1    0.0000
     37 H14        2.5892    6.5911   16.7033 H         1 RES1    0.0000
     38 C19        2.3199    7.8696   15.1349 C.ar      1 RES1    0.0000
     39 H15        2.5219    8.6646   15.6146 H         1 RES1    0.0000
     40 C20        1.9898    7.9377   13.7928 C.ar      1 RES1    0.0000
     41 H16        1.9581    8.7833   13.3614 H         1 RES1    0.0000
     42 C21        2.7797    7.2617    9.3702 C.3       1 RES1    0.0000
     43 H17        2.1893    6.6592    8.8518 H         1 RES1    0.0000
     44 H18        2.3958    8.1738    9.3337 H         1 RES1    0.0000
     45 C22        5.0777    8.2523    9.1204 C.ar      1 RES1    0.0000
     46 H19        4.8064    8.9457    9.7113 H         1 RES1    0.0000
     47 C23        6.3770    8.2403    8.6408 C.ar      1 RES1    0.0000
     48 H20        6.9913    8.9111    8.9134 H         1 RES1    0.0000
     49 C24        6.7783    7.2479    7.7624 C.ar      1 RES1    0.0000
     50 H21        7.6670    7.2369    7.4265 H         1 RES1    0.0000
     51 C25        5.8748    6.2739    7.3794 C.ar      1 RES1    0.0000
     52 H22        6.1433    5.5951    6.7708 H         1 RES1    0.0000
     53 C26        4.5775    6.2795    7.8764 C.ar      1 RES1    0.0000
     54 H23        3.9701    5.5988    7.6114 H         1 RES1    0.0000
     55 C27        4.1593    7.2692    8.7552 C.ar      1 RES1    0.0000
@<TRIPOS>BOND
     1    1    2 1
     2    2    3 2
     3    3    4 1
     4    4    5 2
     5    6    4 1
     6    7    6 1
     7    8    7 2
     8    9    3 1
     9   10    1 1
    10   11    6 1
    11   12   11 ar
    12   13   12 1
    13   14   12 ar
    14   15   14 1
    15   16   14 ar
    16   17   16 1
    17   18   16 ar
    18   19   18 1
    19   20   11 ar
    20   21   20 1
    21   22    8 1
    22   23   22 1
    23   24   22 1
    24   25   22 1
    25   26   10 1
    26   27   26 1
    27   28   26 1
    28   29   28 1
    29   30   28 1
    30   31   28 1
    31   32   31 ar
    32   33   32 1
    33   34   32 ar
    34   35   34 1
    35   36   34 ar
    36   37   36 1
    37   38   36 ar
    38   39   38 1
    39   40   31 ar
    40   41   40 1
    41   42   26 1
    42   43   42 1
    43   44   42 1
    44   45   46 1
    45   47   45 ar
    46   48   47 1
    47   49   47 ar
    48   50   49 1
    49   51   49 ar
    50   52   51 1
    51   53   51 ar
    52   54   53 1
    53   55   42 1
    54    8    9 1
    55    9   10 2
    56   18   20 ar
    57   38   40 ar
    58   45   55 ar
    59   53   55 ar
@<TRIPOS>SUBSTRUCTURE
     1 RES1 1

@<TRIPOS>CRYSIN
   7.5163    9.6774   15.9053  86.7980  83.5120  69.3850   2 1

