# MOL2 file generated by ConQuest
# Please check atom types

@<TRIPOS>MOLECULE
MINGAR
    78    82     1
SMALL
NO_CHARGES
****
Generated from CSD

@<TRIPOS>ATOM
      1 O1         0.9927    0.5041    3.5938 O.2       1 RES1    0.0000
      2 O2         1.7982   -0.3238    1.7162 O.3       1 RES1    0.0000
      3 O3         1.7700    2.9738    1.3757 O.3       1 RES1    0.0000
      4 O4         1.0515    4.8126    2.4313 O.2       1 RES1    0.0000
      5 O5         5.8193    1.8070    1.2074 O.2       1 RES1    0.0000
      6 O6         6.0707    3.3458    2.8305 O.3       1 RES1    0.0000
      7 N1         3.0414    2.1986    1.3731 N.3       1 RES1    0.0000
      8 C1         4.0102    3.3004    1.6823 C.3       1 RES1    0.0000
      9 C2         3.2602    3.8144    2.9268 C.3       1 RES1    0.0000
     10 H1         3.6455    4.5885    3.3873 H         1 RES1    0.0000
     11 C3         3.0021    2.5403    3.7865 C.3       1 RES1    0.0000
     12 H2         2.0924    2.6120    4.1440 H         1 RES1    0.0000
     13 C4         2.9719    1.4574    2.6661 C.3       1 RES1    0.0000
     14 H3         3.7829    0.9115    2.7481 H         1 RES1    0.0000
     15 C5         1.7765    0.5330    2.7119 C.2       1 RES1    0.0000
     16 C6         0.6439   -1.2542    1.6271 C.3       1 RES1    0.0000
     17 H4         0.4369   -1.6059    2.5079 H         1 RES1    0.0000
     18 H5        -0.1364   -0.7800    1.2991 H         1 RES1    0.0000
     19 C7         0.9532   -2.2833    0.7761 C.3       1 RES1    0.0000
     20 H6         1.8342   -2.6090    0.9763 H         1 RES1    0.0000
     21 H7         0.9277   -1.9685   -0.1304 H         1 RES1    0.0000
     22 H8         0.3173   -2.9936    0.8872 H         1 RES1    0.0000
     23 C8         1.9233    4.0087    2.2832 C.2       1 RES1    0.0000
     24 C9         4.1146    4.2787    0.5164 C.3       1 RES1    0.0000
     25 H9         3.2795    4.7399    0.4107 H         1 RES1    0.0000
     26 H10        4.3188    3.7965   -0.2880 H         1 RES1    0.0000
     27 H11        4.8120    4.9153    0.6935 H         1 RES1    0.0000
     28 C10        5.4003    2.6977    1.8890 C.2       1 RES1    0.0000
     29 C11        7.4534    2.9039    3.0840 C.3       1 RES1    0.0000
     30 H12        7.8934    2.7176    2.2276 H         1 RES1    0.0000
     31 C12        7.4092    1.6278    3.9085 C.3       1 RES1    0.0000
     32 H13        6.9217    0.9474    3.4183 H         1 RES1    0.0000
     33 H14        6.9331    1.7981    4.7368 H         1 RES1    0.0000
     34 C13        8.8077    1.1147    4.2273 C.3       1 RES1    0.0000
     35 H15        9.2501    0.8757    3.3860 H         1 RES1    0.0000
     36 C14        8.7307   -0.1275    5.1048 C.3       1 RES1    0.0000
     37 H16        9.6175   -0.4622    5.2611 H         1 RES1    0.0000
     38 H17        8.2090   -0.7999    4.6619 H         1 RES1    0.0000
     39 H18        8.3210    0.0976    5.9429 H         1 RES1    0.0000
     40 C15        9.6023    2.2185    4.8925 C.3       1 RES1    0.0000
     41 H19       10.5139    1.9177    5.0274 H         1 RES1    0.0000
     42 H20        9.2191    2.4068    5.7634 H         1 RES1    0.0000
     43 C16        9.6150    3.4967    4.0676 C.3       1 RES1    0.0000
     44 H21       10.0619    3.3253    3.2233 H         1 RES1    0.0000
     45 H22       10.1212    4.1761    4.5405 H         1 RES1    0.0000
     46 C17        8.1965    4.0237    3.7914 C.3       1 RES1    0.0000
     47 H23        7.7625    4.1581    4.6593 H         1 RES1    0.0000
     48 C18        8.1656    5.3954    3.0368 C.3       1 RES1    0.0000
     49 C19        9.2406    6.3448    3.6081 C.3       1 RES1    0.0000
     50 H24        9.1580    7.2075    3.1949 H         1 RES1    0.0000
     51 H25       10.1128    5.9862    3.4286 H         1 RES1    0.0000
     52 H26        9.1188    6.4315    4.5560 H         1 RES1    0.0000
     53 C20        8.4832    5.2101    1.5626 C.3       1 RES1    0.0000
     54 H27        8.5604    6.0689    1.1416 H         1 RES1    0.0000
     55 H28        7.7786    4.7100    1.1442 H         1 RES1    0.0000
     56 H29        9.3109    4.7329    1.4709 H         1 RES1    0.0000
     57 C21        6.8214    6.1266    3.2558 C.ar      1 RES1    0.0000
     58 C22        6.3107    6.3069    4.5431 C.ar      1 RES1    0.0000
     59 H30        6.7772    5.9652    5.2714 H         1 RES1    0.0000
     60 C23        5.1272    6.9844    4.7523 C.ar      1 RES1    0.0000
     61 H31        4.7929    7.0760    5.6162 H         1 RES1    0.0000
     62 C24        4.4335    7.5263    3.6882 C.ar      1 RES1    0.0000
     63 H32        3.6351    7.9816    3.8264 H         1 RES1    0.0000
     64 C25        4.9421    7.3818    2.4252 C.ar      1 RES1    0.0000
     65 H33        4.4894    7.7484    1.6995 H         1 RES1    0.0000
     66 C26        6.1181    6.6965    2.2212 C.ar      1 RES1    0.0000
     67 H34        6.4488    6.6168    1.3547 H         1 RES1    0.0000
     68 C27        3.9228    2.2713    4.9567 C.ar      1 RES1    0.0000
     69 C28        4.1171    0.9753    5.4109 C.ar      1 RES1    0.0000
     70 H35        3.7451    0.2680    4.9357 H         1 RES1    0.0000
     71 C29        4.8478    0.7103    6.5473 C.ar      1 RES1    0.0000
     72 H36        4.9609   -0.1694    6.8301 H         1 RES1    0.0000
     73 C30        5.4088    1.7304    7.2614 C.ar      1 RES1    0.0000
     74 H37        5.9030    1.5511    8.0285 H         1 RES1    0.0000
     75 C31        5.2337    3.0284    6.8321 C.ar      1 RES1    0.0000
     76 H38        5.6147    3.7288    7.3105 H         1 RES1    0.0000
     77 C32        4.4924    3.2974    5.6906 C.ar      1 RES1    0.0000
     78 H39        4.3779    4.1781    5.4148 H         1 RES1    0.0000
@<TRIPOS>BOND
     1    1   15 2
     2    2   15 1
     3    3    7 1
     4    4   23 2
     5    5   28 2
     6    6   28 1
     7    7    8 1
     8    8    9 1
     9    9   10 1
    10   11    9 1
    11   12   11 1
    12   13    7 1
    13   14   13 1
    14   15   13 1
    15   16    2 1
    16   17   16 1
    17   18   16 1
    18   19   16 1
    19   20   19 1
    20   21   19 1
    21   22   19 1
    22   23    3 1
    23   24    8 1
    24   25   24 1
    25   26   24 1
    26   27   24 1
    27   28    8 1
    28   29    6 1
    29   30   29 1
    30   31   29 1
    31   32   31 1
    32   33   31 1
    33   34   31 1
    34   35   34 1
    35   36   34 1
    36   37   36 1
    37   38   36 1
    38   39   36 1
    39   40   34 1
    40   41   40 1
    41   42   40 1
    42   43   40 1
    43   44   43 1
    44   45   43 1
    45   46   29 1
    46   47   46 1
    47   48   46 1
    48   49   48 1
    49   50   49 1
    50   51   49 1
    51   52   49 1
    52   53   48 1
    53   54   53 1
    54   55   53 1
    55   56   53 1
    56   57   48 1
    57   58   57 ar
    58   59   58 1
    59   60   58 ar
    60   61   60 1
    61   62   60 ar
    62   63   62 1
    63   64   62 ar
    64   65   64 1
    65   66   57 ar
    66   67   66 1
    67   68   11 1
    68   69   68 ar
    69   70   69 1
    70   71   69 ar
    71   72   71 1
    72   73   71 ar
    73   74   73 1
    74   75   73 ar
    75   76   75 1
    76   77   68 ar
    77   78   77 1
    78    9   23 1
    79   11   13 1
    80   43   46 1
    81   64   66 ar
    82   75   77 ar
@<TRIPOS>SUBSTRUCTURE
     1 RES1 1

@<TRIPOS>CRYSIN
  11.3010    9.9620   13.7400  90.0000 109.9700  90.0000   4 1

