# MOL2 file generated by ConQuest
# Please check atom types

@<TRIPOS>MOLECULE
MINJEA
    54    56     1
SMALL
NO_CHARGES
****
Generated from CSD

@<TRIPOS>ATOM
      1 C1         4.9514    7.3967    3.8196 C.2       1 RES1    0.0000
      2 C2         3.1477    8.2467    5.1676 C.2       1 RES1    0.0000
      3 C3         2.7377    6.9856    5.5048 C.2       1 RES1    0.0000
      4 C4         3.5464    5.8950    5.1312 C.2       1 RES1    0.0000
      5 C5         5.3689    4.9996    3.7676 C.3       1 RES1    0.0000
      6 H1         4.8248    4.4957    3.1593 H         1 RES1    0.0000
      7 H2         5.6304    4.4394    4.5019 H         1 RES1    0.0000
      8 H3         6.1526    5.3152    3.3101 H         1 RES1    0.0000
      9 C6         4.5991    9.7970    3.9071 C.3       1 RES1    0.0000
     10 H4         5.5187    9.7996    3.6312 H         1 RES1    0.0000
     11 H5         4.4828   10.4097    4.6376 H         1 RES1    0.0000
     12 H6         4.0437   10.0667    3.1721 H         1 RES1    0.0000
     13 C7         1.4530    6.7578    6.2775 C.3       1 RES1    0.0000
     14 H7         0.9584    7.5996    6.1865 H         1 RES1    0.0000
     15 C8         1.6606    6.5981    7.7730 C.2       1 RES1    0.0000
     16 C9         1.7213    7.8010    8.5434 C.2       1 RES1    0.0000
     17 C10        1.8598    7.7374   10.0340 C.3       1 RES1    0.0000
     18 H8         1.3661    8.4768   10.4229 H         1 RES1    0.0000
     19 H9         2.7943    7.8568   10.2641 H         1 RES1    0.0000
     20 C11        1.3680    6.4418   10.6599 C.3       1 RES1    0.0000
     21 C12        2.0199    5.3010    9.8895 C.3       1 RES1    0.0000
     22 H10        2.9525    5.2435   10.1516 H         1 RES1    0.0000
     23 H11        1.5918    4.4703   10.1482 H         1 RES1    0.0000
     24 C13        1.9513    5.4295    8.4106 C.2       1 RES1    0.0000
     25 C14        1.7962    6.3746   12.1255 C.3       1 RES1    0.0000
     26 H12        2.7528    6.4159   12.1817 H         1 RES1    0.0000
     27 H13        1.4878    5.5514   12.5110 H         1 RES1    0.0000
     28 H14        1.4145    7.1146   12.6037 H         1 RES1    0.0000
     29 C15       -0.1579    6.3701   10.5910 C.3       1 RES1    0.0000
     30 H15       -0.5344    7.1216   11.0525 H         1 RES1    0.0000
     31 H16       -0.4595    5.5570   11.0026 H         1 RES1    0.0000
     32 H17       -0.4375    6.3864    9.6728 H         1 RES1    0.0000
     33 C16        0.5437    5.7059    5.6329 C.ar      1 RES1    0.0000
     34 C17       -0.4272    5.0594    6.3738 C.ar      1 RES1    0.0000
     35 H18       -0.5176    5.2632    7.2763 H         1 RES1    0.0000
     36 C18       -1.2665    4.1186    5.8081 C.ar      1 RES1    0.0000
     37 H19       -1.9124    3.6887    6.3210 H         1 RES1    0.0000
     38 C19       -1.1259    3.8320    4.4741 C.ar      1 RES1    0.0000
     39 C20       -0.2132    4.4885    3.6913 C.ar      1 RES1    0.0000
     40 H20       -0.1494    4.3031    2.7825 H         1 RES1    0.0000
     41 C21        0.6078    5.4280    4.2750 C.ar      1 RES1    0.0000
     42 H21        1.2198    5.8874    3.7460 H         1 RES1    0.0000
     43 N1        -1.9812    2.7955    3.8899 N.pl3     1 RES1    0.0000
     44 N2         4.6058    6.1421    4.2729 N.am      1 RES1    0.0000
     45 N3         4.2200    8.4429    4.3373 N.am      1 RES1    0.0000
     46 O1         5.8626    7.5720    3.0366 O.2       1 RES1    0.0000
     47 O2         2.5984    9.3560    5.5995 O.3       1 RES1    0.0000
     48 H22        2.2528    9.2233    6.3314 H         1 RES1    0.0000
     49 O3         3.3622    4.7190    5.5091 O.2       1 RES1    0.0000
     50 O4         1.7254    8.9307    8.0041 O.2       1 RES1    0.0000
     51 O5         2.2037    4.2965    7.7824 O.3       1 RES1    0.0000
     52 H23        2.4499    4.4577    7.0166 H         1 RES1    0.0000
     53 O6        -2.8380    2.2932    4.5834 O.2       1 RES1    0.0000
     54 O7        -1.7968    2.4781    2.7357 O.2       1 RES1    0.0000
@<TRIPOS>BOND
     1    1   44 1
     2    2    3 2
     3    3    4 1
     4    4   44 1
     5    5    6 1
     6    7    5 1
     7    8    5 1
     8    9   10 1
     9   11    9 1
    10   12    9 1
    11   13    3 1
    12   14   13 1
    13   15   13 1
    14   16   15 1
    15   17   16 1
    16   18   17 1
    17   19   17 1
    18   20   17 1
    19   21   20 1
    20   22   21 1
    21   23   21 1
    22   24   15 2
    23   25   20 1
    24   26   25 1
    25   27   25 1
    26   28   25 1
    27   29   20 1
    28   30   29 1
    29   31   29 1
    30   32   29 1
    31   33   13 1
    32   34   33 ar
    33   35   34 1
    34   36   34 ar
    35   37   36 1
    36   38   36 ar
    37   39   38 ar
    38   40   39 1
    39   41   33 ar
    40   42   41 1
    41   43   38 1
    42   44    5 1
    43   45    1 1
    44   46    1 2
    45   47    2 1
    46   48   47 1
    47   49    4 2
    48   50   16 2
    49   51   24 1
    50   52   51 1
    51   53   43 2
    52   54   43 2
    53    2   45 1
    54    9   45 1
    55   21   24 1
    56   39   41 ar
@<TRIPOS>SUBSTRUCTURE
     1 RES1 1

@<TRIPOS>CRYSIN
  12.7470   14.0577   11.7639  90.0000  99.7520  90.0000  14 1

