# MOL2 file generated by ConQuest
# Please check atom types

@<TRIPOS>MOLECULE
MINWOV
    66    70     1
SMALL
NO_CHARGES
****
Generated from CSD

@<TRIPOS>ATOM
      1 O1         2.5560   -0.9029   -2.3392 O.2       1 RES1    0.0000
      2 O2         3.3191   -2.1150   -3.9801 O.2       1 RES1    0.0000
      3 O3         7.4625   -0.6825   -5.9288 O.2       1 RES1    0.0000
      4 O4         9.0792   -0.0755   -4.6303 O.2       1 RES1    0.0000
      5 N1         3.4635   -1.2635   -3.0985 N.pl3     1 RES1    0.0000
      6 N2         7.8769   -0.3234   -4.8377 N.pl3     1 RES1    0.0000
      7 N3         8.5358    0.9747   -2.2959 N.3       1 RES1    0.0000
      8 N4         8.8111    1.5149   -1.0561 N.2       1 RES1    0.0000
      9 C1         4.7612   -0.6412   -2.9371 C.ar      1 RES1    0.0000
     10 C2         5.0392    0.0593   -1.7564 C.ar      1 RES1    0.0000
     11 H1         4.3618    0.1684   -1.0990 H         1 RES1    0.0000
     12 C3         6.2790    0.5834   -1.5503 C.ar      1 RES1    0.0000
     13 H2         6.4621    1.0396   -0.7384 H         1 RES1    0.0000
     14 C4         7.3006    0.4620   -2.5236 C.ar      1 RES1    0.0000
     15 C5         6.9463   -0.1862   -3.7394 C.ar      1 RES1    0.0000
     16 C6         5.6881   -0.7374   -3.9372 C.ar      1 RES1    0.0000
     17 H3         5.4745   -1.1740   -4.7532 H         1 RES1    0.0000
     18 C7         9.9228    2.1486   -0.9280 C.2       1 RES1    0.0000
     19 C8        10.8764    2.3993   -2.0665 C.3       1 RES1    0.0000
     20 H4        11.4212    1.5982   -2.2186 H         1 RES1    0.0000
     21 H5        11.4608    3.1544   -1.8443 H         1 RES1    0.0000
     22 H6        10.3683    2.6071   -2.8780 H         1 RES1    0.0000
     23 C9        10.2054    2.6820    0.4255 C.ar      1 RES1    0.0000
     24 C10       11.4111    3.2950    0.7686 C.ar      1 RES1    0.0000
     25 H7        12.0858    3.4005    0.1065 H         1 RES1    0.0000
     26 C11       11.6421    3.7514    2.0517 C.ar      1 RES1    0.0000
     27 H8        12.4751    4.1632    2.2495 H         1 RES1    0.0000
     28 C12       10.6895    3.6279    3.0669 C.ar      1 RES1    0.0000
     29 C13        9.4709    3.0355    2.7087 C.ar      1 RES1    0.0000
     30 H9         8.7871    2.9504    3.3623 H         1 RES1    0.0000
     31 C14        9.2417    2.5737    1.4335 C.ar      1 RES1    0.0000
     32 H10        8.4051    2.1699    1.2329 H         1 RES1    0.0000
     33 C15       10.9896    4.0836    4.4585 C.2       1 RES1    0.0000
     34 C16       12.2330    3.9911    4.9428 C.2       1 RES1    0.0000
     35 H11       12.8893    3.6094    4.3720 H         1 RES1    0.0000
     36 C17       12.6923    4.4349    6.3080 C.3       1 RES1    0.0000
     37 C18       11.7231    5.4467    6.8619 C.2       1 RES1    0.0000
     38 H12       12.0121    6.0287    7.5557 H         1 RES1    0.0000
     39 C19       10.4769    5.5513    6.4110 C.2       1 RES1    0.0000
     40 C20        9.8823    4.6278    5.3432 C.3       1 RES1    0.0000
     41 C21        8.8303    5.5443    4.6447 C.3       1 RES1    0.0000
     42 H13        9.2123    5.9704    3.8362 H         1 RES1    0.0000
     43 H14        8.0259    5.0279    4.3892 H         1 RES1    0.0000
     44 C22        8.4990    6.5771    5.6949 C.ar      1 RES1    0.0000
     45 C23        9.4608    6.5727    6.7136 C.ar      1 RES1    0.0000
     46 C24        9.3623    7.4600    7.7810 C.ar      1 RES1    0.0000
     47 H15       10.0140    7.4585    8.4727 H         1 RES1    0.0000
     48 C25        8.2956    8.3483    7.8170 C.ar      1 RES1    0.0000
     49 H16        8.2118    8.9515    8.5448 H         1 RES1    0.0000
     50 C26        7.3540    8.3645    6.8063 C.ar      1 RES1    0.0000
     51 H17        6.6352    8.9855    6.8413 H         1 RES1    0.0000
     52 C27        7.4506    7.4768    5.7375 C.ar      1 RES1    0.0000
     53 H18        6.8018    7.4893    5.0451 H         1 RES1    0.0000
     54 C28       12.8184    3.2161    7.2493 C.3       1 RES1    0.0000
     55 H19       13.1442    3.5123    8.1258 H         1 RES1    0.0000
     56 H20       13.4489    2.5714    6.8654 H         1 RES1    0.0000
     57 H21       11.9413    2.7917    7.3531 H         1 RES1    0.0000
     58 C29       14.0922    5.0702    6.1792 C.3       1 RES1    0.0000
     59 H22       14.0389    5.8635    5.6049 H         1 RES1    0.0000
     60 H23       14.7098    4.4207    5.7835 H         1 RES1    0.0000
     61 H24       14.4162    5.3291    7.0680 H         1 RES1    0.0000
     62 C30        9.1239    3.5017    6.0933 C.3       1 RES1    0.0000
     63 H25        8.7189    2.8921    5.4435 H         1 RES1    0.0000
     64 H26        8.4226    3.8960    6.6524 H         1 RES1    0.0000
     65 H27        9.7526    3.0054    6.6593 H         1 RES1    0.0000
     66 H28        9.1488    0.8161   -2.9364 H         1 RES1    0.0000
@<TRIPOS>BOND
     1    1    5 2
     2    2    5 2
     3    3    6 2
     4    4    6 2
     5    5    9 1
     6    6   15 1
     7    7    8 1
     8    8   18 2
     9    9   10 ar
    10   10   11 1
    11   12   10 ar
    12   13   12 1
    13   14    7 1
    14   15   14 ar
    15   16    9 ar
    16   17   16 1
    17   18   19 1
    18   19   20 1
    19   21   19 1
    20   22   19 1
    21   23   18 1
    22   24   23 ar
    23   25   24 1
    24   26   24 ar
    25   27   26 1
    26   28   26 ar
    27   29   28 ar
    28   30   29 1
    29   31   23 ar
    30   32   31 1
    31   33   28 1
    32   34   33 2
    33   35   34 1
    34   36   34 1
    35   37   36 1
    36   38   37 1
    37   39   37 2
    38   40   33 1
    39   41   40 1
    40   42   41 1
    41   43   41 1
    42   44   41 1
    43   45   39 1
    44   46   45 ar
    45   47   46 1
    46   48   46 ar
    47   49   48 1
    48   50   48 ar
    49   51   50 1
    50   52   44 ar
    51   53   52 1
    52   54   36 1
    53   55   54 1
    54   56   54 1
    55   57   54 1
    56   58   36 1
    57   59   58 1
    58   60   58 1
    59   61   58 1
    60   62   40 1
    61   63   62 1
    62   64   62 1
    63   65   62 1
    64   66    7 1
    65   12   14 ar
    66   15   16 ar
    67   29   31 ar
    68   39   40 1
    69   44   45 ar
    70   50   52 ar
@<TRIPOS>SUBSTRUCTURE
     1 RES1 1

@<TRIPOS>CRYSIN
   9.2040   16.1930   34.3440  90.0000  90.0000  90.0000  61 1

