# MOL2 file generated by ConQuest
# Please check atom types

@<TRIPOS>MOLECULE
MIQSAH
    53    56     1
SMALL
NO_CHARGES
****
Generated from CSD

@<TRIPOS>ATOM
      1 O1         2.6042    9.3401   11.8167 O.2       1 RES1    0.0000
      2 O2         5.2998   10.4008   11.1286 O.3       1 RES1    0.0000
      3 O3         5.6091    9.3399    8.6487 O.3       1 RES1    0.0000
      4 O4         2.1921    9.4977    8.6286 O.3       1 RES1    0.0000
      5 O5         3.5427   11.1615    9.2175 O.2       1 RES1    0.0000
      6 O6         9.9723    5.8865   11.7017 O.2       1 RES1    0.0000
      7 O7         9.8669    7.7140   10.5717 O.2       1 RES1    0.0000
      8 N1         4.0101    7.6545   12.5022 N.am      1 RES1    0.0000
      9 N2         9.3506    6.8310   11.2442 N.pl3     1 RES1    0.0000
     10 C1         3.6583    8.7327   11.7671 C.2       1 RES1    0.0000
     11 C2         4.8493    9.0941   10.8397 C.3       1 RES1    0.0000
     12 C3         5.8832    8.0910   11.2681 C.ar      1 RES1    0.0000
     13 C4         7.2042    7.9611   10.9239 C.ar      1 RES1    0.0000
     14 H1         7.6013    8.5286   10.3034 H         1 RES1    0.0000
     15 C5         7.9218    6.9484   11.5401 C.ar      1 RES1    0.0000
     16 C6         7.3643    6.0784   12.4558 C.ar      1 RES1    0.0000
     17 H2         7.8764    5.3949   12.8240 H         1 RES1    0.0000
     18 C7         6.0421    6.2287   12.8225 C.ar      1 RES1    0.0000
     19 H3         5.6480    5.6586   13.4433 H         1 RES1    0.0000
     20 C8         5.3225    7.2541   12.2366 C.ar      1 RES1    0.0000
     21 C9         4.4382    8.9272    9.3300 C.3       1 RES1    0.0000
     22 C10        4.0806    7.4709    9.0556 C.ar      1 RES1    0.0000
     23 C11        5.0232    6.6436    8.4553 C.ar      1 RES1    0.0000
     24 H4         5.8286    7.0032    8.1628 H         1 RES1    0.0000
     25 C12        4.7803    5.2928    8.2879 C.ar      1 RES1    0.0000
     26 H5         5.4175    4.7567    7.8748 H         1 RES1    0.0000
     27 C13        3.6109    4.7378    8.7246 C.ar      1 RES1    0.0000
     28 H6         3.4552    3.8272    8.6230 H         1 RES1    0.0000
     29 C14        2.6649    5.5412    9.3167 C.ar      1 RES1    0.0000
     30 H7         1.8645    5.1702    9.6104 H         1 RES1    0.0000
     31 C15        2.8902    6.8930    9.4805 C.ar      1 RES1    0.0000
     32 H8         2.2380    7.4232    9.8800 H         1 RES1    0.0000
     33 C16        5.4977    9.5890    7.2394 C.3       1 RES1    0.0000
     34 H9         4.7177   10.1353    7.0556 H         1 RES1    0.0000
     35 H10        5.4081    8.7516    6.7571 H         1 RES1    0.0000
     36 C17        6.7384   10.3000    6.8147 C.ar      1 RES1    0.0000
     37 C18        7.1193   11.4699    7.4488 C.ar      1 RES1    0.0000
     38 H11        6.6211   11.7730    8.1733 H         1 RES1    0.0000
     39 C19        8.2114   12.1962    7.0398 C.ar      1 RES1    0.0000
     40 H12        8.4569   12.9679    7.4961 H         1 RES1    0.0000
     41 C20        8.9254   11.7858    5.9748 C.ar      1 RES1    0.0000
     42 H13        9.6360   12.3020    5.6711 H         1 RES1    0.0000
     43 C21        8.6179   10.6209    5.3385 C.ar      1 RES1    0.0000
     44 H14        9.1371   10.3274    4.6244 H         1 RES1    0.0000
     45 C22        7.5129    9.8633    5.7660 C.ar      1 RES1    0.0000
     46 H15        7.3058    9.0641    5.3384 H         1 RES1    0.0000
     47 C23        3.3285    9.9852    9.0492 C.2       1 RES1    0.0000
     48 C24        1.0955   10.4527    8.5138 C.3       1 RES1    0.0000
     49 H16        0.8794   10.7979    9.3830 H         1 RES1    0.0000
     50 H17        0.3262   10.0132    8.1430 H         1 RES1    0.0000
     51 H18        1.3595   11.1755    7.9379 H         1 RES1    0.0000
     52 H19        4.8494   10.8955   10.5585 H         1 RES1    0.0000
     53 H20        3.4304    7.3386   13.1277 H         1 RES1    0.0000
@<TRIPOS>BOND
     1    1   10 2
     2    2   11 1
     3    3   21 1
     4    4   47 1
     5    5   47 2
     6    6    9 2
     7    7    9 2
     8    8   10 1
     9    9   15 1
    10   10   11 1
    11   11   12 1
    12   12   13 ar
    13   13   14 1
    14   15   13 ar
    15   16   15 ar
    16   17   16 1
    17   18   16 ar
    18   19   18 1
    19   20    8 1
    20   21   11 1
    21   22   21 1
    22   23   22 ar
    23   24   23 1
    24   25   23 ar
    25   26   25 1
    26   27   25 ar
    27   28   27 1
    28   29   27 ar
    29   30   29 1
    30   31   22 ar
    31   32   31 1
    32   33    3 1
    33   34   33 1
    34   35   33 1
    35   36   33 1
    36   37   36 ar
    37   38   37 1
    38   39   37 ar
    39   40   39 1
    40   41   39 ar
    41   42   41 1
    42   43   41 ar
    43   44   43 1
    44   45   36 ar
    45   46   45 1
    46   47   21 1
    47   48    4 1
    48   49   48 1
    49   50   48 1
    50   51   48 1
    51   52    2 1
    52   53    8 1
    53   12   20 ar
    54   18   20 ar
    55   29   31 ar
    56   43   45 ar
@<TRIPOS>SUBSTRUCTURE
     1 RES1 1

@<TRIPOS>CRYSIN
  10.0850   16.2790   13.4210  90.0000 101.5600  90.0000 231 1

