# MOL2 file generated by ConQuest
# Please check atom types

@<TRIPOS>MOLECULE
MIQWUE01
    44    46     1
SMALL
NO_CHARGES
****
Generated from CSD

@<TRIPOS>ATOM
      1 O1         8.6934    0.2575   -2.6136 O.2       1 RES1    0.0000
      2 O2         9.9607    1.1827   -1.2060 O.2       1 RES1    0.0000
      3 O3        -2.2817    6.8562    4.6092 O.3       1 RES1    0.0000
      4 N1         8.8606    0.9241   -1.6180 N.pl3     1 RES1    0.0000
      5 C1         7.7047    1.4850   -0.9248 C.ar      1 RES1    0.0000
      6 C2         7.9565    2.5091   -0.0389 C.ar      1 RES1    0.0000
      7 C3         6.9225    3.1402    0.5906 C.ar      1 RES1    0.0000
      8 C4         5.6246    2.7597    0.3236 C.ar      1 RES1    0.0000
      9 C5         5.4133    1.6931   -0.5323 C.ar      1 RES1    0.0000
     10 C6         6.4273    1.0011   -1.1813 C.ar      1 RES1    0.0000
     11 C7         6.0799   -0.1965   -2.0124 C.3       1 RES1    0.0000
     12 C8         4.4771    3.4528    0.9744 C.ar      1 RES1    0.0000
     13 C9         4.4126    3.4896    2.3572 C.ar      1 RES1    0.0000
     14 C10        3.3350    4.0252    3.0115 C.ar      1 RES1    0.0000
     15 C11        2.2896    4.5792    2.2988 C.ar      1 RES1    0.0000
     16 C12        2.4053    4.5987    0.9089 C.ar      1 RES1    0.0000
     17 C13        3.4709    4.0562    0.2228 C.ar      1 RES1    0.0000
     18 C14        3.5153    4.1470   -1.2803 C.3       1 RES1    0.0000
     19 C15        1.0917    5.1355    2.9602 C.ar      1 RES1    0.0000
     20 C16        0.7210    6.4412    2.7003 C.ar      1 RES1    0.0000
     21 C17       -0.3934    7.0113    3.2555 C.ar      1 RES1    0.0000
     22 C18       -1.1771    6.2481    4.0884 C.ar      1 RES1    0.0000
     23 C19       -0.8432    4.9505    4.3501 C.ar      1 RES1    0.0000
     24 C20        0.2862    4.3643    3.8161 C.ar      1 RES1    0.0000
     25 C21        0.5873    2.9413    4.1450 C.3       1 RES1    0.0000
     26 H1         8.8511    2.7781    0.1344 H         1 RES1    0.0000
     27 H2         7.0966    3.8390    1.2113 H         1 RES1    0.0000
     28 H3         4.5179    1.4172   -0.6861 H         1 RES1    0.0000
     29 H4         6.2147    0.0057   -2.9301 H         1 RES1    0.0000
     30 H5         5.1699   -0.4276   -1.8691 H         1 RES1    0.0000
     31 H6         6.6353   -0.9253   -1.7630 H         1 RES1    0.0000
     32 H7         5.1326    3.1356    2.8647 H         1 RES1    0.0000
     33 H8         3.3064    4.0149    3.9611 H         1 RES1    0.0000
     34 H9         1.7109    5.0079    0.4067 H         1 RES1    0.0000
     35 H10        3.1362    4.9723   -1.5597 H         1 RES1    0.0000
     36 H11        4.4172    4.0976   -1.5738 H         1 RES1    0.0000
     37 H12        3.0200    3.4287   -1.6552 H         1 RES1    0.0000
     38 H13        1.2586    6.9619    2.1149 H         1 RES1    0.0000
     39 H14       -0.6201    7.9148    3.0681 H         1 RES1    0.0000
     40 H15       -1.4051    4.4355    4.9160 H         1 RES1    0.0000
     41 H16        1.1535    2.9068    4.9071 H         1 RES1    0.0000
     42 H17       -0.2228    2.4816    4.3324 H         1 RES1    0.0000
     43 H18        1.0218    2.5310    3.4076 H         1 RES1    0.0000
     44 H19       -2.7346    6.2872    5.2643 H         1 RES1    0.0000
@<TRIPOS>BOND
     1    1    4 2
     2    2    4 2
     3    3   22 1
     4    4    5 1
     5    5    6 ar
     6    6    7 ar
     7    7    8 ar
     8    8    9 ar
     9    9   10 ar
    10   10    5 ar
    11   11   10 1
    12   12    8 1
    13   13   12 ar
    14   14   13 ar
    15   15   14 ar
    16   16   15 ar
    17   17   12 ar
    18   18   17 1
    19   19   15 1
    20   20   19 ar
    21   21   20 ar
    22   22   21 ar
    23   23   22 ar
    24   24   19 ar
    25   25   24 1
    26   26    6 1
    27   27    7 1
    28   28    9 1
    29   29   11 1
    30   30   11 1
    31   31   11 1
    32   32   13 1
    33   33   14 1
    34   34   16 1
    35   35   18 1
    36   36   18 1
    37   37   18 1
    38   38   20 1
    39   39   21 1
    40   40   23 1
    41   41   25 1
    42   42   25 1
    43   43   25 1
    44   44    3 1
    45   16   17 ar
    46   23   24 ar
@<TRIPOS>SUBSTRUCTURE
     1 RES1 1

@<TRIPOS>CRYSIN
   8.3411   11.4940   17.6980  90.0000  92.3270  90.0000 231 1

