# MOL2 file generated by ConQuest
# Please check atom types

@<TRIPOS>MOLECULE
MIRZIX
    44    46     1
SMALL
NO_CHARGES
****
Generated from CSD

@<TRIPOS>ATOM
      1 O1        -0.7586   -0.7299    7.4849 O.2       1 RES1    0.0000
      2 O2         1.1923    1.5840    3.5554 O.3       1 RES1    0.0000
      3 O3         1.5608    4.2250    2.9185 O.3       1 RES1    0.0000
      4 O4         0.3370    5.0737    1.1093 O.3       1 RES1    0.0000
      5 O5         3.2886    1.4319    4.3430 O.2       1 RES1    0.0000
      6 O6         4.4163   -3.0575   -0.8421 O.2       1 RES1    0.0000
      7 O7         2.4396   -2.6354   -1.5967 O.2       1 RES1    0.0000
      8 N1         3.3384   -2.4906   -0.7814 N.pl3     1 RES1    0.0000
      9 C1        -0.2616    2.1228    5.3843 C.3       1 RES1    0.0000
     10 C2        -1.5296    1.5052    4.7908 C.3       1 RES1    0.0000
     11 H1        -1.3205    1.0116    3.9586 H         1 RES1    0.0000
     12 H2        -2.1964    2.2071    4.5856 H         1 RES1    0.0000
     13 C3        -2.0654    0.5472    5.8703 C.3       1 RES1    0.0000
     14 H3        -2.8002    0.9722    6.3796 H         1 RES1    0.0000
     15 H4        -2.4047   -0.2868    5.4588 H         1 RES1    0.0000
     16 C4        -0.8848    0.2524    6.7802 C.2       1 RES1    0.0000
     17 C5         0.1243    1.3148    6.6155 C.3       1 RES1    0.0000
     18 H5         1.0874    1.1217    6.8040 H         1 RES1    0.0000
     19 C6        -0.4036    2.7433    6.7293 C.3       1 RES1    0.0000
     20 H6        -1.3196    2.8688    7.0846 H         1 RES1    0.0000
     21 H7         0.2392    3.4532    6.9792 H         1 RES1    0.0000
     22 C7         0.8342    2.6352    4.4990 C.3       1 RES1    0.0000
     23 H8         1.6309    2.8732    5.0546 H         1 RES1    0.0000
     24 C8         0.4187    3.8288    3.6727 C.3       1 RES1    0.0000
     25 H9        -0.3268    3.5865    3.0672 H         1 RES1    0.0000
     26 H10        0.1202    4.5679    4.2605 H         1 RES1    0.0000
     27 C9         1.3231    5.3150    2.0678 C.3       1 RES1    0.0000
     28 H11        1.0523    6.0943    2.6154 H         1 RES1    0.0000
     29 H12        2.1666    5.5497    1.6065 H         1 RES1    0.0000
     30 C10        0.6995    4.0425    0.1930 C.3       1 RES1    0.0000
     31 H13       -0.0204    3.9178   -0.4599 H         1 RES1    0.0000
     32 H14        0.8438    3.2060    0.6827 H         1 RES1    0.0000
     33 H15        1.5241    4.2945   -0.2735 H         1 RES1    0.0000
     34 C11        2.4419    1.1270    3.5525 C.2       1 RES1    0.0000
     35 C12        2.6522    0.1664    2.4193 C.ar      1 RES1    0.0000
     36 C13        3.9168   -0.3929    2.2467 C.ar      1 RES1    0.0000
     37 H16        4.6196   -0.1727    2.8474 H         1 RES1    0.0000
     38 C14        4.1516   -1.2730    1.1956 C.ar      1 RES1    0.0000
     39 H17        5.0097   -1.6596    1.0646 H         1 RES1    0.0000
     40 C15        3.1029   -1.5697    0.3492 C.ar      1 RES1    0.0000
     41 C16        1.8399   -1.0352    0.4988 C.ar      1 RES1    0.0000
     42 H18        1.1404   -1.2634   -0.1023 H         1 RES1    0.0000
     43 C17        1.6174   -0.1562    1.5483 C.ar      1 RES1    0.0000
     44 H19        0.7567    0.2260    1.6724 H         1 RES1    0.0000
@<TRIPOS>BOND
     1    1   16 2
     2    2   22 1
     3    3   24 1
     4    4   27 1
     5    5   34 2
     6    6    8 2
     7    7    8 2
     8    8   40 1
     9    9   10 1
    10   10   11 1
    11   12   10 1
    12   13   10 1
    13   14   13 1
    14   15   13 1
    15   16   13 1
    16   17    9 1
    17   18   17 1
    18   19    9 1
    19   20   19 1
    20   21   19 1
    21   22    9 1
    22   23   22 1
    23   24   22 1
    24   25   24 1
    25   26   24 1
    26   27    3 1
    27   28   27 1
    28   29   27 1
    29   30    4 1
    30   31   30 1
    31   32   30 1
    32   33   30 1
    33   34    2 1
    34   35   34 1
    35   36   35 ar
    36   37   36 1
    37   38   36 ar
    38   39   38 1
    39   40   38 ar
    40   41   40 ar
    41   42   41 1
    42   43   35 ar
    43   44   43 1
    44   16   17 1
    45   17   19 1
    46   41   43 ar
@<TRIPOS>SUBSTRUCTURE
     1 RES1 1

@<TRIPOS>CRYSIN
   8.3387   10.1389   10.4935  98.5259 100.4967 101.1562   2 1

