# MOL2 file generated by ConQuest
# Please check atom types

@<TRIPOS>MOLECULE
MISCUM
    46    48     1
SMALL
NO_CHARGES
****
Generated from CSD

@<TRIPOS>ATOM
      1 N1         5.5806    7.0455   10.5578 N.3       1 RES1    0.0000
      2 O1         5.6506    8.0416   11.6260 O.3       1 RES1    0.0000
      3 O2         3.0771    7.9609   14.0992 O.3       1 RES1    0.0000
      4 O3         5.0183    6.8816   14.0974 O.2       1 RES1    0.0000
      5 O4         3.0927    8.3757    8.1829 O.3       1 RES1    0.0000
      6 O5         4.7401    8.3706    6.6145 O.3       1 RES1    0.0000
      7 C1         2.7110    7.4129   15.4000 C.3       1 RES1    0.0000
      8 H1         1.8568    7.7612   15.6660 H         1 RES1    0.0000
      9 H2         3.3732    7.6613   16.0496 H         1 RES1    0.0000
     10 H3         2.6626    6.4553   15.3423 H         1 RES1    0.0000
     11 C2         4.2406    7.5858   13.5709 C.2       1 RES1    0.0000
     12 C3         4.3435    8.2221   12.1852 C.3       1 RES1    0.0000
     13 H4         4.1689    9.1823   12.2672 H         1 RES1    0.0000
     14 C4         3.3374    7.6255   11.1941 C.3       1 RES1    0.0000
     15 H5         2.6632    8.2759   10.9414 H         1 RES1    0.0000
     16 H6         2.9013    6.8419   11.5622 H         1 RES1    0.0000
     17 C5         4.2323    7.2542    9.9969 C.3       1 RES1    0.0000
     18 H7         3.9140    6.4143    9.6045 H         1 RES1    0.0000
     19 C6         4.3226    8.3143    8.9039 C.3       1 RES1    0.0000
     20 H8         4.5272    9.1887    9.2963 H         1 RES1    0.0000
     21 C7         5.3617    7.9609    7.8374 C.3       1 RES1    0.0000
     22 H9         6.1908    8.4410    7.9838 H         1 RES1    0.0000
     23 H10        5.5453    7.0084    7.8330 H         1 RES1    0.0000
     24 C8         5.7290    5.6999   11.1697 C.3       1 RES1    0.0000
     25 H11        4.9352    5.4810   11.6841 H         1 RES1    0.0000
     26 H12        6.4917    5.6909   11.7684 H         1 RES1    0.0000
     27 C9         5.9276    4.6821   10.0612 C.ar      1 RES1    0.0000
     28 C10        5.0063    3.6988    9.8107 C.ar      1 RES1    0.0000
     29 H13        4.2442    3.6399   10.3428 H         1 RES1    0.0000
     30 C11        5.1930    2.7847    8.7775 C.ar      1 RES1    0.0000
     31 H14        4.5547    2.1279    8.6134 H         1 RES1    0.0000
     32 C12        6.3188    2.8563    8.0037 C.ar      1 RES1    0.0000
     33 H15        6.4582    2.2405    7.3209 H         1 RES1    0.0000
     34 C13        7.2394    3.8435    8.2454 C.ar      1 RES1    0.0000
     35 H16        8.0009    3.9049    7.7155 H         1 RES1    0.0000
     36 C14        7.0444    4.7486    9.2675 C.ar      1 RES1    0.0000
     37 H17        7.6779    5.4118    9.4227 H         1 RES1    0.0000
     38 C15        3.3643    8.1325    6.7865 C.3       1 RES1    0.0000
     39 C16        3.0173    6.6870    6.4761 C.3       1 RES1    0.0000
     40 H18        2.0752    6.5500    6.6003 H         1 RES1    0.0000
     41 H19        3.5061    6.1070    7.0637 H         1 RES1    0.0000
     42 H20        3.2506    6.4911    5.5649 H         1 RES1    0.0000
     43 C17        2.5824    9.1132    5.9440 C.3       1 RES1    0.0000
     44 H21        1.6421    8.9557    6.0571 H         1 RES1    0.0000
     45 H22        2.8163    8.9979    5.0195 H         1 RES1    0.0000
     46 H23        2.7918   10.0094    6.2167 H         1 RES1    0.0000
@<TRIPOS>BOND
     1    1    2 1
     2    2   12 1
     3    3    7 1
     4    4   11 2
     5    5   19 1
     6    6   21 1
     7    7    8 1
     8    9    7 1
     9   10    7 1
    10   11    3 1
    11   12   11 1
    12   13   12 1
    13   14   12 1
    14   15   14 1
    15   16   14 1
    16   17    1 1
    17   18   17 1
    18   19   17 1
    19   20   19 1
    20   21   19 1
    21   22   21 1
    22   23   21 1
    23   24    1 1
    24   25   24 1
    25   26   24 1
    26   27   24 1
    27   28   27 ar
    28   29   28 1
    29   30   28 ar
    30   31   30 1
    31   32   30 ar
    32   33   32 1
    33   34   32 ar
    34   35   34 1
    35   36   27 ar
    36   37   36 1
    37   38    5 1
    38   39   38 1
    39   40   39 1
    40   41   39 1
    41   42   39 1
    42   43   38 1
    43   44   43 1
    44   45   43 1
    45   46   43 1
    46    6   38 1
    47   14   17 1
    48   34   36 ar
@<TRIPOS>SUBSTRUCTURE
     1 RES1 1

@<TRIPOS>CRYSIN
   5.9820   12.8030   22.1710  90.0000  90.0000  90.0000  19 1

