# MOL2 file generated by ConQuest
# Please check atom types

@<TRIPOS>MOLECULE
MITJIK
    66    70     1
SMALL
NO_CHARGES
****
Generated from CSD

@<TRIPOS>ATOM
      1 O1         1.0676    0.2824    3.4853 O.3       1 RES1    0.0000
      2 O2         3.2547    0.7102    4.7551 O.3       1 RES1    0.0000
      3 O3         4.4853    9.6642    3.8724 O.2       1 RES1    0.0000
      4 O4         4.1787   11.6633    3.1878 O.2       1 RES1    0.0000
      5 O5         0.6145   12.9017    0.4040 O.2       1 RES1    0.0000
      6 O6        -0.8406   11.4675   -0.2215 O.2       1 RES1    0.0000
      7 N1         2.3965    6.4539    3.1319 N.2       1 RES1    0.0000
      8 N2         2.8778    7.7421    3.1551 N.pl3     1 RES1    0.0000
      9 H1         3.6530    7.9597    3.5760 H         1 RES1    0.0000
     10 N3         3.8407   10.4901    3.2268 N.pl3     1 RES1    0.0000
     11 N4         0.1550   11.7717    0.3945 N.pl3     1 RES1    0.0000
     12 C1         3.1663    5.5331    3.6182 C.2       1 RES1    0.0000
     13 C2         4.5538    5.7666    4.1593 C.3       1 RES1    0.0000
     14 H2         4.7113    5.1324    4.8756 H         1 RES1    0.0000
     15 H3         4.5820    6.6555    4.5475 H         1 RES1    0.0000
     16 C3         5.7149    5.6465    3.1425 C.3       1 RES1    0.0000
     17 C4         5.5787    6.6105    1.9747 C.3       1 RES1    0.0000
     18 H4         5.5168    7.5176    2.3102 H         1 RES1    0.0000
     19 H5         4.7644    6.4141    1.4863 H         1 RES1    0.0000
     20 C5         6.7944    6.4965    1.0179 C.3       1 RES1    0.0000
     21 H6         6.7044    7.1381    0.2827 H         1 RES1    0.0000
     22 C6         6.8127    5.0757    0.4726 C.3       1 RES1    0.0000
     23 H7         5.9741    4.8881    0.0211 H         1 RES1    0.0000
     24 H8         7.5313    4.9816   -0.1719 H         1 RES1    0.0000
     25 C7         7.0087    4.1147    1.5834 C.3       1 RES1    0.0000
     26 H9         7.0362    3.2048    1.2194 H         1 RES1    0.0000
     27 C8         5.8229    4.2275    2.5665 C.3       1 RES1    0.0000
     28 H10        4.9995    4.0032    2.1055 H         1 RES1    0.0000
     29 H11        5.9426    3.5941    3.2912 H         1 RES1    0.0000
     30 C9         7.0319    5.9439    3.8387 C.3       1 RES1    0.0000
     31 H12        7.1245    5.3614    4.6098 H         1 RES1    0.0000
     32 H13        7.0258    6.8604    4.1562 H         1 RES1    0.0000
     33 C10        8.2459    5.7363    2.8882 C.3       1 RES1    0.0000
     34 H14        9.0834    5.9030    3.3693 H         1 RES1    0.0000
     35 C11        8.0594    6.7674    1.7848 C.3       1 RES1    0.0000
     36 H15        8.0187    7.6550    2.1741 H         1 RES1    0.0000
     37 H16        8.8174    6.7370    1.1804 H         1 RES1    0.0000
     38 C12        8.2510    4.3751    2.3165 C.3       1 RES1    0.0000
     39 H17        9.0068    4.2791    1.7163 H         1 RES1    0.0000
     40 H18        8.3489    3.7244    3.0296 H         1 RES1    0.0000
     41 C13        2.5883    4.1618    3.5866 C.ar      1 RES1    0.0000
     42 C14        1.4097    3.9049    2.9030 C.ar      1 RES1    0.0000
     43 H19        0.9727    4.6012    2.4694 H         1 RES1    0.0000
     44 C15        0.8748    2.6335    2.8534 C.ar      1 RES1    0.0000
     45 H20        0.0784    2.4887    2.3946 H         1 RES1    0.0000
     46 C16        1.5053    1.5744    3.4737 C.ar      1 RES1    0.0000
     47 C17        2.6936    1.8088    4.1710 C.ar      1 RES1    0.0000
     48 C18        3.2142    3.0865    4.2279 C.ar      1 RES1    0.0000
     49 H21        3.9980    3.2358    4.7047 H         1 RES1    0.0000
     50 C19        2.2031    8.7233    2.5201 C.ar      1 RES1    0.0000
     51 C20        2.6590   10.0740    2.5211 C.ar      1 RES1    0.0000
     52 C21        1.9657   11.0539    1.8323 C.ar      1 RES1    0.0000
     53 H22        2.2730   11.9320    1.8397 H         1 RES1    0.0000
     54 C22        0.8388   10.7376    1.1477 C.ar      1 RES1    0.0000
     55 C23        0.3549    9.4285    1.1329 C.ar      1 RES1    0.0000
     56 H23       -0.4239    9.2229    0.6677 H         1 RES1    0.0000
     57 C24        1.0287    8.4554    1.8059 C.ar      1 RES1    0.0000
     58 H24        0.6998    7.5851    1.7901 H         1 RES1    0.0000
     59 C25        4.4249    0.9020    5.5222 C.3       1 RES1    0.0000
     60 H25        5.1098    1.2876    4.9705 H         1 RES1    0.0000
     61 H26        4.7268    0.0562    5.8619 H         1 RES1    0.0000
     62 H27        4.2346    1.4915    6.2543 H         1 RES1    0.0000
     63 C26       -0.1807    0.0218    2.8819 C.3       1 RES1    0.0000
     64 H28       -0.8597    0.5483    3.3112 H         1 RES1    0.0000
     65 H29       -0.3928   -0.9099    2.9737 H         1 RES1    0.0000
     66 H30       -0.1398    0.2507    1.9505 H         1 RES1    0.0000
@<TRIPOS>BOND
     1    1   46 1
     2    2   47 1
     3    3   10 2
     4    4   10 2
     5    5   11 2
     6    6   11 2
     7    7    8 1
     8    8    9 1
     9   10   51 1
    10   11   54 1
    11   12    7 2
    12   13   12 1
    13   14   13 1
    14   15   13 1
    15   16   13 1
    16   17   16 1
    17   18   17 1
    18   19   17 1
    19   20   17 1
    20   21   20 1
    21   22   20 1
    22   23   22 1
    23   24   22 1
    24   25   22 1
    25   26   25 1
    26   27   16 1
    27   28   27 1
    28   29   27 1
    29   30   16 1
    30   31   30 1
    31   32   30 1
    32   33   30 1
    33   34   33 1
    34   35   20 1
    35   36   35 1
    36   37   35 1
    37   38   25 1
    38   39   38 1
    39   40   38 1
    40   41   12 1
    41   42   41 ar
    42   43   42 1
    43   44   42 ar
    44   45   44 1
    45   46   44 ar
    46   47   46 ar
    47   48   41 ar
    48   49   48 1
    49   50    8 1
    50   51   50 ar
    51   52   51 ar
    52   53   52 1
    53   54   52 ar
    54   55   54 ar
    55   56   55 1
    56   57   50 ar
    57   58   57 1
    58   59    2 1
    59   60   59 1
    60   61   59 1
    61   62   59 1
    62   63    1 1
    63   64   63 1
    64   65   63 1
    65   66   63 1
    66   25   27 1
    67   33   35 1
    68   33   38 1
    69   47   48 ar
    70   55   57 ar
@<TRIPOS>SUBSTRUCTURE
     1 RES1 1

@<TRIPOS>CRYSIN
  10.7496   11.0680   11.2740  93.5090 108.5130 105.8840   2 1

