# MOL2 file generated by ConQuest
# Please check atom types

@<TRIPOS>MOLECULE
MITXAO
    43    44     1
SMALL
NO_CHARGES
****
Generated from CSD

@<TRIPOS>ATOM
      1 C1         4.5156    8.4081   -1.9726 C.2       1 RES1    0.0000
      2 C2         5.0135    7.0149   -2.2807 C.3       1 RES1    0.0000
      3 H1         5.9399    7.0884   -2.5907 H         1 RES1    0.0000
      4 O1         5.0121    6.2181   -1.0912 O.3       1 RES1    0.0000
      5 C3         3.7725    6.2017   -0.3787 C.3       1 RES1    0.0000
      6 H2         3.0862    5.7596   -0.9215 H         1 RES1    0.0000
      7 N1         3.3594    7.5622   -0.0821 N.pl3     1 RES1    0.0000
      8 H3         2.8690    7.7225    0.6050 H         1 RES1    0.0000
      9 C4         3.7445    8.5692   -0.8828 C.2       1 RES1    0.0000
     10 H4         3.4606    9.4289   -0.6722 H         1 RES1    0.0000
     11 C5         3.9813    5.4374    0.8901 C.ar      1 RES1    0.0000
     12 C6         3.3002    4.2634    1.1405 C.ar      1 RES1    0.0000
     13 H5         2.7305    3.9192    0.4901 H         1 RES1    0.0000
     14 C7         3.4466    3.5919    2.3311 C.ar      1 RES1    0.0000
     15 H6         2.9720    2.8096    2.5011 H         1 RES1    0.0000
     16 C8         4.3179    4.1100    3.2663 C.ar      1 RES1    0.0000
     17 C9         5.0308    5.2583    3.0534 C.ar      1 RES1    0.0000
     18 H7         5.6186    5.5844    3.6971 H         1 RES1    0.0000
     19 C10        4.8485    5.9195    1.8516 C.ar      1 RES1    0.0000
     20 H8         5.3189    6.7056    1.6889 H         1 RES1    0.0000
     21 N2         4.4681    3.4231    4.5689 N.pl3     1 RES1    0.0000
     22 O2         5.3608    3.7736    5.2882 O.2       1 RES1    0.0000
     23 O3         3.6783    2.5222    4.8499 O.2       1 RES1    0.0000
     24 C11        4.2023    6.3357   -3.3848 C.2       1 RES1    0.0000
     25 O4         3.4312    5.4413   -3.2027 O.2       1 RES1    0.0000
     26 O5         4.4718    6.8542   -4.5661 O.3       1 RES1    0.0000
     27 C12        3.7422    6.3190   -5.7007 C.3       1 RES1    0.0000
     28 H9         2.7986    6.5265   -5.6184 H         1 RES1    0.0000
     29 H10        3.8424    5.3550   -5.7360 H         1 RES1    0.0000
     30 C13        4.2956    6.9350   -6.9334 C.3       1 RES1    0.0000
     31 H11        3.7981    6.6296   -7.6966 H         1 RES1    0.0000
     32 H12        5.2168    6.6850   -7.0300 H         1 RES1    0.0000
     33 H13        4.2289    7.8913   -6.8704 H         1 RES1    0.0000
     34 C14        4.9585    9.5938   -2.6636 C.2       1 RES1    0.0000
     35 O6         4.5916   10.7424   -2.3765 O.2       1 RES1    0.0000
     36 O7         5.8228    9.3504   -3.6388 O.3       1 RES1    0.0000
     37 C15        6.3403   10.5089   -4.3566 C.3       1 RES1    0.0000
     38 H14        5.6065   11.0592   -4.6689 H         1 RES1    0.0000
     39 H15        6.8937   11.0437   -3.7671 H         1 RES1    0.0000
     40 C16        7.1165   10.0475   -5.4697 C.3       1 RES1    0.0000
     41 H16        7.5818   10.7885   -5.8649 H         1 RES1    0.0000
     42 H17        6.5352    9.6505   -6.1225 H         1 RES1    0.0000
     43 H18        7.7524    9.3941   -5.1675 H         1 RES1    0.0000
@<TRIPOS>BOND
     1    1    2 1
     2    2    3 1
     3    4    2 1
     4    5    4 1
     5    6    5 1
     6    7    5 1
     7    8    7 1
     8    9    1 2
     9   10    9 1
    10   11    5 1
    11   12   11 ar
    12   13   12 1
    13   14   12 ar
    14   15   14 1
    15   16   14 ar
    16   17   16 ar
    17   18   17 1
    18   19   11 ar
    19   20   19 1
    20   21   16 1
    21   22   21 2
    22   23   21 2
    23   24    2 1
    24   25   24 2
    25   26   24 1
    26   27   26 1
    27   28   27 1
    28   29   27 1
    29   30   27 1
    30   31   30 1
    31   32   30 1
    32   33   30 1
    33   34    1 1
    34   35   34 2
    35   36   34 1
    36   37   36 1
    37   38   37 1
    38   39   37 1
    39   40   37 1
    40   41   40 1
    41   42   40 1
    42   43   40 1
    43    7    9 1
    44   17   19 ar
@<TRIPOS>SUBSTRUCTURE
     1 RES1 1

@<TRIPOS>CRYSIN
   4.6620   12.8880   28.0080  90.0000  90.0000  90.0000  19 1

