# MOL2 file generated by ConQuest
# Please check atom types

@<TRIPOS>MOLECULE
MIWFIH
    34    36     2
SMALL
NO_CHARGES
****
Generated from CSD

@<TRIPOS>ATOM
      1 O1         0.5988   13.3962    3.4855 O.2       1 RES1    0.0000
      2 O2        -1.0544    9.7360    6.1430 O.2       1 RES1    0.0000
      3 O3         1.6255    8.9465   -0.6496 O.2       1 RES1    0.0000
      4 O4         2.3623    9.3158    1.3096 O.2       1 RES1    0.0000
      5 N1        -3.9526   12.5225    4.1301 N.2       1 RES1    0.0000
      6 N2         1.4873    9.3752    0.4705 N.pl3     1 RES1    0.0000
      7 C1        -2.9710   13.4460    3.8561 C.2       1 RES1    0.0000
      8 C2        -1.6689   13.0532    3.8870 C.2       1 RES1    0.0000
      9 C3        -1.3502   11.5727    3.9223 C.3       1 RES1    0.0000
     10 C4        -2.4365   10.8022    4.6505 C.2       1 RES1    0.0000
     11 C5        -3.7029   11.2782    4.6895 C.2       1 RES1    0.0000
     12 C6        -4.8946   10.6480    5.3575 C.3       1 RES1    0.0000
     13 C7        -3.5210   14.7876    3.4780 C.3       1 RES1    0.0000
     14 C8        -0.5039   13.9115    3.7493 C.2       1 RES1    0.0000
     15 C9        -0.5002   15.3913    3.9708 C.ar      1 RES1    0.0000
     16 C10        0.1818   16.1923    3.0467 C.ar      1 RES1    0.0000
     17 C11        0.3325   17.5385    3.2689 C.ar      1 RES1    0.0000
     18 C12       -0.1515   18.1072    4.4191 C.ar      1 RES1    0.0000
     19 C13       -0.8147   17.3128    5.3497 C.ar      1 RES1    0.0000
     20 C14       -0.9988   15.9649    5.1183 C.ar      1 RES1    0.0000
     21 C15       -1.9689    9.5921    5.3680 C.2       1 RES1    0.0000
     22 C16       -2.7296    8.3191    5.3510 C.ar      1 RES1    0.0000
     23 C17       -3.5172    7.9450    4.2740 C.ar      1 RES1    0.0000
     24 C18       -4.1423    6.7083    4.2740 C.ar      1 RES1    0.0000
     25 C19       -3.9967    5.8617    5.3536 C.ar      1 RES1    0.0000
     26 C20       -3.2253    6.2175    6.4071 C.ar      1 RES1    0.0000
     27 C21       -2.5687    7.4348    6.4044 C.ar      1 RES1    0.0000
     28 C22       -2.1919   11.0207    1.5959 C.ar      1 RES1    0.0000
     29 C23       -2.0273   10.5243    0.3150 C.ar      1 RES1    0.0000
     30 C24       -0.8047    9.9977   -0.0771 C.ar      1 RES1    0.0000
     31 C25        0.2048    9.9692    0.8574 C.ar      1 RES1    0.0000
     32 C26        0.0688   10.4740    2.1370 C.ar      1 RES1    0.0000
     33 C27       -1.1514   11.0148    2.5213 C.ar      1 RES1    0.0000
     34 O5        -0.7679    9.5535    5.7640 Du        2 SUP2    0.0000
@<TRIPOS>BOND
     1    1   14 2
     2    2   21 2
     3    3    6 2
     4    4    6 2
     5    5    7 1
     6    6   31 1
     7    7    8 2
     8    8    9 1
     9    9   10 1
    10   10   11 2
    11   11    5 1
    12   12   11 1
    13   13    7 1
    14   14    8 1
    15   15   14 1
    16   16   15 ar
    17   17   16 ar
    18   18   17 ar
    19   19   18 ar
    20   20   15 ar
    21   21   10 1
    22   22   21 1
    23   23   22 ar
    24   24   23 ar
    25   25   24 ar
    26   26   25 ar
    27   27   22 ar
    28   28   29 ar
    29   29   30 ar
    30   30   31 ar
    31   31   32 ar
    32   32   33 ar
    33   33    9 1
    34   19   20 ar
    35   26   27 ar
    36   28   33 ar
@<TRIPOS>SUBSTRUCTURE
     1 RES1 1
     2 SUP2 34

@<TRIPOS>CRYSIN
   7.3113   23.3925   13.0737  90.0000  91.3100  90.0000  14 1

