# MOL2 file generated by ConQuest
# Please check atom types

@<TRIPOS>MOLECULE
MIWFED
    23    24     1
SMALL
NO_CHARGES
****
Generated from CSD

@<TRIPOS>ATOM
      1 O1         1.5152   10.3397    0.8411 O.2       1 RES1    0.0000
      2 O2         2.0355   10.4993   -1.2399 O.2       1 RES1    0.0000
      3 O3        -3.4889   11.1914   -5.7085 O.2       1 RES1    0.0000
      4 O4         0.2281    6.6801   -3.7620 O.2       1 RES1    0.0000
      5 N1        -4.3889    7.4482   -3.9141 N.2       1 RES1    0.0000
      6 N2         1.2405   10.2482   -0.3477 N.pl3     1 RES1    0.0000
      7 C1        -3.3744    6.5369   -3.6997 C.2       1 RES1    0.0000
      8 C2        -2.0875    6.9640   -3.7732 C.2       1 RES1    0.0000
      9 C3        -1.8161    8.4611   -3.8243 C.3       1 RES1    0.0000
     10 C4        -2.9322    9.1907   -4.5583 C.2       1 RES1    0.0000
     11 C5        -4.1808    8.6882   -4.4985 C.2       1 RES1    0.0000
     12 C6        -5.4262    9.3195   -5.0393 C.3       1 RES1    0.0000
     13 C7        -3.8909    5.1667   -3.3969 C.3       1 RES1    0.0000
     14 C8        -0.8807    6.1284   -3.7770 C.2       1 RES1    0.0000
     15 C9        -0.9188    4.6492   -3.8829 C.3       1 RES1    0.0000
     16 C10       -2.6273   10.4294   -5.2960 C.2       1 RES1    0.0000
     17 C11       -1.1870   10.6865   -5.5789 C.3       1 RES1    0.0000
     18 C12       -1.5877    9.0203   -2.4150 C.ar      1 RES1    0.0000
     19 C13       -0.3161    9.3928   -2.0187 C.ar      1 RES1    0.0000
     20 C14       -0.1197    9.8484   -0.7327 C.ar      1 RES1    0.0000
     21 C15       -1.1307    9.9461    0.2019 C.ar      1 RES1    0.0000
     22 C16       -2.3993    9.5994   -0.2093 C.ar      1 RES1    0.0000
     23 C17       -2.6203    9.1471   -1.5003 C.ar      1 RES1    0.0000
@<TRIPOS>BOND
     1    1    6 2
     2    2    6 2
     3    3   16 2
     4    4   14 2
     5    5    7 1
     6    6   20 1
     7    7    8 2
     8    8    9 1
     9    9   10 1
    10   10   11 2
    11   11    5 1
    12   12   11 1
    13   13    7 1
    14   14    8 1
    15   15   14 1
    16   16   10 1
    17   17   16 1
    18   18    9 1
    19   19   18 ar
    20   20   19 ar
    21   21   20 ar
    22   22   21 ar
    23   23   18 ar
    24   22   23 ar
@<TRIPOS>SUBSTRUCTURE
     1 RES1 1

@<TRIPOS>CRYSIN
   7.5370   16.2730   12.4740  90.0000  92.6000  90.0000 231 1

