# MOL2 file generated by ConQuest
# Please check atom types

@<TRIPOS>MOLECULE
MIWRAN
    55    56     1
SMALL
USER_CHARGES
****
Generated from CSD

@<TRIPOS>ATOM
      1 O1         4.1275    2.2954   18.3970 O.2       1 RES1   -1.0000
      2 O2         3.1846   -1.7651   16.4123 O.2       1 RES1    0.0000
      3 O3         0.2978   -0.4436   16.3495 O.3       1 RES1    0.0000
      4 O4         2.3323    1.2496   13.1187 O.2       1 RES1    0.0000
      5 O5         3.5843    2.1328   14.8157 O.3       1 RES1    0.0000
      6 N1         4.2266    1.0761   18.0221 N.pl3     1 RES1    1.0000
      7 N2         3.7555   -0.8632   17.1120 N.3       1 RES1    0.0000
      8 N3         1.8939    0.7727   15.2944 N.am      1 RES1    0.0000
      9 C1         3.3547    0.4099   17.2510 C.2       1 RES1    0.0000
     10 C2         5.4571    0.2514   18.2741 C.3       1 RES1    0.0000
     11 C3         4.8912   -1.1758   18.0574 C.3       1 RES1    0.0000
     12 C4         6.4690    0.6674   17.2042 C.3       1 RES1    0.0000
     13 C5         6.0103    0.5217   19.6604 C.3       1 RES1    0.0000
     14 C6         5.8303   -2.1771   17.4279 C.3       1 RES1    0.0000
     15 C7         4.2460   -1.7677   19.3076 C.3       1 RES1    0.0000
     16 C8         2.1044    1.0328   16.7141 C.3       1 RES1    0.0000
     17 C9         0.8089    0.4573   17.3204 C.3       1 RES1    0.0000
     18 C10        0.6164    0.0523   15.0513 C.3       1 RES1    0.0000
     19 C11        0.7827   -1.1446   14.1489 C.3       1 RES1    0.0000
     20 C12       -0.4597    1.0212   14.5626 C.3       1 RES1    0.0000
     21 C13        2.5831    1.3855   14.3014 C.2       1 RES1    0.0000
     22 C14        4.4461    2.9371   13.9181 C.3       1 RES1    0.0000
     23 C15        3.5984    3.9186   13.1195 C.3       1 RES1    0.0000
     24 C16        5.2506    2.0207   13.0222 C.3       1 RES1    0.0000
     25 C17        5.3232    3.6915   14.8958 C.3       1 RES1    0.0000
     26 H1         7.2892    0.1422   17.3091 H         1 RES1    0.0000
     27 H2         6.6757    1.6202   17.3038 H         1 RES1    0.0000
     28 H3         6.0894    0.5068   16.3156 H         1 RES1    0.0000
     29 H4         6.2911    1.4586   19.7225 H         1 RES1    0.0000
     30 H5         6.7803   -0.0619   19.8242 H         1 RES1    0.0000
     31 H6         5.3166    0.3429   20.3289 H         1 RES1    0.0000
     32 H7         6.5569   -2.3816   18.0529 H         1 RES1    0.0000
     33 H8         6.2044   -1.8014   16.6046 H         1 RES1    0.0000
     34 H9         5.3392   -2.9985   17.2182 H         1 RES1    0.0000
     35 H10        4.9386   -1.9539   19.9758 H         1 RES1    0.0000
     36 H11        3.7850   -2.6006   19.0750 H         1 RES1    0.0000
     37 H12        3.6003   -1.1283   19.6761 H         1 RES1    0.0000
     38 H13        2.1329    2.0204   16.8685 H         1 RES1    0.0000
     39 H14        1.0019   -0.0161   18.1689 H         1 RES1    0.0000
     40 H15        0.1574    1.1811   17.5018 H         1 RES1    0.0000
     41 H16        1.0471   -0.8451   13.2547 H         1 RES1    0.0000
     42 H17       -0.0660   -1.6317   14.0931 H         1 RES1    0.0000
     43 H18        1.4750   -1.7349   14.5140 H         1 RES1    0.0000
     44 H19       -0.5608    1.7498   15.2097 H         1 RES1    0.0000
     45 H20       -1.3110    0.5447   14.4712 H         1 RES1    0.0000
     46 H21       -0.1970    1.3898   13.6935 H         1 RES1    0.0000
     47 H22        3.0819    4.4800   13.7346 H         1 RES1    0.0000
     48 H23        2.9858    3.4228   12.5377 H         1 RES1    0.0000
     49 H24        4.1818    4.4846   12.5734 H         1 RES1    0.0000
     50 H25        4.6418    1.5090   12.4485 H         1 RES1    0.0000
     51 H26        5.7756    1.4035   13.5722 H         1 RES1    0.0000
     52 H27        5.8538    2.5548   12.4646 H         1 RES1    0.0000
     53 H28        5.9179    4.2943   14.4035 H         1 RES1    0.0000
     54 H29        5.8595    3.0547   15.4130 H         1 RES1    0.0000
     55 H30        4.7596    4.2140   15.5040 H         1 RES1    0.0000
@<TRIPOS>BOND
     1    1    6 1
     2    2    7 1
     3    3   17 1
     4    4   21 2
     5    5   21 1
     6    6    9 2
     7    7    9 1
     8    8   16 1
     9    9   16 1
    10   10    6 1
    11   11    7 1
    12   12   10 1
    13   13   10 1
    14   14   11 1
    15   15   11 1
    16   16   17 1
    17   17   39 1
    18   18    3 1
    19   19   18 1
    20   20   18 1
    21   21    8 1
    22   22    5 1
    23   23   22 1
    24   24   22 1
    25   25   22 1
    26   26   12 1
    27   27   12 1
    28   28   12 1
    29   29   13 1
    30   30   13 1
    31   31   13 1
    32   32   14 1
    33   33   14 1
    34   34   14 1
    35   35   15 1
    36   36   15 1
    37   37   15 1
    38   38   16 1
    39   40   17 1
    40   41   19 1
    41   42   19 1
    42   43   19 1
    43   44   20 1
    44   45   20 1
    45   46   20 1
    46   47   23 1
    47   48   23 1
    48   49   23 1
    49   50   24 1
    50   51   24 1
    51   52   24 1
    52   53   25 1
    53   54   25 1
    54   55   25 1
    55    8   18 1
    56   10   11 1
@<TRIPOS>SUBSTRUCTURE
     1 RES1 1

@<TRIPOS>CRYSIN
   9.4249   11.4667   17.8371  90.0000  90.0000  90.0000  19 1

