# MOL2 file generated by ConQuest
# Please check atom types

@<TRIPOS>MOLECULE
MIWRIU
    42    47     1
SMALL
NO_CHARGES
****
Generated from CSD

@<TRIPOS>ATOM
      1 C1        -1.0364    6.9071    5.5481 C.3       1 RES1    0.0000
      2 H1        -1.9846    6.7077    5.7048 H         1 RES1    0.0000
      3 C2        -0.7592    8.4094    5.7388 C.3       1 RES1    0.0000
      4 H2        -1.2077    8.9920    5.0921 H         1 RES1    0.0000
      5 C3        -0.2418    7.6812    7.6710 C.3       1 RES1    0.0000
      6 H3        -0.3781    7.4879    8.6227 H         1 RES1    0.0000
      7 C4        -0.1765    6.3997    6.7151 C.3       1 RES1    0.0000
      8 H4        -0.5119    5.5766    7.1278 H         1 RES1    0.0000
      9 C5         1.3071    6.3371    6.3030 C.3       1 RES1    0.0000
     10 H5         1.6549    5.4376    6.1312 H         1 RES1    0.0000
     11 C6         1.4618    7.3428    5.1351 C.3       1 RES1    0.0000
     12 H6         2.4093    7.5231    4.9629 H         1 RES1    0.0000
     13 C7         0.7949    8.5634    5.7812 C.3       1 RES1    0.0000
     14 C8         1.0930    8.3080    7.3216 C.3       1 RES1    0.0000
     15 H7         1.3466    9.0959    7.8457 H         1 RES1    0.0000
     16 C9         2.0487    7.1321    7.3875 C.3       1 RES1    0.0000
     17 H8         2.0452    6.6892    8.2499 H         1 RES1    0.0000
     18 H9         2.9558    7.3661    7.1315 H         1 RES1    0.0000
     19 C10       -0.5936    6.3950    4.1556 C.3       1 RES1    0.0000
     20 H10       -0.5885    5.4250    4.1453 H         1 RES1    0.0000
     21 H11       -1.2150    6.7042    3.4772 H         1 RES1    0.0000
     22 C11        0.7753    6.9160    3.8727 C.3       1 RES1    0.0000
     23 H12        0.7234    7.6699    3.2483 H         1 RES1    0.0000
     24 C12        1.3500    5.5468    2.0282 C.2       1 RES1    0.0000
     25 C13        2.0809    4.3304    1.5717 C.ar      1 RES1    0.0000
     26 C14        3.0124    3.6881    2.3783 C.ar      1 RES1    0.0000
     27 H13        3.2305    4.0224    3.2188 H         1 RES1    0.0000
     28 C15        3.6026    2.5403    1.8956 C.ar      1 RES1    0.0000
     29 C16        3.3079    1.9984    0.6725 C.ar      1 RES1    0.0000
     30 H14        3.7207    1.2212    0.3710 H         1 RES1    0.0000
     31 C17        2.3647    2.6639   -0.0928 C.ar      1 RES1    0.0000
     32 C18        1.7534    3.8170    0.3195 C.ar      1 RES1    0.0000
     33 H15        1.1319    4.2474   -0.2233 H         1 RES1    0.0000
     34 N1         4.5820    1.8270    2.7561 N.pl3     1 RES1    0.0000
     35 N2         1.9892    2.0777   -1.3957 N.pl3     1 RES1    0.0000
     36 O1        -1.1871    8.5796    7.0916 O.3       1 RES1    0.0000
     37 O2         1.5989    5.8452    3.2970 O.3       1 RES1    0.0000
     38 O3         0.6317    6.1920    1.3215 O.2       1 RES1    0.0000
     39 O4         4.8248    2.2861    3.8520 O.2       1 RES1    0.0000
     40 O5         5.1059    0.8350    2.3078 O.2       1 RES1    0.0000
     41 O6         2.4835    1.0010   -1.6900 O.2       1 RES1    0.0000
     42 O7         1.1824    2.6764   -2.0796 O.2       1 RES1    0.0000
@<TRIPOS>BOND
     1    1    2 1
     2    3    1 1
     3    4    3 1
     4    5    6 1
     5    7    1 1
     6    8    7 1
     7    9    7 1
     8   10    9 1
     9   11    9 1
    10   12   11 1
    11   13    3 1
    12   14    5 1
    13   15   14 1
    14   16    9 1
    15   17   16 1
    16   18   16 1
    17   19    1 1
    18   20   19 1
    19   21   19 1
    20   22   11 1
    21   23   22 1
    22   24   25 1
    23   25   26 ar
    24   26   27 1
    25   28   26 ar
    26   29   28 ar
    27   30   29 1
    28   31   29 ar
    29   32   25 ar
    30   33   32 1
    31   34   28 1
    32   35   31 1
    33   36    3 1
    34   37   22 1
    35   38   24 2
    36   39   34 2
    37   40   34 2
    38   41   35 2
    39   42   35 2
    40    5    7 1
    41    5   36 1
    42   11   13 1
    43   13   14 1
    44   14   16 1
    45   19   22 1
    46   24   37 1
    47   31   32 ar
@<TRIPOS>SUBSTRUCTURE
     1 RES1 1

@<TRIPOS>CRYSIN
  29.6325    5.9688   21.6208  90.0000 121.3910  90.0000  15 1

