# MOL2 file generated by ConQuest
# Please check atom types

@<TRIPOS>MOLECULE
MIXBUS
    44    49     1
SMALL
NO_CHARGES
****
Generated from CSD

@<TRIPOS>ATOM
      1 N1         3.1516    1.9447    8.8366 N.pl3     1 RES1    0.0000
      2 N2         0.4913    3.9504    4.3873 N.3       1 RES1    0.0000
      3 N3        -0.2728   -1.0838    2.2288 N.pl3     1 RES1    0.0000
      4 O1         0.1486   -2.0413    2.8792 O.2       1 RES1    0.0000
      5 O2        -0.8276   -1.2225    1.1265 O.2       1 RES1    0.0000
      6 C1         2.5897    0.9258    9.6212 C.ar      1 RES1    0.0000
      7 C2         1.4205    0.1914    9.4225 C.ar      1 RES1    0.0000
      8 H1         0.8701    0.3352    8.6620 H         1 RES1    0.0000
      9 C3         1.0947   -0.7560   10.3781 C.ar      1 RES1    0.0000
     10 H2         0.3025   -1.2684   10.2668 H         1 RES1    0.0000
     11 C4         1.8949   -0.9819   11.4985 C.ar      1 RES1    0.0000
     12 H3         1.6489   -1.6493   12.1291 H         1 RES1    0.0000
     13 C5         3.0365   -0.2430   11.6950 C.ar      1 RES1    0.0000
     14 H4         3.5805   -0.3950   12.4592 H         1 RES1    0.0000
     15 C6         3.3896    0.7338   10.7597 C.ar      1 RES1    0.0000
     16 C7         4.4789    1.6773   10.6765 C.ar      1 RES1    0.0000
     17 C8         5.5686    1.9623   11.5012 C.ar      1 RES1    0.0000
     18 H5         5.6765    1.5108   12.3301 H         1 RES1    0.0000
     19 C9         6.4841    2.9043   11.0984 C.ar      1 RES1    0.0000
     20 H6         7.2246    3.1081   11.6573 H         1 RES1    0.0000
     21 C10        6.3396    3.5648    9.8757 C.ar      1 RES1    0.0000
     22 H7         6.9997    4.1940    9.6066 H         1 RES1    0.0000
     23 C11        5.2571    3.3243    9.0450 C.ar      1 RES1    0.0000
     24 H8         5.1609    3.7801    8.2170 H         1 RES1    0.0000
     25 C12        4.3164    2.3916    9.4698 C.ar      1 RES1    0.0000
     26 C13        2.5420    2.5151    7.6821 C.ar      1 RES1    0.0000
     27 C14        2.0394    1.6823    6.6961 C.ar      1 RES1    0.0000
     28 H9         2.1571    0.7412    6.7513 H         1 RES1    0.0000
     29 C15        1.3574    2.2493    5.6211 C.ar      1 RES1    0.0000
     30 C16        0.7112    1.6992    4.4524 C.ar      1 RES1    0.0000
     31 C17        0.5446    0.4074    3.9683 C.ar      1 RES1    0.0000
     32 H10        0.8653   -0.3446    4.4512 H         1 RES1    0.0000
     33 C18       -0.1059    0.2587    2.7573 C.ar      1 RES1    0.0000
     34 C19       -0.6046    1.3385    2.0174 C.ar      1 RES1    0.0000
     35 H11       -1.0459    1.1850    1.1904 H         1 RES1    0.0000
     36 C20       -0.4543    2.6225    2.4914 C.ar      1 RES1    0.0000
     37 H12       -0.7853    3.3662    2.0022 H         1 RES1    0.0000
     38 C21        0.1982    2.7964    3.7110 C.ar      1 RES1    0.0000
     39 C22        1.2147    3.6477    5.5386 C.ar      1 RES1    0.0000
     40 C23        1.7602    4.4924    6.5025 C.ar      1 RES1    0.0000
     41 H13        1.6876    5.4357    6.4238 H         1 RES1    0.0000
     42 C24        2.4101    3.9153    7.5760 C.ar      1 RES1    0.0000
     43 H14        2.7746    4.4710    8.2547 H         1 RES1    0.0000
     44 H15        0.3121    4.7668    4.0816 H         1 RES1    0.0000
@<TRIPOS>BOND
     1    1    6 1
     2    2   38 1
     3    3    4 2
     4    5    3 2
     5    6    7 ar
     6    7    8 1
     7    9    7 ar
     8   10    9 1
     9   11    9 ar
    10   12   11 1
    11   13   11 ar
    12   14   13 1
    13   15    6 ar
    14   16   15 1
    15   17   16 ar
    16   18   17 1
    17   19   17 ar
    18   20   19 1
    19   21   19 ar
    20   22   21 1
    21   23   21 ar
    22   24   23 1
    23   25    1 1
    24   26    1 1
    25   27   26 ar
    26   28   27 1
    27   29   27 ar
    28   30   29 1
    29   31   30 ar
    30   32   31 1
    31   33    3 1
    32   34   33 ar
    33   35   34 1
    34   36   34 ar
    35   37   36 1
    36   38   30 ar
    37   39    2 1
    38   40   39 ar
    39   41   40 1
    40   42   26 ar
    41   43   42 1
    42   44    2 1
    43   13   15 ar
    44   16   25 ar
    45   23   25 ar
    46   29   39 ar
    47   31   33 ar
    48   36   38 ar
    49   40   42 ar
@<TRIPOS>SUBSTRUCTURE
     1 RES1 1

@<TRIPOS>CRYSIN
  12.7311   15.7373    9.2462  90.0000 104.0250  90.0000  14 1

