# MOL2 file generated by ConQuest
# Please check atom types

@<TRIPOS>MOLECULE
MIXFUW
    39    40     1
SMALL
USER_CHARGES
****
Generated from CSD

@<TRIPOS>ATOM
      1 C1         6.4020    0.9224    6.4148 C.2       1 RES1    0.0000
      2 N1         5.5642    1.9363    6.1365 N.pl3     1 RES1    1.0000
      3 O1         5.5665    2.6429    5.0708 O.2       1 RES1   -1.0000
      4 C2         4.7335    2.3015    7.3367 C.3       1 RES1    0.0000
      5 C3         4.8245    0.9905    8.1724 C.3       1 RES1    0.0000
      6 N2         6.0952    0.3992    7.6150 N.3       1 RES1    0.0000
      7 O2         6.6894   -0.5769    8.1910 O.2       1 RES1    0.0000
      8 C4         3.3360    2.6829    6.8914 C.3       1 RES1    0.0000
      9 H1         2.9054    1.9853    6.3433 H         1 RES1    0.0000
     10 H2         3.3876    3.4458    6.3649 H         1 RES1    0.0000
     11 H3         2.7967    2.8148    7.6703 H         1 RES1    0.0000
     12 C5         5.4294    3.4884    7.9842 C.3       1 RES1    0.0000
     13 H4         4.9551    3.7578    8.7383 H         1 RES1    0.0000
     14 H5         6.3508    3.2260    8.2312 H         1 RES1    0.0000
     15 H6         5.4969    4.1336    7.3143 H         1 RES1    0.0000
     16 C6         3.7141   -0.0213    7.8990 C.3       1 RES1    0.0000
     17 H7         3.6190   -0.2269    6.9690 H         1 RES1    0.0000
     18 H8         2.8808    0.3474    8.2744 H         1 RES1    0.0000
     19 H9         3.9294   -0.8650    8.3715 H         1 RES1    0.0000
     20 C7         4.9693    1.1869    9.6671 C.3       1 RES1    0.0000
     21 H10        5.0866    0.2623   10.0976 H         1 RES1    0.0000
     22 H11        5.7494    1.7016    9.9034 H         1 RES1    0.0000
     23 H12        4.1696    1.6591   10.0221 H         1 RES1    0.0000
     24 C8         7.5072    0.5119    5.5049 C.3       1 RES1    0.0000
     25 H13        7.5186    1.1273    4.7899 H         1 RES1    0.0000
     26 O3         7.2950   -0.8132    5.0169 O.3       1 RES1    0.0000
     27 C9         8.5533   -1.5187    5.0326 C.3       1 RES1    0.0000
     28 O4         9.5373   -0.5438    5.3572 O.3       1 RES1    0.0000
     29 C10        8.8864    0.4304    6.1643 C.3       1 RES1    0.0000
     30 H14        9.3456    1.2833    6.0952 H         1 RES1    0.0000
     31 H15        8.7793    0.1418    7.1093 H         1 RES1    0.0000
     32 C11        8.8510   -2.0221    3.6356 C.3       1 RES1    0.0000
     33 H16        9.6788   -2.4390    3.6679 H         1 RES1    0.0000
     34 H17        8.1831   -2.6659    3.3982 H         1 RES1    0.0000
     35 H18        8.8196   -1.1982    2.9883 H         1 RES1    0.0000
     36 C12        8.4798   -2.6092    6.0618 C.3       1 RES1    0.0000
     37 H19        7.7378   -3.2473    5.8255 H         1 RES1    0.0000
     38 H20        8.3286   -2.2051    6.9583 H         1 RES1    0.0000
     39 H21        9.2965   -3.1339    6.0844 H         1 RES1    0.0000
@<TRIPOS>BOND
     1    1    2 2
     2    2    3 1
     3    4    2 1
     4    5    4 1
     5    6    1 1
     6    7    6 1
     7    8    4 1
     8    9    8 1
     9   10    8 1
    10   11    8 1
    11   12    4 1
    12   13   12 1
    13   14   12 1
    14   15   12 1
    15   16    5 1
    16   17   16 1
    17   18   16 1
    18   19   16 1
    19   20    5 1
    20   21   20 1
    21   22   20 1
    22   23   20 1
    23   24    1 1
    24   25   24 1
    25   26   24 1
    26   27   26 1
    27   28   27 1
    28   29   24 1
    29   30   29 1
    30   31   29 1
    31   32   27 1
    32   33   32 1
    33   34   32 1
    34   35   32 1
    35   36   27 1
    36   37   36 1
    37   38   36 1
    38   39   36 1
    39    5    6 1
    40   28   29 1
@<TRIPOS>SUBSTRUCTURE
     1 RES1 1

@<TRIPOS>CRYSIN
  17.5340    7.0902   10.7880  90.0000  90.0000  90.0000  19 1

