# MOL2 file generated by ConQuest
# Please check atom types

@<TRIPOS>MOLECULE
MIXFOQ
    74    78     1
SMALL
NO_CHARGES
****
Generated from CSD

@<TRIPOS>ATOM
      1 N1         0.9911    3.5498   10.2722 N.pl3     1 RES1    0.0000
      2 O1        -0.0586    5.5190    1.4598 O.3       1 RES1    0.0000
      3 C1         1.2719    3.6764    2.2194 C.3       1 RES1    0.0000
      4 O2         0.9316    5.7238    3.5286 O.3       1 RES1    0.0000
      5 C2         1.0919    4.7779    1.1356 C.3       1 RES1    0.0000
      6 H1         1.8688    5.3590    1.1189 H         1 RES1    0.0000
      7 H2         0.9924    4.3726    0.2603 H         1 RES1    0.0000
      8 O3         8.4497    1.0945    7.5139 O.3       1 RES1    0.0000
      9 C3         0.1035    6.3181    2.5635 C.3       1 RES1    0.0000
     10 O4         9.2996    0.8624    5.4816 O.2       1 RES1    0.0000
     11 C4         0.7740    4.3085    3.5651 C.3       1 RES1    0.0000
     12 H3        -0.1759    4.0957    3.6854 H         1 RES1    0.0000
     13 O5         5.2542    1.9859    7.0222 O.3       1 RES1    0.0000
     14 C5         1.5278    3.7863    4.7099 C.3       1 RES1    0.0000
     15 H4         1.3582    2.8342    4.7829 H         1 RES1    0.0000
     16 H5         1.1920    4.2056    5.5167 H         1 RES1    0.0000
     17 O6        -0.1283    3.3731    9.8368 O.2       1 RES1    0.0000
     18 C6         3.0392    4.0069    4.6429 C.3       1 RES1    0.0000
     19 H6         3.4643    3.3670    5.2335 H         1 RES1    0.0000
     20 H7         3.2319    4.8922    4.9884 H         1 RES1    0.0000
     21 C7         3.7141    3.8768    3.1983 C.3       1 RES1    0.0000
     22 O7         1.1953    4.0957   11.3317 O.2       1 RES1    0.0000
     23 C8         2.6445    3.1533    2.3108 C.3       1 RES1    0.0000
     24 H8         2.5291    2.2865    2.7538 H         1 RES1    0.0000
     25 C9         5.0040    3.0619    3.2759 C.3       1 RES1    0.0000
     26 H9         4.7589    2.1854    3.6412 H         1 RES1    0.0000
     27 C10        5.5608    2.8087    1.8511 C.2       1 RES1    0.0000
     28 C11        4.5861    2.0131    1.0717 C.3       1 RES1    0.0000
     29 H10        4.4203    1.1701    1.5223 H         1 RES1    0.0000
     30 H11        4.9532    1.8189    0.1948 H         1 RES1    0.0000
     31 C12        3.2757    2.7709    0.9164 C.3       1 RES1    0.0000
     32 H12        2.6465    2.2241    0.4201 H         1 RES1    0.0000
     33 H13        3.4342    3.5806    0.4049 H         1 RES1    0.0000
     34 C13       -1.2928    6.6003    3.1404 C.3       1 RES1    0.0000
     35 H14       -1.7153    5.7704    3.3748 H         1 RES1    0.0000
     36 H15       -1.8249    7.0548    2.4828 H         1 RES1    0.0000
     37 H16       -1.2111    7.1497    3.9229 H         1 RES1    0.0000
     38 C14        0.8302    7.6552    2.2057 C.3       1 RES1    0.0000
     39 H17        1.7079    7.4618    1.8678 H         1 RES1    0.0000
     40 H18        0.9038    8.2002    2.9928 H         1 RES1    0.0000
     41 H19        0.3260    8.1246    1.5375 H         1 RES1    0.0000
     42 C15        0.2462    2.5063    1.9135 C.3       1 RES1    0.0000
     43 H20        0.3392    1.8180    2.5757 H         1 RES1    0.0000
     44 H21        0.4284    2.1406    1.0443 H         1 RES1    0.0000
     45 H22       -0.6487    2.8518    1.9333 H         1 RES1    0.0000
     46 C16        4.0320    5.2860    2.6883 C.3       1 RES1    0.0000
     47 H23        4.4267    5.2289    1.8145 H         1 RES1    0.0000
     48 H24        4.6466    5.7133    3.2896 H         1 RES1    0.0000
     49 H25        3.2222    5.7994    2.6411 H         1 RES1    0.0000
     50 C17        6.7255    3.3608    1.4355 C.2       1 RES1    0.0000
     51 H26        6.9994    3.2588    0.5511 H         1 RES1    0.0000
     52 H27        7.2522    3.8417    2.0322 H         1 RES1    0.0000
     53 C18        6.0127    3.6588    4.2303 C.3       1 RES1    0.0000
     54 H28        5.5366    3.9797    5.0113 H         1 RES1    0.0000
     55 H29        6.4155    4.4298    3.7995 H         1 RES1    0.0000
     56 C19        7.1311    2.7393    4.6992 C.2       1 RES1    0.0000
     57 H30        7.7412    2.4782    4.0492 H         1 RES1    0.0000
     58 C20        7.3405    2.2760    5.8866 C.2       1 RES1    0.0000
     59 C21        6.5823    2.5503    7.1424 C.3       1 RES1    0.0000
     60 H31        6.5148    3.5182    7.2779 H         1 RES1    0.0000
     61 C22        7.4130    1.9542    8.2293 C.3       1 RES1    0.0000
     62 H32        6.8680    1.4127    8.8199 H         1 RES1    0.0000
     63 H33        7.8450    2.6496    8.7499 H         1 RES1    0.0000
     64 C23        8.4444    1.3521    6.2199 C.2       1 RES1    0.0000
     65 C24        4.2751    2.3498    7.8868 C.ar      1 RES1    0.0000
     66 C25        2.9762    2.0114    7.5276 C.ar      1 RES1    0.0000
     67 H34        2.8292    1.5208    6.7512 H         1 RES1    0.0000
     68 C26        1.8872    2.3991    8.3161 C.ar      1 RES1    0.0000
     69 H35        1.0216    2.1529    8.0832 H         1 RES1    0.0000
     70 C27        2.1245    3.1551    9.4471 C.ar      1 RES1    0.0000
     71 C28        3.3828    3.4663    9.7988 C.ar      1 RES1    0.0000
     72 H36        3.5195    3.9252   10.5964 H         1 RES1    0.0000
     73 C29        4.4934    3.1322    9.0209 C.ar      1 RES1    0.0000
     74 H37        5.3480    3.4206    9.2492 H         1 RES1    0.0000
@<TRIPOS>BOND
     1    1   17 2
     2    2    5 1
     3    3    5 1
     4    4    9 1
     5    5    6 1
     6    7    5 1
     7    8   61 1
     8    9    2 1
     9   10   64 2
    10   11    3 1
    11   12   11 1
    12   13   59 1
    13   14   11 1
    14   15   14 1
    15   16   14 1
    16   18   14 1
    17   19   18 1
    18   20   18 1
    19   21   18 1
    20   22    1 2
    21   23    3 1
    22   24   23 1
    23   25   21 1
    24   26   25 1
    25   27   25 1
    26   28   27 1
    27   29   28 1
    28   30   28 1
    29   31   23 1
    30   32   31 1
    31   33   31 1
    32   34    9 1
    33   35   34 1
    34   36   34 1
    35   37   34 1
    36   38    9 1
    37   39   38 1
    38   40   38 1
    39   41   38 1
    40   42    3 1
    41   43   42 1
    42   44   42 1
    43   45   42 1
    44   46   21 1
    45   47   46 1
    46   48   46 1
    47   49   46 1
    48   50   27 2
    49   51   50 1
    50   52   50 1
    51   53   25 1
    52   54   53 1
    53   55   53 1
    54   56   53 1
    55   57   56 1
    56   58   56 2
    57   59   58 1
    58   60   59 1
    59   61   59 1
    60   62   61 1
    61   63   61 1
    62   64    8 1
    63   65   13 1
    64   66   65 ar
    65   67   66 1
    66   68   66 ar
    67   69   68 1
    68   70    1 1
    69   71   70 ar
    70   72   71 1
    71   73   65 ar
    72   74   73 1
    73    4   11 1
    74   21   23 1
    75   28   31 1
    76   58   64 1
    77   68   70 ar
    78   71   73 ar
@<TRIPOS>SUBSTRUCTURE
     1 RES1 1

@<TRIPOS>CRYSIN
  10.1150    8.7910   15.6710  90.0000 103.7400  90.0000   4 1

