# MOL2 file generated by ConQuest
# Please check atom types

@<TRIPOS>MOLECULE
MIXMOX
    34    34     1
SMALL
NO_CHARGES
****
Generated from CSD

@<TRIPOS>ATOM
      1 O1         4.8385    3.9074    8.2198 O.3       1 RES1    0.0000
      2 O2         6.4446    5.4944    7.6508 O.3       1 RES1    0.0000
      3 O3         3.2046    5.7392    4.3635 O.2       1 RES1    0.0000
      4 O4         4.8968    6.8171    3.2704 O.3       1 RES1    0.0000
      5 N1         4.0592    4.3975    9.3067 N.2       1 RES1    0.0000
      6 N2         5.3961    5.4817    4.9463 N.am      1 RES1    0.0000
      7 C1         3.6553    5.5626    9.0177 C.2       1 RES1    0.0000
      8 H1         3.1238    6.0833    9.6069 H         1 RES1    0.0000
      9 C2         4.0838    6.0504    7.6744 C.3       1 RES1    0.0000
     10 H2         4.4463    6.9707    7.7158 H         1 RES1    0.0000
     11 H3         3.3431    6.0164    7.0177 H         1 RES1    0.0000
     12 C3         5.1663    5.0320    7.3543 C.3       1 RES1    0.0000
     13 C4         5.1835    4.4362    5.9415 C.3       1 RES1    0.0000
     14 H4         4.2911    4.0194    5.7691 H         1 RES1    0.0000
     15 C5         6.2441    3.3589    5.7921 C.3       1 RES1    0.0000
     16 H5         7.1320    3.7555    5.9149 H         1 RES1    0.0000
     17 H6         6.1842    2.9629    4.8984 H         1 RES1    0.0000
     18 H7         6.1008    2.6632    6.4672 H         1 RES1    0.0000
     19 C6         4.3859    5.9869    4.2075 C.2       1 RES1    0.0000
     20 C7         4.0199    7.4401    2.2679 C.3       1 RES1    0.0000
     21 C8         5.0082    8.2541    1.4467 C.3       1 RES1    0.0000
     22 H8         5.7032    7.6617    1.0913 H         1 RES1    0.0000
     23 H9         5.4210    8.9371    2.0157 H         1 RES1    0.0000
     24 H10        4.5372    8.6877    0.7039 H         1 RES1    0.0000
     25 C9         3.3802    6.3633    1.4074 C.3       1 RES1    0.0000
     26 H11        2.7354    5.8564    1.9429 H         1 RES1    0.0000
     27 H12        4.0745    5.7571    1.0740 H         1 RES1    0.0000
     28 H13        2.9191    6.7807    0.6502 H         1 RES1    0.0000
     29 C10        3.0028    8.3413    2.9187 C.3       1 RES1    0.0000
     30 H14        3.4495    8.9209    3.5712 H         1 RES1    0.0000
     31 H15        2.3279    7.7963    3.3736 H         1 RES1    0.0000
     32 H16        2.5698    8.8926    2.2344 H         1 RES1    0.0000
     33 H17        6.3722    5.9811    8.3564 H         1 RES1    0.0000
     34 H18        6.2197    5.6636    4.7545 H         1 RES1    0.0000
@<TRIPOS>BOND
     1    1    5 1
     2    2   12 1
     3    3   19 2
     4    4   19 1
     5    5    7 2
     6    6   13 1
     7    7    8 1
     8    9    7 1
     9   10    9 1
    10   11    9 1
    11   12    1 1
    12   13   12 1
    13   14   13 1
    14   15   13 1
    15   16   15 1
    16   17   15 1
    17   18   15 1
    18   19    6 1
    19   20    4 1
    20   21   20 1
    21   22   21 1
    22   23   21 1
    23   24   21 1
    24   25   20 1
    25   26   25 1
    26   27   25 1
    27   28   25 1
    28   29   20 1
    29   30   29 1
    30   31   29 1
    31   32   29 1
    32   33    2 1
    33   34    6 1
    34    9   12 1
@<TRIPOS>SUBSTRUCTURE
     1 RES1 1

@<TRIPOS>CRYSIN
   5.5284    5.7733   19.1886  90.0000  91.7950  90.0000   4 1

