# MOL2 file generated by ConQuest
# Please check atom types

@<TRIPOS>MOLECULE
MIXXOH
    38    40     1
SMALL
USER_CHARGES
****
Generated from CSD

@<TRIPOS>ATOM
      1 O1         7.7297    5.0341   10.5808 O.2       1 RES1   -1.0000
      2 O2        13.5858    6.2205   12.1568 O.2       1 RES1    0.0000
      3 O3        12.5983    7.1754   13.8177 O.2       1 RES1    0.0000
      4 N1        12.5603    6.5281   12.7646 N.pl3     1 RES1    0.0000
      5 N2         6.5580    5.8909   12.7408 N.pl3     1 RES1    1.0000
      6 N3         1.0547    7.7016   13.7982 N.3       1 RES1    0.0000
      7 C1         8.8341    5.3609   11.1016 C.ar      1 RES1    0.0000
      8 C2        10.0773    5.1993   10.3963 C.ar      1 RES1    0.0000
      9 H1        10.0657    4.8321    9.5194 H         1 RES1    0.0000
     10 C3        11.2652    5.5550   10.9421 C.ar      1 RES1    0.0000
     11 H2        12.0726    5.4213   10.4580 H         1 RES1    0.0000
     12 C4        11.2972    6.1214   12.2247 C.ar      1 RES1    0.0000
     13 C5        10.1531    6.3083   12.9630 C.ar      1 RES1    0.0000
     14 H3        10.2006    6.6870   13.8333 H         1 RES1    0.0000
     15 C6         8.9230    5.9374   12.4243 C.ar      1 RES1    0.0000
     16 C7         7.7404    6.1776   13.1747 C.2       1 RES1    0.0000
     17 H4         7.8240    6.5673   14.0369 H         1 RES1    0.0000
     18 C8         5.3164    6.2034   13.4291 C.3       1 RES1    0.0000
     19 H5         5.5148    6.4951   14.3541 H         1 RES1    0.0000
     20 H6         4.7501    5.3928   13.4754 H         1 RES1    0.0000
     21 C9         4.5625    7.3114   12.6962 C.3       1 RES1    0.0000
     22 H7         5.1185    8.1305   12.6825 H         1 RES1    0.0000
     23 H8         4.4050    7.0339   11.7588 H         1 RES1    0.0000
     24 C10        3.2494    7.6162   13.3496 C.2       1 RES1    0.0000
     25 C11        2.0052    7.3267   12.8844 C.2       1 RES1    0.0000
     26 H9         1.8200    6.9218   12.0460 H         1 RES1    0.0000
     27 C12        1.6774    8.2474   14.8802 C.ar      1 RES1    0.0000
     28 C13        1.1504    8.8014   16.0477 C.ar      1 RES1    0.0000
     29 H10        0.2160    8.8014   16.2164 H         1 RES1    0.0000
     30 C14        2.0404    9.3478   16.9422 C.ar      1 RES1    0.0000
     31 H11        1.7097    9.7289   17.7465 H         1 RES1    0.0000
     32 C15        3.4089    9.3583   16.7028 C.ar      1 RES1    0.0000
     33 H12        3.9930    9.7564   17.3372 H         1 RES1    0.0000
     34 C16        3.9291    8.7995   15.5591 C.ar      1 RES1    0.0000
     35 H13        4.8667    8.8043   15.4041 H         1 RES1    0.0000
     36 C17        3.0621    8.2249   14.6305 C.ar      1 RES1    0.0000
     37 H14        6.5432    5.4926   11.9539 H         1 RES1    0.0000
     38 H15        0.2019    7.5071   13.7154 H         1 RES1    0.0000
@<TRIPOS>BOND
     1    1    7 1
     2    2    4 2
     3    3    4 2
     4    4   12 1
     5    5   16 2
     6    6   25 1
     7    7    8 ar
     8    8    9 1
     9   10    8 ar
    10   11   10 1
    11   12   10 ar
    12   13   12 ar
    13   14   13 1
    14   15    7 ar
    15   16   15 1
    16   17   16 1
    17   18    5 1
    18   19   18 1
    19   20   18 1
    20   21   18 1
    21   22   21 1
    22   23   21 1
    23   24   21 1
    24   25   24 2
    25   26   25 1
    26   27    6 1
    27   28   27 ar
    28   29   28 1
    29   30   28 ar
    30   31   30 1
    31   32   30 ar
    32   33   32 1
    33   34   32 ar
    34   35   34 1
    35   36   24 1
    36   37    5 1
    37   38    6 1
    38   13   15 ar
    39   27   36 ar
    40   34   36 ar
@<TRIPOS>SUBSTRUCTURE
     1 RES1 1

@<TRIPOS>CRYSIN
  14.5990    9.5027   21.5373  90.0000  95.7120  90.0000  15 1

