# MOL2 file generated by ConQuest
# Please check atom types

@<TRIPOS>MOLECULE
MIZBED
    31    32     1
SMALL
NO_CHARGES
****
Generated from CSD

@<TRIPOS>ATOM
      1 O1         5.2749   -0.8640    6.5111 O.3       1 RES1    0.0000
      2 H1         5.6421   -0.0891    6.1503 H         1 RES1    0.0000
      3 O2         5.6321    1.1890    4.9843 O.2       1 RES1    0.0000
      4 O3         3.9651    1.8051    3.6368 O.3       1 RES1    0.0000
      5 O4         1.8617    1.7434   -1.9200 O.2       1 RES1    0.0000
      6 O5        -0.0423    2.2764   -1.0621 O.2       1 RES1    0.0000
      7 N1         1.0689    1.7675   -0.9887 N.pl3     1 RES1    0.0000
      8 C1         4.1805   -1.1190    5.7559 C.ar      1 RES1    0.0000
      9 C2         3.7838   -0.2940    4.6836 C.ar      1 RES1    0.0000
     10 C3         2.6359   -0.6515    3.9397 C.ar      1 RES1    0.0000
     11 C4         1.8852   -1.7469    4.3337 C.ar      1 RES1    0.0000
     12 H2         1.0884   -1.9644    3.8642 H         1 RES1    0.0000
     13 C5         2.2852   -2.5331    5.4106 C.ar      1 RES1    0.0000
     14 H3         1.7588   -3.2812    5.6677 H         1 RES1    0.0000
     15 C6         3.4320   -2.2383    6.1037 C.ar      1 RES1    0.0000
     16 H4         3.7142   -2.7965    6.8185 H         1 RES1    0.0000
     17 C7         4.5601    0.9458    4.4455 C.2       1 RES1    0.0000
     18 C8         4.6718    3.0324    3.3376 C.3       1 RES1    0.0000
     19 H5         4.8041    3.5433    4.1628 H         1 RES1    0.0000
     20 H6         4.1470    3.5650    2.7041 H         1 RES1    0.0000
     21 H7         5.5434    2.8194    2.9420 H         1 RES1    0.0000
     22 C9         2.2348    0.0270    2.6697 C.ar      1 RES1    0.0000
     23 C10        3.0218   -0.1279    1.5326 C.ar      1 RES1    0.0000
     24 H8         3.8269   -0.6285    1.5849 H         1 RES1    0.0000
     25 C11        2.6480    0.4368    0.3301 C.ar      1 RES1    0.0000
     26 H9         3.1874    0.3346   -0.4449 H         1 RES1    0.0000
     27 C12        1.4669    1.1561    0.2820 C.ar      1 RES1    0.0000
     28 C13        0.6502    1.3098    1.3802 C.ar      1 RES1    0.0000
     29 H10       -0.1641    1.7952    1.3163 H         1 RES1    0.0000
     30 C14        1.0437    0.7383    2.5820 C.ar      1 RES1    0.0000
     31 H11        0.4941    0.8333    3.3515 H         1 RES1    0.0000
@<TRIPOS>BOND
     1    1    2 1
     2    3   17 2
     3    4   17 1
     4    5    7 2
     5    6    7 2
     6    7   27 1
     7    8    1 1
     8    9    8 ar
     9   10    9 ar
    10   11   10 ar
    11   12   11 1
    12   13   11 ar
    13   14   13 1
    14   15    8 ar
    15   16   15 1
    16   17    9 1
    17   18    4 1
    18   19   18 1
    19   20   18 1
    20   21   18 1
    21   22   10 1
    22   23   22 ar
    23   24   23 1
    24   25   23 ar
    25   26   25 1
    26   27   25 ar
    27   28   27 ar
    28   29   28 1
    29   30   22 ar
    30   31   30 1
    31   13   15 ar
    32   28   30 ar
@<TRIPOS>SUBSTRUCTURE
     1 RES1 1

@<TRIPOS>CRYSIN
  12.8240   12.7229    7.7473  90.0000  96.4990  90.0000  14 1

