# MOL2 file generated by ConQuest
# Please check atom types

@<TRIPOS>MOLECULE
MIZJEM01
    22    22     1
SMALL
NO_CHARGES
****
Generated from CSD

@<TRIPOS>ATOM
      1 O1         3.3679    7.5582    6.8708 O.2       1 RES1    0.0000
      2 N1         1.5967    8.2147    5.6000 N.am      1 RES1    0.0000
      3 C1         2.8212    8.3924    6.2043 C.2       1 RES1    0.0000
      4 O2         0.0748    9.2542    4.2467 O.2       1 RES1    0.0000
      5 C2         3.2505    9.7822    5.8420 C.3       1 RES1    0.0000
      6 H1         4.0759    9.7614    5.3328 H         1 RES1    0.0000
      7 H2         3.3908   10.3139    6.6411 H         1 RES1    0.0000
      8 C3         2.1237   10.3620    5.0062 C.3       1 RES1    0.0000
      9 H3         1.7353   11.1328    5.4484 H         1 RES1    0.0000
     10 H4         2.4531   10.6375    4.1368 H         1 RES1    0.0000
     11 O3         0.9032    7.0221    5.7288 O.3       1 RES1    0.0000
     12 O4         2.0713    6.3640    3.9364 O.2       1 RES1    0.0000
     13 C4         1.1037    9.2705    4.8595 C.2       1 RES1    0.0000
     14 C5         1.2904    6.0915    4.7814 C.2       1 RES1    0.0000
     15 C6         0.6179    4.7930    4.9768 C.2       1 RES1    0.0000
     16 C7        -0.2821    4.6228    5.9245 C.2       1 RES1    0.0000
     17 H5        -0.5049    5.3292    6.4866 H         1 RES1    0.0000
     18 H6        -0.6943    3.7960    6.0309 H         1 RES1    0.0000
     19 C8         1.0376    3.7383    4.0093 C.3       1 RES1    0.0000
     20 H7         0.7923    4.0041    3.1205 H         1 RES1    0.0000
     21 H8         0.6016    2.9111    4.2288 H         1 RES1    0.0000
     22 H9         1.9887    3.6210    4.0574 H         1 RES1    0.0000
@<TRIPOS>BOND
     1    1    3 2
     2    2    3 1
     3    3    5 1
     4    4   13 2
     5    5    6 1
     6    7    5 1
     7    8    5 1
     8    9    8 1
     9   10    8 1
    10   11    2 1
    11   12   14 2
    12   13    2 1
    13   14   11 1
    14   15   14 1
    15   16   15 2
    16   17   16 1
    17   18   16 1
    18   19   15 1
    19   20   19 1
    20   21   19 1
    21   22   19 1
    22    8   13 1
@<TRIPOS>SUBSTRUCTURE
     1 RES1 1

@<TRIPOS>CRYSIN
   9.7245   11.0062    8.6096  90.0000 101.3690  90.0000  14 1

