# MOL2 file generated by ConQuest
# Please check atom types

@<TRIPOS>MOLECULE
MIZJEM
    22    22     1
SMALL
NO_CHARGES
****
Generated from CSD

@<TRIPOS>ATOM
      1 C1         7.7153    0.5954    0.7880 C.3       1 RES1    0.0000
      2 H1         8.0727    0.3137   -0.0912 H         1 RES1    0.0000
      3 H2         7.3157   -0.1924    1.2351 H         1 RES1    0.0000
      4 C2         8.8253    1.1932    1.6491 C.3       1 RES1    0.0000
      5 H3         8.9645    0.6493    2.4644 H         1 RES1    0.0000
      6 H4         9.6759    1.2309    1.1439 H         1 RES1    0.0000
      7 C3         8.3641    2.5762    2.0102 C.2       1 RES1    0.0000
      8 C4         6.6895    1.6788    0.6168 C.2       1 RES1    0.0000
      9 C5         6.8770    4.8671    0.5607 C.2       1 RES1    0.0000
     10 C6         6.2122    6.1747    0.7480 C.2       1 RES1    0.0000
     11 C7         6.6506    7.2208   -0.2288 C.3       1 RES1    0.0000
     12 H5         6.1932    8.0643   -0.0307 H         1 RES1    0.0000
     13 H6         6.4267    6.9329   -1.1381 H         1 RES1    0.0000
     14 H7         7.6198    7.3494   -0.1558 H         1 RES1    0.0000
     15 C8         5.3071    6.3579    1.6942 C.2       1 RES1    0.0000
     16 H8         5.0715    5.6408    2.2712 H         1 RES1    0.0000
     17 H9         4.8923    7.2062    1.7971 H         1 RES1    0.0000
     18 N1         7.1497    2.7397    1.3757 N.am      1 RES1    0.0000
     19 O1         8.8913    3.4194    2.6845 O.2       1 RES1    0.0000
     20 O2         5.6736    1.6860   -0.0228 O.2       1 RES1    0.0000
     21 O3         6.4428    3.9269    1.4870 O.3       1 RES1    0.0000
     22 O4         7.6927    4.6012   -0.2631 O.2       1 RES1    0.0000
@<TRIPOS>BOND
     1    1    2 1
     2    3    1 1
     3    4    1 1
     4    5    4 1
     5    6    4 1
     6    7    4 1
     7    8    1 1
     8    9   10 1
     9   10   11 1
    10   11   12 1
    11   13   11 1
    12   14   11 1
    13   15   10 2
    14   16   15 1
    15   17   15 1
    16   18    7 1
    17   19    7 2
    18   20    8 2
    19   21    9 1
    20   22    9 2
    21    8   18 1
    22   18   21 1
@<TRIPOS>SUBSTRUCTURE
     1 RES1 1

@<TRIPOS>CRYSIN
   9.6137   10.9317    8.4911  90.0000 102.5220  90.0000  14 1

