# MOL2 file generated by ConQuest
# Please check atom types

@<TRIPOS>MOLECULE
MNABTZ10
    32    34     1
SMALL
USER_CHARGES
****
Generated from CSD

@<TRIPOS>ATOM
      1 N1         1.9787    2.9006    0.1163 N.2       1 RES1    0.0000
      2 N2         1.3701    3.1219   -1.0177 N.pl3     1 RES1    1.0000
      3 N3         1.1370    4.2081   -1.7279 N.2       1 RES1    0.0000
      4 C1         1.6491    5.3641   -1.2129 C.2       1 RES1    0.0000
      5 C2         2.3691    5.3028    0.0665 C.ar      1 RES1    0.0000
      6 C3         2.9107    6.4177    0.7061 C.ar      1 RES1    0.0000
      7 C4         3.5496    6.2951    1.9024 C.ar      1 RES1    0.0000
      8 C5         3.6377    5.0155    2.5088 C.ar      1 RES1    0.0000
      9 C6         3.1356    3.9115    1.9003 C.ar      1 RES1    0.0000
     10 C7         2.4802    4.0621    0.6750 C.ar      1 RES1    0.0000
     11 N4         1.5448    6.5000   -1.8089 N.2       1 RES1   -1.0000
     12 C8         0.7837    6.6274   -2.9844 C.ar      1 RES1    0.0000
     13 C9         1.3801    7.0132   -4.1869 C.ar      1 RES1    0.0000
     14 C10        0.6341    7.4177   -5.2918 C.ar      1 RES1    0.0000
     15 C11       -0.7320    7.3680   -5.2253 C.ar      1 RES1    0.0000
     16 C12       -1.3479    6.9659   -4.0581 C.ar      1 RES1    0.0000
     17 C13       -0.5970    6.6087   -2.9533 C.ar      1 RES1    0.0000
     18 N5         2.8325    7.0132   -4.2949 N.pl3     1 RES1    0.0000
     19 O1         3.4567    6.1359   -3.7674 O.2       1 RES1    0.0000
     20 O2         3.3381    7.9387   -4.9179 O.2       1 RES1    0.0000
     21 C14        0.8279    1.8867   -1.6615 C.3       1 RES1    0.0000
     22 H1         2.8504    7.3215    0.2700 H         1 RES1    0.0000
     23 H2         3.9396    7.0963    2.3468 H         1 RES1    0.0000
     24 H3         4.0632    4.8991    3.4060 H         1 RES1    0.0000
     25 H4         3.2338    2.9969    2.3053 H         1 RES1    0.0000
     26 H5         1.0903    7.7485   -6.1267 H         1 RES1    0.0000
     27 H6        -1.2782    7.6242   -6.0228 H         1 RES1    0.0000
     28 H7        -2.3509    6.9255   -4.0083 H         1 RES1    0.0000
     29 H8        -1.0705    6.3277   -2.1184 H         1 RES1    0.0000
     30 H9        -0.0405    1.9643   -1.2253 H         1 RES1    0.0000
     31 H10        1.5314    1.2267   -1.5161 H         1 RES1    0.0000
     32 H11        0.8019    1.8090   -2.6376 H         1 RES1    0.0000
@<TRIPOS>BOND
     1    1    2 2
     2    2    3 1
     3    3    4 2
     4    4    5 1
     5    5    6 ar
     6    6    7 ar
     7    7    8 ar
     8    8    9 ar
     9    9   10 ar
    10   10    1 1
    11   11    4 1
    12   12   11 1
    13   13   12 ar
    14   14   13 ar
    15   15   14 ar
    16   16   15 ar
    17   17   12 ar
    18   18   13 1
    19   19   18 2
    20   20   18 2
    21   21    2 1
    22   22    6 1
    23   23    7 1
    24   24    8 1
    25   25    9 1
    26   26   14 1
    27   27   15 1
    28   28   16 1
    29   29   17 1
    30   30   21 1
    31   31   21 1
    32   32   21 1
    33    5   10 ar
    34   16   17 ar
@<TRIPOS>SUBSTRUCTURE
     1 RES1 1

@<TRIPOS>CRYSIN
   8.2330    7.7640   20.7990  90.0000  93.1100  90.0000  14 1

