# MOL2 file generated by ConQuest
# Please check atom types

@<TRIPOS>MOLECULE
MNHCHA
    28    30     1
SMALL
NO_CHARGES
****
Generated from CSD

@<TRIPOS>ATOM
      1 C1        -7.2110    1.4412    2.5677 C.3       1 RES1    0.0000
      2 C2        -5.9270    1.7533    1.8153 C.3       1 RES1    0.0000
      3 C3        -4.6205    1.0563    2.0647 C.3       1 RES1    0.0000
      4 C4        -4.6117   -0.0519    3.0503 C.3       1 RES1    0.0000
      5 C5        -5.9141   -0.5731    3.6070 C.3       1 RES1    0.0000
      6 C6        -7.2130   -0.0111    3.0836 C.3       1 RES1    0.0000
      7 C7        -5.3427    0.8182    0.7803 C.3       1 RES1    0.0000
      8 C8        -4.9504    0.1467    4.5066 C.3       1 RES1    0.0000
      9 C9        -7.3504    2.3846    3.7704 C.2       1 RES1    0.0000
     10 H1        -3.8252    1.6544    2.0421 H         1 RES1    0.0000
     11 H2        -8.5972    3.1703    4.9225 H         1 RES1    0.0000
     12 H3        -5.9074   -1.5782    3.7940 H         1 RES1    0.0000
     13 H4        -7.9079   -0.0969    3.8692 H         1 RES1    0.0000
     14 H5        -7.5142   -0.5261    2.2786 H         1 RES1    0.0000
     15 H6        -5.8210   -0.1038    0.6556 H         1 RES1    0.0000
     16 H7        -4.9834    1.2736   -0.0645 H         1 RES1    0.0000
     17 H8        -4.4144   -0.4222    5.1912 H         1 RES1    0.0000
     18 H9        -5.1728    1.0729    4.8258 H         1 RES1    0.0000
     19 H10       -8.3966    2.4158    1.3327 H         1 RES1    0.0000
     20 N1        -5.8091    3.1786    1.4252 N.pl3     1 RES1    0.0000
     21 N2        -3.5849   -1.0736    2.7719 N.pl3     1 RES1    0.0000
     22 O1        -6.8038    3.8895    1.5617 O.2       1 RES1    0.0000
     23 O2        -4.7693    3.5918    0.9587 O.2       1 RES1    0.0000
     24 O3        -2.8174   -0.8708    1.8433 O.2       1 RES1    0.0000
     25 O4        -3.5286   -2.0600    3.4877 O.2       1 RES1    0.0000
     26 O5        -8.3418    1.5277    1.7240 O.3       1 RES1    0.0000
     27 O6        -6.3957    2.8948    4.3217 O.2       1 RES1    0.0000
     28 O7        -8.5810    2.5514    4.1788 O.3       1 RES1    0.0000
@<TRIPOS>BOND
     1    1    2 1
     2    2    3 1
     3    3    4 1
     4    4    5 1
     5    5    6 1
     6    6    1 1
     7    7    2 1
     8    8    4 1
     9    9    1 1
    10   10    3 1
    11   11   28 1
    12   12    5 1
    13   13    6 1
    14   14    6 1
    15   15    7 1
    16   16    7 1
    17   17    8 1
    18   18    8 1
    19   19   26 1
    20   20    2 1
    21   21    4 1
    22   22   20 2
    23   23   20 2
    24   24   21 2
    25   25   21 2
    26   26    1 1
    27   27    9 2
    28   28    9 1
    29    3    7 1
    30    5    8 1
@<TRIPOS>SUBSTRUCTURE
     1 RES1 1

@<TRIPOS>CRYSIN
  13.9380    6.9220   10.8000  90.0000  95.6300  90.0000  14 2

