# MOL2 file generated by ConQuest
# Please check atom types

@<TRIPOS>MOLECULE
MNIANL03
    16    16     1
SMALL
NO_CHARGES
****
Generated from CSD

@<TRIPOS>ATOM
      1 N1         2.6758    3.7642    1.1940 N.pl3     1 RES1    0.0000
      2 O1         1.9099    2.8106    1.0401 O.2       1 RES1    0.0000
      3 C1         2.3452    4.7520    2.2261 C.ar      1 RES1    0.0000
      4 O2         3.6895    3.9206    0.5238 O.2       1 RES1    0.0000
      5 N2         3.6965    7.9065    3.5116 N.pl3     1 RES1    0.0000
      6 H1         4.4238    7.9956    3.0248 H         1 RES1    0.0000
      7 H2         3.4991    8.5095    4.1214 H         1 RES1    0.0000
      8 C2         3.1750    5.8573    2.3486 C.ar      1 RES1    0.0000
      9 H3         3.9369    5.9604    1.7898 H         1 RES1    0.0000
     10 C3         1.7263    6.6236    4.1154 C.ar      1 RES1    0.0000
     11 H4         1.5023    7.2692    4.7756 H         1 RES1    0.0000
     12 C4         2.8602    6.8147    3.3172 C.ar      1 RES1    0.0000
     13 C5         1.2143    4.5414    2.9973 C.ar      1 RES1    0.0000
     14 H5         0.6643    3.7764    2.8763 H         1 RES1    0.0000
     15 C6         0.9235    5.5006    3.9534 C.ar      1 RES1    0.0000
     16 H6         0.1604    5.3885    4.5087 H         1 RES1    0.0000
@<TRIPOS>BOND
     1    1    2 2
     2    3    1 1
     3    4    1 2
     4    5    6 1
     5    7    5 1
     6    8    3 ar
     7    9    8 1
     8   10   11 1
     9   12    5 1
    10   13    3 ar
    11   14   13 1
    12   15   10 ar
    13   16   15 1
    14    8   12 ar
    15   10   12 ar
    16   13   15 ar
@<TRIPOS>SUBSTRUCTURE
     1 RES1 1

@<TRIPOS>CRYSIN
  18.8730    6.5212    4.9980  90.0000  90.0000  90.0000  29 1

