# MOL2 file generated by ConQuest
# Please check atom types

@<TRIPOS>MOLECULE
MNIAAN11
    24    24     1
SMALL
NO_CHARGES
****
Generated from CSD

@<TRIPOS>ATOM
      1 N1         6.9794   -0.1029    7.2678 N.pl3     1 RES1    0.0000
      2 O1         6.9666   -0.2018    8.4897 O.2       1 RES1    0.0000
      3 O2         6.1636   -0.6314    6.5342 O.2       1 RES1    0.0000
      4 N2         6.5801    1.8833    5.1067 N.am      1 RES1    0.0000
      5 H1         6.4426    1.8533    4.2585 H         1 RES1    0.0000
      6 C1         5.5645    2.2949    5.8892 C.2       1 RES1    0.0000
      7 O3         5.6375    2.2350    7.1122 O.2       1 RES1    0.0000
      8 C2         4.3707    2.8165    5.1707 C.3       1 RES1    0.0000
      9 H2         4.5231    2.7715    4.2236 H         1 RES1    0.0000
     10 H3         4.2162    3.7276    5.4266 H         1 RES1    0.0000
     11 H4         3.6038    2.2849    5.3963 H         1 RES1    0.0000
     12 C3        11.8384    0.6944    7.0771 C.3       1 RES1    0.0000
     13 H5        12.4815    1.1530    6.5313 H         1 RES1    0.0000
     14 H6        12.0185   -0.2488    7.0601 H         1 RES1    0.0000
     15 H7        11.8998    1.0151    7.9807 H         1 RES1    0.0000
     16 C4         8.0719    0.6454    6.6484 C.ar      1 RES1    0.0000
     17 C5         7.8501    1.4987    5.5758 C.ar      1 RES1    0.0000
     18 C6         8.9877    2.0302    4.9677 C.ar      1 RES1    0.0000
     19 H8         8.8887    2.5907    4.2321 H         1 RES1    0.0000
     20 C7        10.2445    1.7484    5.4284 C.ar      1 RES1    0.0000
     21 H9        10.9786    2.1011    4.9809 H         1 RES1    0.0000
     22 C8        10.4546    0.9511    6.5464 C.ar      1 RES1    0.0000
     23 C9         9.3406    0.4056    7.1441 C.ar      1 RES1    0.0000
     24 H10        9.4431   -0.1329    7.8958 H         1 RES1    0.0000
@<TRIPOS>BOND
     1    1    2 2
     2    3    1 2
     3    4    5 1
     4    6    4 1
     5    7    6 2
     6    8    6 1
     7    9    8 1
     8   10    8 1
     9   11    8 1
    10   12   13 1
    11   14   12 1
    12   15   12 1
    13   16    1 1
    14   17    4 1
    15   18   17 ar
    16   19   18 1
    17   20   18 ar
    18   21   20 1
    19   22   12 1
    20   23   16 ar
    21   24   23 1
    22   16   17 ar
    23   20   22 ar
    24   22   23 ar
@<TRIPOS>SUBSTRUCTURE
     1 RES1 1

@<TRIPOS>CRYSIN
  10.4300    9.9910    9.5740  90.0000  99.5100  90.0000  14 1

