# MOL2 file generated by ConQuest
# Please check atom types

@<TRIPOS>MOLECULE
MNIMET03
    21    21     1
SMALL
NO_CHARGES
****
Generated from CSD

@<TRIPOS>ATOM
      1 O1         2.1966   -2.4175   -0.4822 O.2       1 RES1    0.0000
      2 O2         2.5618   -1.9869    1.5883 O.2       1 RES1    0.0000
      3 O3         0.1676    1.0480    3.4604 O.3       1 RES1    0.0000
      4 H1         0.2227    1.6054    4.0828 H         1 RES1    0.0000
      5 N1         2.2347   -1.6472    0.4687 N.pl3     1 RES1    0.0000
      6 N2         1.1636    1.5289   -0.7988 N.2       1 RES1    0.0000
      7 N3         1.9288    0.7303    1.1244 N.pl3     1 RES1    0.0000
      8 C1         1.8747   -0.3026    0.2100 C.2       1 RES1    0.0000
      9 C2         1.4082    0.2094   -0.9536 C.2       1 RES1    0.0000
     10 H2         1.2766   -0.2731   -1.7374 H         1 RES1    0.0000
     11 C3         1.4859    1.8224    0.4610 C.2       1 RES1    0.0000
     12 C4         1.3945    3.1767    1.0418 C.3       1 RES1    0.0000
     13 H3         1.0509    3.7849    0.3832 H         1 RES1    0.0000
     14 H4         2.2666    3.4655    1.3196 H         1 RES1    0.0000
     15 H5         0.8055    3.1610    1.8000 H         1 RES1    0.0000
     16 C5         2.3758    0.7076    2.5253 C.3       1 RES1    0.0000
     17 H6         2.6456    1.6019    2.7862 H         1 RES1    0.0000
     18 H7         3.1515    0.1300    2.6010 H         1 RES1    0.0000
     19 C6         1.3091    0.2225    3.4676 C.3       1 RES1    0.0000
     20 H8         1.0504   -0.6788    3.2180 H         1 RES1    0.0000
     21 H9         1.6707    0.1893    4.3664 H         1 RES1    0.0000
@<TRIPOS>BOND
     1    1    5 2
     2    2    5 2
     3    3    4 1
     4    5    8 1
     5    6    9 1
     6    7    8 1
     7    8    9 2
     8    9   10 1
     9   11    6 2
    10   12   11 1
    11   13   12 1
    12   14   12 1
    13   15   12 1
    14   16    7 1
    15   17   16 1
    16   18   16 1
    17   19    3 1
    18   20   19 1
    19   21   19 1
    20    7   11 1
    21   16   19 1
@<TRIPOS>SUBSTRUCTURE
     1 RES1 1

@<TRIPOS>CRYSIN
   7.0366    8.7249   12.8155  90.0000  94.5670  90.0000  14 1

