# MOL2 file generated by ConQuest
# Please check atom types

@<TRIPOS>MOLECULE
MNIMET
    21    21     1
SMALL
NO_CHARGES
****
Generated from CSD

@<TRIPOS>ATOM
      1 N1         1.9294    3.6305    1.1245 N.3       1 RES1    0.0000
      2 C1         1.4901    2.5390    0.4600 C.2       1 RES1    0.0000
      3 N2         1.1617    2.8313   -0.7986 N.2       1 RES1    0.0000
      4 C2         1.4077    4.1575   -0.9571 C.2       1 RES1    0.0000
      5 C3         1.8770    4.6661    0.2096 C.2       1 RES1    0.0000
      6 N3         2.2330    6.0098    0.4677 N.pl3     1 RES1    0.0000
      7 O1         2.1948    6.7811   -0.4843 O.2       1 RES1    0.0000
      8 O2         2.5662    6.3492    1.5935 O.2       1 RES1    0.0000
      9 C4         1.3973    1.1849    1.0478 C.3       1 RES1    0.0000
     10 C5         2.3842    3.6558    2.5275 C.3       1 RES1    0.0000
     11 C6         1.3115    4.1496    3.4731 C.3       1 RES1    0.0000
     12 O3         0.1707    3.3120    3.4629 O.3       1 RES1    0.0000
     13 H1         1.2354    4.6417   -1.7506 H         1 RES1    0.0000
     14 H2         0.7844    1.1517    1.8273 H         1 RES1    0.0000
     15 H3         2.2646    0.8551    1.2523 H         1 RES1    0.0000
     16 H4         1.0359    0.5933    0.4217 H         1 RES1    0.0000
     17 H5         3.2089    4.2054    2.5684 H         1 RES1    0.0000
     18 H6         2.6411    2.7222    2.7218 H         1 RES1    0.0000
     19 H7         1.0111    5.0605    3.2329 H         1 RES1    0.0000
     20 H8         1.7454    4.1880    4.3574 H         1 RES1    0.0000
     21 H9         0.2120    2.7484    4.0891 H         1 RES1    0.0000
@<TRIPOS>BOND
     1    1    2 1
     2    2    3 2
     3    3    4 1
     4    4    5 2
     5    5    1 1
     6    6    5 1
     7    7    6 2
     8    8    6 2
     9    9    2 1
    10   10    1 1
    11   11   10 1
    12   12   11 1
    13   13    4 1
    14   14    9 1
    15   15    9 1
    16   16    9 1
    17   17   10 1
    18   18   10 1
    19   19   11 1
    20   20   11 1
    21   21   12 1
@<TRIPOS>SUBSTRUCTURE
     1 RES1 1

@<TRIPOS>CRYSIN
   7.0340    8.7250   12.8180  90.0000  94.5100  90.0000  14 1

