# MOL2 file generated by ConQuest
# Please check atom types

@<TRIPOS>MOLECULE
MNIMET02
    21    21     1
SMALL
NO_CHARGES
****
Generated from CSD

@<TRIPOS>ATOM
      1 N1         5.0269    0.7409   -1.0796 N.3       1 RES1    0.0000
      2 C1         5.4748    1.8384   -0.4430 C.2       1 RES1    0.0000
      3 C2         5.5496    3.1932   -1.0131 C.3       1 RES1    0.0000
      4 H1         4.6379    3.5349   -1.2390 H         1 RES1    0.0000
      5 H2         6.0668    3.2136   -1.7541 H         1 RES1    0.0000
      6 H3         5.8479    3.8128   -0.3644 H         1 RES1    0.0000
      7 N2         5.8133    1.5449    0.7738 N.2       1 RES1    0.0000
      8 C3         5.5742    0.2226    0.9329 C.2       1 RES1    0.0000
      9 H4         5.7497   -0.2432    1.7059 H         1 RES1    0.0000
     10 C4         5.0922   -0.2940   -0.1906 C.2       1 RES1    0.0000
     11 C5         4.5611    0.7180   -2.4326 C.3       1 RES1    0.0000
     12 H5         3.7742    0.1390   -2.4582 H         1 RES1    0.0000
     13 H6         4.2953    1.6415   -2.6410 H         1 RES1    0.0000
     14 C6         5.6276    0.2186   -3.3510 C.3       1 RES1    0.0000
     15 H7         5.9023   -0.7035   -3.1240 H         1 RES1    0.0000
     16 H8         5.2023    0.1998   -4.2160 H         1 RES1    0.0000
     17 O1         6.7791    1.0436   -3.3393 O.3       1 RES1    0.0000
     18 H9         6.6853    1.6328   -3.9961 H         1 RES1    0.0000
     19 N3         4.7380   -1.6395   -0.4378 N.pl3     1 RES1    0.0000
     20 O2         4.7924   -2.4146    0.4853 O.2       1 RES1    0.0000
     21 O3         4.3940   -1.9832   -1.5241 O.2       1 RES1    0.0000
@<TRIPOS>BOND
     1    1    2 1
     2    2    3 1
     3    3    4 1
     4    5    3 1
     5    6    3 1
     6    7    2 2
     7    8    7 1
     8    9    8 1
     9   10    1 1
    10   11    1 1
    11   12   11 1
    12   13   11 1
    13   14   11 1
    14   15   14 1
    15   16   14 1
    16   17   14 1
    17   18   17 1
    18   19   10 1
    19   20   19 2
    20   21   19 2
    21    8   10 2
@<TRIPOS>SUBSTRUCTURE
     1 RES1 1

@<TRIPOS>CRYSIN
   6.9446    8.6853   12.3900  90.0000  94.4380  90.0000  14 1

