# MOL2 file generated by ConQuest
# Please check atom types

@<TRIPOS>MOLECULE
MNIPZN
    36    38     1
SMALL
NO_CHARGES
****
Generated from CSD

@<TRIPOS>ATOM
      1 C1         7.8472   10.0347    2.4447 C.ar      1 RES1    0.0000
      2 N1         6.5182   10.5632    2.1649 N.pl3     1 RES1    0.0000
      3 O1         5.5935    9.7980    1.9021 O.2       1 RES1    0.0000
      4 O2         6.3463   11.7656    2.1908 O.2       1 RES1    0.0000
      5 C2         8.7876   10.9477    2.8872 C.ar      1 RES1    0.0000
      6 H1         8.5496   11.8093    2.9859 H         1 RES1    0.0000
      7 C3        10.0723   10.5632    3.1834 C.ar      1 RES1    0.0000
      8 C4        11.1063   11.5470    3.6770 C.3       1 RES1    0.0000
      9 H2        11.8938   11.1380    3.8254 H         1 RES1    0.0000
     10 H3        10.8095   11.9135    4.4435 H         1 RES1    0.0000
     11 H4        11.2133   12.1913    3.0581 H         1 RES1    0.0000
     12 C5        10.3936    9.2090    3.0152 C.ar      1 RES1    0.0000
     13 H5        11.2310    8.9326    3.1977 H         1 RES1    0.0000
     14 C6         9.4595    8.3024    2.5816 C.ar      1 RES1    0.0000
     15 H6         9.6978    7.4395    2.4890 H         1 RES1    0.0000
     16 C7         8.1431    8.6844    2.2732 C.ar      1 RES1    0.0000
     17 N2         7.2314    7.7559    1.8109 N.pl3     1 RES1    0.0000
     18 H7         6.3886    8.0002    1.6080 H         1 RES1    0.0000
     19 N3         7.6151    6.5046    1.6639 N.2       1 RES1    0.0000
     20 C8         6.7699    5.6250    1.1880 C.2       1 RES1    0.0000
     21 C9         7.2652    4.2451    1.0913 C.ar      1 RES1    0.0000
     22 C10        8.5868    3.9172    1.4290 C.ar      1 RES1    0.0000
     23 H8         9.1619    4.5589    1.6863 H         1 RES1    0.0000
     24 C11        8.9966    2.6029    1.3589 C.ar      1 RES1    0.0000
     25 H9         9.8445    2.4010    1.5842 H         1 RES1    0.0000
     26 C12        8.1334    1.6101    0.9524 C.ar      1 RES1    0.0000
     27 H10        8.4174    0.7562    0.9211 H         1 RES1    0.0000
     28 C13        6.8501    1.9200    0.5957 C.ar      1 RES1    0.0000
     29 H11        6.2829    1.2757    0.3241 H         1 RES1    0.0000
     30 C14        6.4047    3.2317    0.6495 C.ar      1 RES1    0.0000
     31 C15        5.0535    3.5828    0.2512 C.2       1 RES1    0.0000
     32 H12        4.5058    2.9308   -0.0429 H         1 RES1    0.0000
     33 C16        4.5776    4.8341    0.2948 C.2       1 RES1    0.0000
     34 H13        3.7400    5.0000    0.0136 H         1 RES1    0.0000
     35 C17        5.3751    5.9387    0.7645 C.2       1 RES1    0.0000
     36 O3         4.9386    7.0859    0.8224 O.2       1 RES1    0.0000
@<TRIPOS>BOND
     1    1    2 1
     2    2    3 2
     3    4    2 2
     4    5    1 ar
     5    6    5 1
     6    7    5 ar
     7    8    7 1
     8    9    8 1
     9   10    8 1
    10   11    8 1
    11   12    7 ar
    12   13   12 1
    13   14   12 ar
    14   15   14 1
    15   16    1 ar
    16   17   16 1
    17   18   17 1
    18   19   17 1
    19   20   19 2
    20   21   20 1
    21   22   21 ar
    22   23   22 1
    23   24   22 ar
    24   25   24 1
    25   26   24 ar
    26   27   26 1
    27   28   26 ar
    28   29   28 1
    29   30   21 ar
    30   31   30 1
    31   32   31 1
    32   33   31 2
    33   34   33 1
    34   35   20 1
    35   36   35 2
    36   14   16 ar
    37   28   30 ar
    38   33   35 1
@<TRIPOS>SUBSTRUCTURE
     1 RES1 1

@<TRIPOS>CRYSIN
  16.3160   12.8600    6.9600  90.0000 102.0000  90.0000  14 2

