# MOL2 file generated by ConQuest
# Please check atom types

@<TRIPOS>MOLECULE
MNOMAN10
    16    16     1
SMALL
NO_CHARGES
****
Generated from CSD

@<TRIPOS>ATOM
      1 C1         3.9873    4.8703    1.2629 C.ar      1 RES1    0.0000
      2 C2         5.3243    5.2824    1.3303 C.ar      1 RES1    0.0000
      3 C3         6.3669    4.4044    1.4207 C.ar      1 RES1    0.0000
      4 C4         6.1676    3.0474    1.4329 C.ar      1 RES1    0.0000
      5 C5         4.8499    2.5917    1.3507 C.ar      1 RES1    0.0000
      6 C6         3.8130    3.5060    1.2758 C.ar      1 RES1    0.0000
      7 C7         7.1018    0.7484    1.4214 C.3       1 RES1    0.0000
      8 C8         2.8961    5.9230    1.1582 C.3       1 RES1    0.0000
      9 H1         5.4595    6.2390    1.3391 H         1 RES1    0.0000
     10 H2         7.2730    4.7364    1.5703 H         1 RES1    0.0000
     11 H3         4.6676    1.7239    1.3547 H         1 RES1    0.0000
     12 H4         8.0968    2.5757    1.6485 H         1 RES1    0.0000
     13 N1         7.2293    2.1796    1.5547 N.pl3     1 RES1    0.0000
     14 N2         2.4649    2.9135    1.2146 N.pl3     1 RES1    0.0000
     15 O1         2.3436    1.7181    1.0269 O.2       1 RES1    0.0000
     16 O2         1.5061    3.6342    1.4139 O.2       1 RES1    0.0000
@<TRIPOS>BOND
     1    1    2 ar
     2    2    3 ar
     3    3    4 ar
     4    4    5 ar
     5    5    6 ar
     6    6    1 ar
     7    7   13 1
     8    8    1 1
     9    9    2 1
    10   10    3 1
    11   11    5 1
    12   12   13 1
    13   13    4 1
    14   14    6 1
    15   15   14 2
    16   16   14 2
@<TRIPOS>SUBSTRUCTURE
     1 RES1 1

@<TRIPOS>CRYSIN
   8.4310   14.5600    7.4330  90.0000 113.8000  90.0000  14 1

