# MOL2 file generated by ConQuest
# Please check atom types

@<TRIPOS>MOLECULE
MNPHOL21
    15    15     1
SMALL
NO_CHARGES
****
Generated from CSD

@<TRIPOS>ATOM
      1 O1         4.6289    0.4031    4.3833 O.2       1 RES1    0.0000
      2 O2         5.4143    1.5831    2.7556 O.2       1 RES1    0.0000
      3 O3        10.2928    1.4369    3.1984 O.3       1 RES1    0.0000
      4 H1        11.0280    1.2023    3.5295 H         1 RES1    0.0000
      5 N1         5.5718    0.8856    3.7487 N.pl3     1 RES1    0.0000
      6 C1         6.9321    0.6194    4.2153 C.ar      1 RES1    0.0000
      7 C2         7.9806    1.1521    3.4840 C.ar      1 RES1    0.0000
      8 H2         7.8191    1.6733    2.7067 H         1 RES1    0.0000
      9 C3         9.2798    0.9015    3.9214 C.ar      1 RES1    0.0000
     10 C4         9.4924    0.1231    5.0572 C.ar      1 RES1    0.0000
     11 H3        10.3784   -0.0526    5.3510 H         1 RES1    0.0000
     12 C5         8.4137   -0.3959    5.7624 C.ar      1 RES1    0.0000
     13 H4         8.5707   -0.9268    6.5338 H         1 RES1    0.0000
     14 C6         7.1049   -0.1484    5.3533 C.ar      1 RES1    0.0000
     15 H5         6.3620   -0.4924    5.8360 H         1 RES1    0.0000
@<TRIPOS>BOND
     1    1    5 2
     2    2    5 2
     3    3    4 1
     4    5    6 1
     5    6    7 ar
     6    7    8 1
     7    9    3 1
     8   10    9 ar
     9   11   10 1
    10   12   10 ar
    11   13   12 1
    12   14    6 ar
    13   15   14 1
    14    7    9 ar
    15   12   14 ar
@<TRIPOS>SUBSTRUCTURE
     1 RES1 1

@<TRIPOS>CRYSIN
   8.0993    6.6534   11.1480  90.0000  90.0000  90.0000  19 1

