# MOL2 file generated by ConQuest
# Please check atom types

@<TRIPOS>MOLECULE
MNPHOL26
    15    15     1
SMALL
NO_CHARGES
****
Generated from CSD

@<TRIPOS>ATOM
      1 C1         9.2108    1.0299    3.3413 C.ar      1 RES1    0.0000
      2 C2         8.6360    0.5032    2.1984 C.ar      1 RES1    0.0000
      3 C3         9.2672    0.7538    0.9837 C.ar      1 RES1    0.0000
      4 C4        10.4264    1.5250    0.9490 C.ar      1 RES1    0.0000
      5 C5        10.9618    2.0383    2.1216 C.ar      1 RES1    0.0000
      6 C6        10.3646    1.7884    3.3453 C.ar      1 RES1    0.0000
      7 N1         8.5481    0.7666    4.6167 N.pl3     1 RES1    0.0000
      8 O1         9.0593    1.2199    5.6433 O.2       1 RES1    0.0000
      9 O2         7.5322    0.0950    4.6196 O.2       1 RES1    0.0000
     10 O3         8.7027    0.2211   -0.1288 O.3       1 RES1    0.0000
     11 H1         9.1550    0.4055   -0.7643 H         1 RES1    0.0000
     12 H2         7.7995   -0.0074    2.1875 H         1 RES1    0.0000
     13 H3        10.8317    1.6557    0.0990 H         1 RES1    0.0000
     14 H4        11.7711    2.5664    2.0733 H         1 RES1    0.0000
     15 H5        10.7887    2.0935    4.1932 H         1 RES1    0.0000
@<TRIPOS>BOND
     1    1    2 ar
     2    2    3 ar
     3    3    4 ar
     4    4    5 ar
     5    5    6 ar
     6    6    1 ar
     7    7    1 1
     8    8    7 2
     9    9    7 2
    10   10    3 1
    11   11   10 1
    12   12    2 1
    13   13    4 1
    14   14    5 1
    15   15    6 1
@<TRIPOS>SUBSTRUCTURE
     1 RES1 1

@<TRIPOS>CRYSIN
  11.0260    6.7360    8.1190  90.0000  97.7300  90.0000 231 1

