# MOL2 file generated by ConQuest
# Please check atom types

@<TRIPOS>MOLECULE
MNPHOL14
    15    15     1
SMALL
NO_CHARGES
****
Generated from CSD

@<TRIPOS>ATOM
      1 O1         4.3267    1.2419    9.8004 O.2       1 RES1    0.0000
      2 O2         3.5279    0.1259    8.1444 O.2       1 RES1    0.0000
      3 O3        -1.3409    0.2429    8.6562 O.3       1 RES1    0.0000
      4 H1        -2.0282    0.4968    9.0298 H         1 RES1    0.0000
      5 N1         3.3797    0.7887    9.1526 N.pl3     1 RES1    0.0000
      6 C1         2.0229    1.0541    9.6361 C.ar      1 RES1    0.0000
      7 C2         0.9711    0.5267    8.9113 C.ar      1 RES1    0.0000
      8 H2         1.1229    0.0143    8.1257 H         1 RES1    0.0000
      9 C3        -0.3208    0.7751    9.3734 C.ar      1 RES1    0.0000
     10 C4        -0.5198    1.5393   10.5193 C.ar      1 RES1    0.0000
     11 H3        -1.4006    1.7081   10.8313 H         1 RES1    0.0000
     12 C5         0.5689    2.0531   11.2044 C.ar      1 RES1    0.0000
     13 H4         0.4243    2.5866   11.9774 H         1 RES1    0.0000
     14 C6         1.8684    1.8033   10.7830 C.ar      1 RES1    0.0000
     15 H5         2.6177    2.1340   11.2636 H         1 RES1    0.0000
@<TRIPOS>BOND
     1    1    5 2
     2    2    5 2
     3    3    4 1
     4    5    6 1
     5    6    7 ar
     6    7    8 1
     7    9    3 1
     8   10    9 ar
     9   11   10 1
    10   12   10 ar
    11   13   12 1
    12   14    6 ar
    13   15   14 1
    14    7    9 ar
    15   12   14 ar
@<TRIPOS>SUBSTRUCTURE
     1 RES1 1

@<TRIPOS>CRYSIN
   8.1372    6.8050   11.1070  90.0000  98.0150  90.0000 231 1

