# MOL2 file generated by ConQuest
# Please check atom types

@<TRIPOS>MOLECULE
MNPHOL25
    15    15     1
SMALL
NO_CHARGES
****
Generated from CSD

@<TRIPOS>ATOM
      1 O1         0.5928    0.3966    6.8526 O.2       1 RES1    0.0000
      2 O2         1.3620    1.5539    8.4880 O.2       1 RES1    0.0000
      3 O3         6.2291    1.4215    8.0680 O.3       1 RES1    0.0000
      4 H1         6.9509    1.2053    7.7443 H         1 RES1    0.0000
      5 N1         1.5283    0.8715    7.4936 N.pl3     1 RES1    0.0000
      6 C1         2.8914    0.6060    7.0257 C.ar      1 RES1    0.0000
      7 C2         3.9295    1.1323    7.7668 C.ar      1 RES1    0.0000
      8 H2         3.7649    1.6350    8.5315 H         1 RES1    0.0000
      9 C3         5.2301    0.8871    7.3362 C.ar      1 RES1    0.0000
     10 C4         5.4414    0.1284    6.1980 C.ar      1 RES1    0.0000
     11 H3         6.3105   -0.0399    5.9124 H         1 RES1    0.0000
     12 C5         4.3753   -0.3810    5.4829 C.ar      1 RES1    0.0000
     13 H4         4.5326   -0.8864    4.7186 H         1 RES1    0.0000
     14 C6         3.0693   -0.1453    5.8955 C.ar      1 RES1    0.0000
     15 H5         2.3445   -0.4844    5.4222 H         1 RES1    0.0000
@<TRIPOS>BOND
     1    1    5 2
     2    2    5 2
     3    3    4 1
     4    5    6 1
     5    6    7 ar
     6    7    8 1
     7    9    3 1
     8   10    9 ar
     9   11   10 1
    10   12   10 ar
    11   13   12 1
    12   14    6 ar
    13   15   14 1
    14    7    9 ar
    15   12   14 ar
@<TRIPOS>SUBSTRUCTURE
     1 RES1 1

@<TRIPOS>CRYSIN
   8.1070    6.7560   11.2940  90.0000  90.0000  90.0000  19 1

