# MOL2 file generated by ConQuest
# Please check atom types

@<TRIPOS>MOLECULE
MNPHOL16
    15    15     1
SMALL
NO_CHARGES
****
Generated from CSD

@<TRIPOS>ATOM
      1 O1         9.1510    1.2701    4.3383 O.2       1 RES1    0.0000
      2 O2         8.3681    0.1670    2.6788 O.2       1 RES1    0.0000
      3 O3         3.5071    0.2722    3.1709 O.3       1 RES1    0.0000
      4 H1         2.8282    0.4880    3.5163 H         1 RES1    0.0000
      5 N1         8.2133    0.8227    3.6878 N.pl3     1 RES1    0.0000
      6 C1         6.8544    1.0804    4.1692 C.ar      1 RES1    0.0000
      7 C2         5.8119    0.5601    3.4430 C.ar      1 RES1    0.0000
      8 H2         5.9638    0.0625    2.6722 H         1 RES1    0.0000
      9 C3         4.5191    0.8021    3.8999 C.ar      1 RES1    0.0000
     10 C4         4.3172    1.5512    5.0456 C.ar      1 RES1    0.0000
     11 H3         3.4529    1.7120    5.3499 H         1 RES1    0.0000
     12 C5         5.3948    2.0577    5.7359 C.ar      1 RES1    0.0000
     13 H4         5.2499    2.5725    6.4980 H         1 RES1    0.0000
     14 C6         6.6932    1.8138    5.3144 C.ar      1 RES1    0.0000
     15 H5         7.4254    2.1347    5.7903 H         1 RES1    0.0000
@<TRIPOS>BOND
     1    1    5 2
     2    2    5 2
     3    3    4 1
     4    5    6 1
     5    6    7 ar
     6    7    8 1
     7    9    3 1
     8   10    9 ar
     9   11   10 1
    10   12   10 ar
    11   13   12 1
    12   14    6 ar
    13   15   14 1
    14    7    9 ar
    15   12   14 ar
@<TRIPOS>SUBSTRUCTURE
     1 RES1 1

@<TRIPOS>CRYSIN
   8.1370    6.8729   11.2040  90.0000  98.0900  90.0000 231 1

