# MOL2 file generated by ConQuest
# Please check atom types

@<TRIPOS>MOLECULE
MNPHOL17
    15    15     1
SMALL
NO_CHARGES
****
Generated from CSD

@<TRIPOS>ATOM
      1 O1         1.4991    1.2238    6.6481 O.2       1 RES1    0.0000
      2 O2         2.3051    0.0874    8.3021 O.2       1 RES1    0.0000
      3 O3         7.1819    0.2176    7.7820 O.3       1 RES1    0.0000
      4 H1         7.8995    0.4792    7.4161 H         1 RES1    0.0000
      5 N1         2.4502    0.7631    7.2919 N.pl3     1 RES1    0.0000
      6 C1         3.8064    1.0335    6.8113 C.ar      1 RES1    0.0000
      7 C2         4.8647    0.5016    7.5323 C.ar      1 RES1    0.0000
      8 H2         4.7154   -0.0155    8.3150 H         1 RES1    0.0000
      9 C3         6.1567    0.7520    7.0695 C.ar      1 RES1    0.0000
     10 C4         6.3541    1.5275    5.9248 C.ar      1 RES1    0.0000
     11 H3         7.2354    1.7009    5.6151 H         1 RES1    0.0000
     12 C5         5.2607    2.0465    5.2382 C.ar      1 RES1    0.0000
     13 H4         5.4036    2.5818    4.4671 H         1 RES1    0.0000
     14 C6         3.9609    1.7927    5.6645 C.ar      1 RES1    0.0000
     15 H5         3.2103    2.1269    5.1880 H         1 RES1    0.0000
@<TRIPOS>BOND
     1    1    5 2
     2    2    5 2
     3    3    4 1
     4    5    6 1
     5    6    7 ar
     6    7    8 1
     7    9    3 1
     8   10    9 ar
     9   11   10 1
    10   12   10 ar
    11   13   12 1
    12   14    6 ar
    13   15   14 1
    14    7    9 ar
    15   12   14 ar
@<TRIPOS>SUBSTRUCTURE
     1 RES1 1

@<TRIPOS>CRYSIN
   8.1368    6.7498   11.0279  90.0000  97.9430  90.0000 231 1

