# MOL2 file generated by ConQuest
# Please check atom types

@<TRIPOS>MOLECULE
MNPHOL19
    15    15     1
SMALL
NO_CHARGES
****
Generated from CSD

@<TRIPOS>ATOM
      1 O1         7.5189    0.3944   10.1181 O.2       1 RES1    0.0000
      2 O2         6.7531    1.5450    8.4855 O.2       1 RES1    0.0000
      3 O3         1.8899    1.3994    8.8713 O.3       1 RES1    0.0000
      4 H1         1.1678    1.1818    9.1926 H         1 RES1    0.0000
      5 N1         6.5594    0.8779    9.4913 N.pl3     1 RES1    0.0000
      6 C1         5.1866    0.6011    9.9133 C.ar      1 RES1    0.0000
      7 C2         4.1954    1.0968    9.2175 C.ar      1 RES1    0.0000
      8 H2         4.3745    1.6048    8.4595 H         1 RES1    0.0000
      9 C3         2.8777    0.8731    9.5999 C.ar      1 RES1    0.0000
     10 C4         2.6678    0.1346   10.7811 C.ar      1 RES1    0.0000
     11 H3         1.8023   -0.0150   11.0889 H         1 RES1    0.0000
     12 C5         3.7173   -0.3536   11.4645 C.ar      1 RES1    0.0000
     13 H4         3.5520   -0.8602   12.2259 H         1 RES1    0.0000
     14 C6         5.0358   -0.1394   11.0889 C.ar      1 RES1    0.0000
     15 H5         5.7579   -0.4610   11.5787 H         1 RES1    0.0000
@<TRIPOS>BOND
     1    1    5 2
     2    2    5 2
     3    3    4 1
     4    5    6 1
     5    6    7 ar
     6    7    8 1
     7    9    3 1
     8   10    9 ar
     9   11   10 1
    10   12   10 ar
    11   13   12 1
    12   14    6 ar
    13   15   14 1
    14    7    9 ar
    15   12   14 ar
@<TRIPOS>SUBSTRUCTURE
     1 RES1 1

@<TRIPOS>CRYSIN
   8.1040    6.8000   11.3140  90.0000  90.0000  90.0000  19 1

