# MOL2 file generated by ConQuest
# Please check atom types

@<TRIPOS>MOLECULE
MNPHOL15
    15    15     1
SMALL
NO_CHARGES
****
Generated from CSD

@<TRIPOS>ATOM
      1 O1         9.1611    1.2560    4.3186 O.2       1 RES1    0.0000
      2 O2         8.3683    0.1484    2.6616 O.2       1 RES1    0.0000
      3 O3         3.5034    0.2578    3.1647 O.3       1 RES1    0.0000
      4 H1         2.8021    0.4923    3.5458 H         1 RES1    0.0000
      5 N1         8.2175    0.8041    3.6702 N.pl3     1 RES1    0.0000
      6 C1         6.8602    1.0680    4.1543 C.ar      1 RES1    0.0000
      7 C2         5.8116    0.5422    3.4276 C.ar      1 RES1    0.0000
      8 H2         5.9639    0.0369    2.6500 H         1 RES1    0.0000
      9 C3         4.5204    0.7870    3.8864 C.ar      1 RES1    0.0000
     10 C4         4.3216    1.5452    5.0337 C.ar      1 RES1    0.0000
     11 H3         3.4488    1.7107    5.3419 H         1 RES1    0.0000
     12 C5         5.4051    2.0559    5.7203 C.ar      1 RES1    0.0000
     13 H4         5.2600    2.5797    6.4874 H         1 RES1    0.0000
     14 C6         6.7032    1.8105    5.2987 C.ar      1 RES1    0.0000
     15 H5         7.4437    2.1380    5.7760 H         1 RES1    0.0000
@<TRIPOS>BOND
     1    1    5 2
     2    2    5 2
     3    3    4 1
     4    5    6 1
     5    6    7 ar
     6    7    8 1
     7    9    3 1
     8   10    9 ar
     9   11   10 1
    10   12   10 ar
    11   13   12 1
    12   14    6 ar
    13   15   14 1
    14    7    9 ar
    15   12   14 ar
@<TRIPOS>SUBSTRUCTURE
     1 RES1 1

@<TRIPOS>CRYSIN
   8.1369    6.8372   11.1560  90.0000  98.0500  90.0000 231 1

