# MOL2 file generated by ConQuest
# Please check atom types

@<TRIPOS>MOLECULE
MNPHOL10
    15    15     1
SMALL
NO_CHARGES
****
Generated from CSD

@<TRIPOS>ATOM
      1 C1         1.8096   -0.8035   -1.0011 C.ar      1 RES1    0.0000
      2 C2         2.4405   -0.5664   -2.2114 C.ar      1 RES1    0.0000
      3 C3         1.8677   -1.0819   -3.3514 C.ar      1 RES1    0.0000
      4 C4         0.7120   -1.8199   -3.3498 C.ar      1 RES1    0.0000
      5 C5         0.1096   -2.0577   -2.1258 C.ar      1 RES1    0.0000
      6 C6         0.6533   -1.5519   -0.9632 C.ar      1 RES1    0.0000
      7 H1         1.9924   -0.5306    0.6943 H         1 RES1    0.0000
      8 H2         3.2162   -0.0827   -2.2364 H         1 RES1    0.0000
      9 H3         0.3419   -2.1569   -4.1660 H         1 RES1    0.0000
     10 H4        -0.6787   -2.5703   -2.1153 H         1 RES1    0.0000
     11 H5         0.2431   -1.7228   -0.1292 H         1 RES1    0.0000
     12 N1         2.5439   -0.8235   -4.6351 N.pl3     1 RES1    0.0000
     13 O1         2.3911   -0.2708    0.1090 O.3       1 RES1    0.0000
     14 O2         2.0259   -1.2735   -5.6540 O.2       1 RES1    0.0000
     15 O3         3.5610   -0.1737   -4.6424 O.2       1 RES1    0.0000
@<TRIPOS>BOND
     1    1    2 ar
     2    2    3 ar
     3    3    4 ar
     4    4    5 ar
     5    5    6 ar
     6    6    1 ar
     7    7   13 1
     8    8    2 1
     9    9    4 1
    10   10    5 1
    11   11    6 1
    12   12    3 1
    13   13    1 1
    14   14   12 2
    15   15   12 2
@<TRIPOS>SUBSTRUCTURE
     1 RES1 1

@<TRIPOS>CRYSIN
  11.2400    6.8910    8.1540  90.0000  98.0500  90.0000 231 1

