# MOL2 file generated by ConQuest
# Please check atom types

@<TRIPOS>MOLECULE
MNPMAL01
    25    25     1
SMALL
NO_CHARGES
****
Generated from CSD

@<TRIPOS>ATOM
      1 C1         1.5134    5.2593    5.1556 C.2       1 RES1    0.0000
      2 C2         2.3865    5.3572    6.3444 C.2       1 RES1    0.0000
      3 H1         2.5927    4.5512    6.7587 H         1 RES1    0.0000
      4 C3         2.9188    6.4455    6.9037 C.2       1 RES1    0.0000
      5 H2         3.4181    6.2707    7.6691 H         1 RES1    0.0000
      6 C4         2.8648    7.8798    6.5360 C.2       1 RES1    0.0000
      7 C5         0.3805    3.5543    3.7453 C.ar      1 RES1    0.0000
      8 C6        -0.3036    4.4118    2.8873 C.ar      1 RES1    0.0000
      9 H3        -0.2289    5.3352    2.9676 H         1 RES1    0.0000
     10 C7        -1.0954    3.8401    1.9147 C.ar      1 RES1    0.0000
     11 C8        -1.2439    2.4868    1.7440 C.ar      1 RES1    0.0000
     12 H4        -1.7871    2.1431    1.0716 H         1 RES1    0.0000
     13 C9        -0.5591    1.6548    2.6036 C.ar      1 RES1    0.0000
     14 H5        -0.6387    0.7321    2.5142 H         1 RES1    0.0000
     15 C10        0.2453    2.1798    3.5971 C.ar      1 RES1    0.0000
     16 H6         0.7007    1.6073    4.1719 H         1 RES1    0.0000
     17 N1         1.2129    4.0020    4.7977 N.am      1 RES1    0.0000
     18 H7         1.5760    3.3843    5.2731 H         1 RES1    0.0000
     19 N2        -1.8223    4.7262    0.9990 N.pl3     1 RES1    0.0000
     20 O1         1.0777    6.2457    4.5423 O.2       1 RES1    0.0000
     21 O2         2.1245    8.2831    5.5387 O.3       1 RES1    0.0000
     22 H8         1.7121    7.5498    5.1423 H         1 RES1    0.0000
     23 O3         3.5174    8.6772    7.1716 O.2       1 RES1    0.0000
     24 O4        -1.6218    5.9261    1.0452 O.2       1 RES1    0.0000
     25 O5        -2.6060    4.2163    0.2106 O.2       1 RES1    0.0000
@<TRIPOS>BOND
     1    1    2 1
     2    2    3 1
     3    4    2 2
     4    5    4 1
     5    6    4 1
     6    7    8 ar
     7    8    9 1
     8   10    8 ar
     9   11   10 ar
    10   12   11 1
    11   13   11 ar
    12   14   13 1
    13   15    7 ar
    14   16   15 1
    15   17    1 1
    16   18   17 1
    17   19   10 1
    18   20    1 2
    19   21    6 1
    20   22   21 1
    21   23    6 2
    22   24   19 2
    23   25   19 2
    24    7   17 1
    25   13   15 ar
@<TRIPOS>SUBSTRUCTURE
     1 RES1 1

@<TRIPOS>CRYSIN
   7.9965   14.0253    9.1026  90.0000 100.1470  90.0000  14 1

