# MOL2 file generated by ConQuest
# Please check atom types

@<TRIPOS>MOLECULE
MNPYDO11
    17    17     1
SMALL
NO_CHARGES
****
Generated from CSD

@<TRIPOS>ATOM
      1 N1         3.2641    0.3048    2.5845 N.pl3     1 RES1    0.0000
      2 C1         3.7981    1.0980    1.6206 C.ar      1 RES1    0.0000
      3 H1         4.5805    0.8189    1.2008 H         1 RES1    0.0000
      4 C2         3.2361    2.3006    1.2321 C.ar      1 RES1    0.0000
      5 C3         2.0552    2.6617    1.8908 C.ar      1 RES1    0.0000
      6 C4         1.5178    1.8698    2.8943 C.ar      1 RES1    0.0000
      7 H2         0.7426    2.1372    3.3341 H         1 RES1    0.0000
      8 C5         2.1311    0.6922    3.2375 C.ar      1 RES1    0.0000
      9 H3         1.7758    0.1597    3.9121 H         1 RES1    0.0000
     10 O1         3.8286   -0.8226    2.8881 O.2       1 RES1    0.0000
     11 C6         3.9704    3.1061    0.2014 C.3       1 RES1    0.0000
     12 H4         4.7439    2.6207   -0.0915 H         1 RES1    0.0000
     13 H5         4.2432    3.9433    0.5847 H         1 RES1    0.0000
     14 H6         3.3924    3.2701   -0.5477 H         1 RES1    0.0000
     15 N2         1.3290    3.8901    1.5656 N.pl3     1 RES1    0.0000
     16 O2         1.5920    4.4641    0.5184 O.2       1 RES1    0.0000
     17 O3         0.4748    4.2830    2.3461 O.2       1 RES1    0.0000
@<TRIPOS>BOND
     1    1    2 ar
     2    2    3 1
     3    4    2 ar
     4    5    4 ar
     5    6    5 ar
     6    7    6 1
     7    8    1 ar
     8    9    8 1
     9   10    1 1
    10   11    4 1
    11   12   11 1
    12   13   11 1
    13   14   11 1
    14   15    5 1
    15   16   15 2
    16   17   15 2
    17    6    8 ar
@<TRIPOS>SUBSTRUCTURE
     1 RES1 1

@<TRIPOS>CRYSIN
  21.2160    6.1203    5.1381  90.0000  90.0000  90.0000  19 1

