# MOL2 file generated by ConQuest
# Please check atom types

@<TRIPOS>MOLECULE
MNPYDO15
    17    17     1
SMALL
NO_CHARGES
****
Generated from CSD

@<TRIPOS>ATOM
      1 N1         3.3025    0.2961    2.6187 N.pl3     1 RES1    0.0000
      2 C1         3.8402    1.0911    1.6610 C.ar      1 RES1    0.0000
      3 H1         4.6313    0.8214    1.2527 H         1 RES1    0.0000
      4 C2         3.2650    2.2846    1.2630 C.ar      1 RES1    0.0000
      5 C3         2.0795    2.6364    1.9072 C.ar      1 RES1    0.0000
      6 C4         1.5398    1.8396    2.9081 C.ar      1 RES1    0.0000
      7 H2         0.7587    2.0982    3.3406 H         1 RES1    0.0000
      8 C5         2.1615    0.6743    3.2551 C.ar      1 RES1    0.0000
      9 H3         1.8045    0.1391    3.9266 H         1 RES1    0.0000
     10 O1         3.8777   -0.8220    2.9318 O.2       1 RES1    0.0000
     11 C6         4.0008    3.0925    0.2317 C.3       1 RES1    0.0000
     12 H4         4.7770    2.6088   -0.0592 H         1 RES1    0.0000
     13 H5         4.2712    3.9304    0.6143 H         1 RES1    0.0000
     14 H6         3.4247    3.2543   -0.5190 H         1 RES1    0.0000
     15 N2         1.3414    3.8569    1.5761 N.pl3     1 RES1    0.0000
     16 O2         1.6022    4.4263    0.5309 O.2       1 RES1    0.0000
     17 O3         0.4822    4.2437    2.3479 O.2       1 RES1    0.0000
@<TRIPOS>BOND
     1    1    2 ar
     2    2    3 1
     3    4    2 ar
     4    5    4 ar
     5    6    5 ar
     6    7    6 1
     7    8    1 ar
     8    9    8 1
     9   10    1 1
    10   11    4 1
    11   12   11 1
    12   13   11 1
    13   14   11 1
    14   15    5 1
    15   16   15 2
    16   17   15 2
    17    6    8 ar
@<TRIPOS>SUBSTRUCTURE
     1 RES1 1

@<TRIPOS>CRYSIN
  21.4311    6.1298    5.1489  90.0000  90.0000  90.0000  19 1

