# MOL2 file generated by ConQuest
# Please check atom types

@<TRIPOS>MOLECULE
MNPYDO25
    17    17     1
SMALL
NO_CHARGES
****
Generated from CSD

@<TRIPOS>ATOM
      1 N1         3.1268    0.3429    2.4850 N.pl3     1 RES1    0.0000
      2 C1         3.6613    1.0949    1.5050 C.ar      1 RES1    0.0000
      3 H1         4.4202    0.7797    1.0681 H         1 RES1    0.0000
      4 C2         3.1315    2.3101    1.1196 C.ar      1 RES1    0.0000
      5 C3         1.9937    2.7132    1.8033 C.ar      1 RES1    0.0000
      6 C4         1.4543    1.9594    2.8218 C.ar      1 RES1    0.0000
      7 H2         0.6974    2.2584    3.2728 H         1 RES1    0.0000
      8 C5         2.0265    0.7857    3.1637 C.ar      1 RES1    0.0000
      9 H3         1.6737    0.2785    3.8589 H         1 RES1    0.0000
     10 O1         3.6666   -0.8182    2.7863 O.2       1 RES1    0.0000
     11 C6         3.8707    3.1043    0.0876 C.3       1 RES1    0.0000
     12 H4         4.6397    2.6085   -0.2057 H         1 RES1    0.0000
     13 H5         4.1515    3.9381    0.4675 H         1 RES1    0.0000
     14 H6         3.2941    3.2697   -0.6612 H         1 RES1    0.0000
     15 N2         1.2902    3.9104    1.4810 N.pl3     1 RES1    0.0000
     16 O2         1.5496    4.4982    0.4299 O.2       1 RES1    0.0000
     17 O3         0.4242    4.3135    2.2563 O.2       1 RES1    0.0000
@<TRIPOS>BOND
     1    1    2 ar
     2    2    3 1
     3    4    2 ar
     4    5    4 ar
     5    6    5 ar
     6    7    6 1
     7    8    1 ar
     8    9    8 1
     9   10    1 1
    10   11    4 1
    11   12   11 1
    12   13   11 1
    13   14   11 1
    14   15    5 1
    15   16   15 2
    16   17   15 2
    17    6    8 ar
@<TRIPOS>SUBSTRUCTURE
     1 RES1 1

@<TRIPOS>CRYSIN
  20.5114    6.0160    5.0050  90.0000  90.0000  90.0000  19 1

