# MOL2 file generated by ConQuest
# Please check atom types

@<TRIPOS>MOLECULE
MNPYDO28
    17    17     1
SMALL
NO_CHARGES
****
Generated from CSD

@<TRIPOS>ATOM
      1 N1         3.0199    0.3503    2.4134 N.pl3     1 RES1    0.0000
      2 C1         3.5250    1.1223    1.4067 C.ar      1 RES1    0.0000
      3 H1         4.2638    0.8016    0.9424 H         1 RES1    0.0000
      4 C2         3.0193    2.3313    1.0388 C.ar      1 RES1    0.0000
      5 C3         1.9109    2.7612    1.7569 C.ar      1 RES1    0.0000
      6 C4         1.3934    2.0100    2.8006 C.ar      1 RES1    0.0000
      7 H2         0.6560    2.3229    3.2719 H         1 RES1    0.0000
      8 C5         1.9550    0.8189    3.1415 C.ar      1 RES1    0.0000
      9 H3         1.6220    0.3302    3.8592 H         1 RES1    0.0000
     10 O1         3.5359   -0.8194    2.7009 O.2       1 RES1    0.0000
     11 C6         3.7768    3.0878    0.0153 C.3       1 RES1    0.0000
     12 H4         4.5362    2.5735   -0.2682 H         1 RES1    0.0000
     13 H5         4.0770    3.9209    0.3897 H         1 RES1    0.0000
     14 H6         3.2083    3.2635   -0.7389 H         1 RES1    0.0000
     15 N2         1.2324    3.9844    1.4374 N.pl3     1 RES1    0.0000
     16 O2         1.5062    4.5455    0.3897 O.2       1 RES1    0.0000
     17 O3         0.3972    4.3834    2.2178 O.2       1 RES1    0.0000
@<TRIPOS>BOND
     1    1    2 ar
     2    2    3 1
     3    4    2 ar
     4    5    4 ar
     5    6    5 ar
     6    7    6 1
     7    8    1 ar
     8    9    8 1
     9   10    1 1
    10   11    4 1
    11   12   11 1
    12   13   11 1
    13   14   11 1
    14   15    5 1
    15   16   15 2
    16   17   15 2
    17    6    8 ar
@<TRIPOS>SUBSTRUCTURE
     1 RES1 1

@<TRIPOS>CRYSIN
  19.8780    5.9380    4.9394  90.0000  90.0000  90.0000  19 1

