# MOL2 file generated by ConQuest
# Please check atom types

@<TRIPOS>MOLECULE
MNPYDO29
    17    17     1
SMALL
NO_CHARGES
****
Generated from CSD

@<TRIPOS>ATOM
      1 N1         2.9564    0.3423    2.3735 N.pl3     1 RES1    0.0000
      2 C1         3.4731    1.0740    1.3560 C.ar      1 RES1    0.0000
      3 H1         4.1913    0.7300    0.8760 H         1 RES1    0.0000
      4 C2         2.9716    2.3102    1.0077 C.ar      1 RES1    0.0000
      5 C3         1.8806    2.7735    1.7368 C.ar      1 RES1    0.0000
      6 C4         1.3684    2.0376    2.7906 C.ar      1 RES1    0.0000
      7 H2         0.6451    2.3634    3.2751 H         1 RES1    0.0000
      8 C5         1.9256    0.8285    3.1228 C.ar      1 RES1    0.0000
      9 H3         1.6030    0.3464    3.8499 H         1 RES1    0.0000
     10 O1         3.4733   -0.7848    2.6649 O.2       1 RES1    0.0000
     11 C6         3.7270    3.0803   -0.0246 C.3       1 RES1    0.0000
     12 H4         4.4845    2.5658   -0.3149 H         1 RES1    0.0000
     13 H5         4.0271    3.9094    0.3508 H         1 RES1    0.0000
     14 H6         3.1552    3.2556   -0.7748 H         1 RES1    0.0000
     15 N2         1.2156    3.9714    1.4106 N.pl3     1 RES1    0.0000
     16 O2         1.4861    4.5455    0.3606 O.2       1 RES1    0.0000
     17 O3         0.3812    4.4039    2.1996 O.2       1 RES1    0.0000
@<TRIPOS>BOND
     1    1    2 ar
     2    2    3 1
     3    4    2 ar
     4    5    4 ar
     5    6    5 ar
     6    7    6 1
     7    8    1 ar
     8    9    8 1
     9   10    1 1
    10   11    4 1
    11   12   11 1
    12   13   11 1
    13   14   11 1
    14   15    5 1
    15   16   15 2
    16   17   15 2
    17    6    8 ar
@<TRIPOS>SUBSTRUCTURE
     1 RES1 1

@<TRIPOS>CRYSIN
  19.5490    5.9010    4.9131  90.0000  90.0000  90.0000  19 1

