# MOL2 file generated by ConQuest
# Please check atom types

@<TRIPOS>MOLECULE
MNPYDO05
    17    17     1
SMALL
NO_CHARGES
****
Generated from CSD

@<TRIPOS>ATOM
      1 N1         3.2203    0.3123    2.5540 N.pl3     1 RES1    0.0000
      2 C1         3.7594    1.1013    1.5853 C.ar      1 RES1    0.0000
      3 H1         4.5342    0.8146    1.1597 H         1 RES1    0.0000
      4 C2         3.2025    2.3156    1.2033 C.ar      1 RES1    0.0000
      5 C3         2.0313    2.6884    1.8753 C.ar      1 RES1    0.0000
      6 C4         1.4940    1.9019    2.8892 C.ar      1 RES1    0.0000
      7 H2         0.7284    2.1787    3.3400 H         1 RES1    0.0000
      8 C5         2.0989    0.7126    3.2204 C.ar      1 RES1    0.0000
      9 H3         1.7444    0.1827    3.8975 H         1 RES1    0.0000
     10 O1         3.7743   -0.8235    2.8466 O.2       1 RES1    0.0000
     11 C6         3.9405    3.1193    0.1740 C.3       1 RES1    0.0000
     12 H4         4.7126    2.6303   -0.1206 H         1 RES1    0.0000
     13 H5         4.2172    3.9541    0.5585 H         1 RES1    0.0000
     14 H6         3.3628    3.2879   -0.5745 H         1 RES1    0.0000
     15 N2         1.3176    3.9266    1.5596 N.pl3     1 RES1    0.0000
     16 O2         1.5838    4.5029    0.5103 O.2       1 RES1    0.0000
     17 O3         0.4656    4.3263    2.3497 O.2       1 RES1    0.0000
@<TRIPOS>BOND
     1    1    2 ar
     2    2    3 1
     3    4    2 ar
     4    5    4 ar
     5    6    5 ar
     6    7    6 1
     7    8    1 ar
     8    9    8 1
     9   10    1 1
    10   11    4 1
    11   12   11 1
    12   13   11 1
    13   14   11 1
    14   15    5 1
    15   16   15 2
    16   17   15 2
    17    6    8 ar
@<TRIPOS>SUBSTRUCTURE
     1 RES1 1

@<TRIPOS>CRYSIN
  20.9915    6.1114    5.1337  90.0000  90.0000  90.0000  19 1

