# MOL2 file generated by ConQuest
# Please check atom types

@<TRIPOS>MOLECULE
MNPYDO10
    17    17     1
SMALL
NO_CHARGES
****
Generated from CSD

@<TRIPOS>ATOM
      1 N1         3.2552    0.3072    2.5784 N.pl3     1 RES1    0.0000
      2 C1         3.7900    1.0977    1.6136 C.ar      1 RES1    0.0000
      3 H1         4.5710    0.8169    1.1929 H         1 RES1    0.0000
      4 C2         3.2289    2.3044    1.2258 C.ar      1 RES1    0.0000
      5 C3         2.0501    2.6654    1.8880 C.ar      1 RES1    0.0000
      6 C4         1.5146    1.8773    2.8954 C.ar      1 RES1    0.0000
      7 H2         0.7431    2.1484    3.3398 H         1 RES1    0.0000
      8 C5         2.1248    0.6976    3.2339 C.ar      1 RES1    0.0000
      9 H3         1.7700    0.1652    3.9090 H         1 RES1    0.0000
     10 O1         3.8181   -0.8242    2.8795 O.2       1 RES1    0.0000
     11 C6         3.9642    3.1078    0.1952 C.3       1 RES1    0.0000
     12 H4         4.7383    2.6208   -0.0976 H         1 RES1    0.0000
     13 H5         4.2386    3.9443    0.5774 H         1 RES1    0.0000
     14 H6         3.3875    3.2718   -0.5543 H         1 RES1    0.0000
     15 N2         1.3266    3.8960    1.5633 N.pl3     1 RES1    0.0000
     16 O2         1.5915    4.4705    0.5173 O.2       1 RES1    0.0000
     17 O3         0.4740    4.2919    2.3457 O.2       1 RES1    0.0000
@<TRIPOS>BOND
     1    1    2 ar
     2    2    3 1
     3    4    2 ar
     4    5    4 ar
     5    6    5 ar
     6    7    6 1
     7    8    1 ar
     8    9    8 1
     9   10    1 1
    10   11    4 1
    11   12   11 1
    12   13   11 1
    13   14   11 1
    14   15    5 1
    15   16   15 2
    16   17   15 2
    17    6    8 ar
@<TRIPOS>SUBSTRUCTURE
     1 RES1 1

@<TRIPOS>CRYSIN
  21.1719    6.1190    5.1373  90.0000  90.0000  90.0000  19 1

