# MOL2 file generated by ConQuest
# Please check atom types

@<TRIPOS>MOLECULE
MNPYDO20
    17    17     1
SMALL
NO_CHARGES
****
Generated from CSD

@<TRIPOS>ATOM
      1 N1         3.2656    0.3125    2.5800 N.pl3     1 RES1    0.0000
      2 C1         3.7932    1.1521    1.6219 C.ar      1 RES1    0.0000
      3 H1         4.5930    0.9063    1.2191 H         1 RES1    0.0000
      4 C2         3.2340    2.2980    1.2365 C.ar      1 RES1    0.0000
      5 C3         2.0570    2.6596    1.8793 C.ar      1 RES1    0.0000
      6 C4         1.5228    1.8813    2.8881 C.ar      1 RES1    0.0000
      7 H2         0.7468    2.1558    3.3226 H         1 RES1    0.0000
      8 C5         2.1185    0.7292    3.2448 C.ar      1 RES1    0.0000
      9 H3         1.7651    0.2169    3.9342 H         1 RES1    0.0000
     10 O1         3.8261   -0.8089    2.9040 O.2       1 RES1    0.0000
     11 C6         3.9589    3.1927    0.2027 C.3       1 RES1    0.0000
     12 H4         4.7437    2.7374   -0.1167 H         1 RES1    0.0000
     13 H5         4.2133    4.0187    0.6162 H         1 RES1    0.0000
     14 H6         3.3711    3.3692   -0.5343 H         1 RES1    0.0000
     15 N2         1.3270    3.9219    1.5502 N.pl3     1 RES1    0.0000
     16 O2         1.5915    4.4612    0.5113 O.2       1 RES1    0.0000
     17 O3         0.4695    4.2773    2.3307 O.2       1 RES1    0.0000
@<TRIPOS>BOND
     1    1    2 ar
     2    2    3 1
     3    4    2 ar
     4    5    4 ar
     5    6    5 ar
     6    7    6 1
     7    8    1 ar
     8    9    8 1
     9   10    1 1
    10   11    4 1
    11   12   11 1
    12   13   11 1
    13   14   11 1
    14   15    5 1
    15   16   15 2
    16   17   15 2
    17    6    8 ar
@<TRIPOS>SUBSTRUCTURE
     1 RES1 1

@<TRIPOS>CRYSIN
  21.2150    6.1280    5.1180  90.0000  90.0000  90.0000  19 1

