# MOL2 file generated by ConQuest
# Please check atom types

@<TRIPOS>MOLECULE
MNPYDO13
    17    17     1
SMALL
NO_CHARGES
****
Generated from CSD

@<TRIPOS>ATOM
      1 N1         3.2866    0.3002    2.6024 N.pl3     1 RES1    0.0000
      2 C1         3.8238    1.0923    1.6447 C.ar      1 RES1    0.0000
      3 H1         4.6122    0.8185    1.2343 H         1 RES1    0.0000
      4 C2         3.2535    2.2924    1.2477 C.ar      1 RES1    0.0000
      5 C3         2.0688    2.6453    1.9009 C.ar      1 RES1    0.0000
      6 C4         1.5318    1.8538    2.9043 C.ar      1 RES1    0.0000
      7 H2         0.7555    2.1178    3.3414 H         1 RES1    0.0000
      8 C5         2.1497    0.6812    3.2483 C.ar      1 RES1    0.0000
      9 H3         1.7949    0.1470    3.9210 H         1 RES1    0.0000
     10 O1         3.8573   -0.8227    2.9140 O.2       1 RES1    0.0000
     11 C6         3.9888    3.0968    0.2211 C.3       1 RES1    0.0000
     12 H4         4.7638    2.6116   -0.0705 H         1 RES1    0.0000
     13 H5         4.2601    3.9336    0.6043 H         1 RES1    0.0000
     14 H6         3.4127    3.2604   -0.5297 H         1 RES1    0.0000
     15 N2         1.3363    3.8718    1.5732 N.pl3     1 RES1    0.0000
     16 O2         1.5988    4.4415    0.5261 O.2       1 RES1    0.0000
     17 O3         0.4796    4.2614    2.3478 O.2       1 RES1    0.0000
@<TRIPOS>BOND
     1    1    2 ar
     2    2    3 1
     3    4    2 ar
     4    5    4 ar
     5    6    5 ar
     6    7    6 1
     7    8    1 ar
     8    9    8 1
     9   10    1 1
    10   11    4 1
    11   12   11 1
    12   13   11 1
    13   14   11 1
    14   15    5 1
    15   16   15 2
    16   17   15 2
    17    6    8 ar
@<TRIPOS>SUBSTRUCTURE
     1 RES1 1

@<TRIPOS>CRYSIN
  21.3430    6.1262    5.1430  90.0000  90.0000  90.0000  19 1

