# MOL2 file generated by ConQuest
# Please check atom types

@<TRIPOS>MOLECULE
MNPYDO19
    17    17     1
SMALL
NO_CHARGES
****
Generated from CSD

@<TRIPOS>ATOM
      1 N1         3.2864    0.2699    2.6022 N.pl3     1 RES1    0.0000
      2 C1         3.8089    1.1285    1.6247 C.ar      1 RES1    0.0000
      3 H1         4.6022    0.8776    1.2108 H         1 RES1    0.0000
      4 C2         3.2434    2.2937    1.2380 C.ar      1 RES1    0.0000
      5 C3         2.0523    2.6476    1.8837 C.ar      1 RES1    0.0000
      6 C4         1.5121    1.8577    2.8765 C.ar      1 RES1    0.0000
      7 H2         0.7295    2.1239    3.3032 H         1 RES1    0.0000
      8 C5         2.1118    0.6930    3.2376 C.ar      1 RES1    0.0000
      9 H3         1.7418    0.1754    3.9135 H         1 RES1    0.0000
     10 O1         3.8493   -0.8709    2.8996 O.2       1 RES1    0.0000
     11 C6         3.9769    3.1033    0.2041 C.3       1 RES1    0.0000
     12 H4         4.7510    2.6170   -0.0897 H         1 RES1    0.0000
     13 H5         4.2491    3.9405    0.5852 H         1 RES1    0.0000
     14 H6         3.3985    3.2640   -0.5446 H         1 RES1    0.0000
     15 N2         1.3330    3.8718    1.5478 N.pl3     1 RES1    0.0000
     16 O2         1.5927    4.4280    0.5051 O.2       1 RES1    0.0000
     17 O3         0.4575    4.2318    2.3262 O.2       1 RES1    0.0000
@<TRIPOS>BOND
     1    1    2 ar
     2    2    3 1
     3    4    2 ar
     4    5    4 ar
     5    6    5 ar
     6    7    6 1
     7    8    1 ar
     8    9    8 1
     9   10    1 1
    10   11    4 1
    11   12   11 1
    12   13   11 1
    13   14   11 1
    14   15    5 1
    15   16   15 2
    16   17   15 2
    17    6    8 ar
@<TRIPOS>SUBSTRUCTURE
     1 RES1 1

@<TRIPOS>CRYSIN
  21.2670    6.1330    5.1284  90.0000  90.0000  90.0000  19 1

