# MOL2 file generated by ConQuest
# Please check atom types

@<TRIPOS>MOLECULE
MNPYDO09
    17    17     1
SMALL
NO_CHARGES
****
Generated from CSD

@<TRIPOS>ATOM
      1 N1         3.2472    0.3076    2.5728 N.pl3     1 RES1    0.0000
      2 C1         3.7844    1.0972    1.6061 C.ar      1 RES1    0.0000
      3 H1         4.5625    0.8147    1.1829 H         1 RES1    0.0000
      4 C2         3.2227    2.3064    1.2219 C.ar      1 RES1    0.0000
      5 C3         2.0448    2.6709    1.8850 C.ar      1 RES1    0.0000
      6 C4         1.5097    1.8807    2.8923 C.ar      1 RES1    0.0000
      7 H2         0.7396    2.1511    3.3365 H         1 RES1    0.0000
      8 C5         2.1206    0.7009    3.2312 C.ar      1 RES1    0.0000
      9 H3         1.7667    0.1706    3.9082 H         1 RES1    0.0000
     10 O1         3.8106   -0.8226    2.8717 O.2       1 RES1    0.0000
     11 C6         3.9585    3.1107    0.1916 C.3       1 RES1    0.0000
     12 H4         4.7315    2.6238   -0.1022 H         1 RES1    0.0000
     13 H5         4.2328    3.9468    0.5742 H         1 RES1    0.0000
     14 H6         3.3812    3.2758   -0.5578 H         1 RES1    0.0000
     15 N2         1.3256    3.9015    1.5619 N.pl3     1 RES1    0.0000
     16 O2         1.5892    4.4758    0.5152 O.2       1 RES1    0.0000
     17 O3         0.4725    4.2972    2.3457 O.2       1 RES1    0.0000
@<TRIPOS>BOND
     1    1    2 ar
     2    2    3 1
     3    4    2 ar
     4    5    4 ar
     5    6    5 ar
     6    7    6 1
     7    8    1 ar
     8    9    8 1
     9   10    1 1
    10   11    4 1
    11   12   11 1
    12   13   11 1
    13   14   11 1
    14   15    5 1
    15   16   15 2
    16   17   15 2
    17    6    8 ar
@<TRIPOS>SUBSTRUCTURE
     1 RES1 1

@<TRIPOS>CRYSIN
  21.1324    6.1162    5.1363  90.0000  90.0000  90.0000  19 1

