# MOL2 file generated by ConQuest
# Please check atom types

@<TRIPOS>MOLECULE
MNPYDO26
    17    17     1
SMALL
NO_CHARGES
****
Generated from CSD

@<TRIPOS>ATOM
      1 N1         3.0956    0.3421    2.4698 N.pl3     1 RES1    0.0000
      2 C1         3.6192    1.0922    1.4747 C.ar      1 RES1    0.0000
      3 H1         4.3656    0.7639    1.0245 H         1 RES1    0.0000
      4 C2         3.1062    2.3044    1.0933 C.ar      1 RES1    0.0000
      5 C3         1.9659    2.6884    1.8008 C.ar      1 RES1    0.0000
      6 C4         1.4277    1.9743    2.8103 C.ar      1 RES1    0.0000
      7 H2         0.6673    2.2726    3.2520 H         1 RES1    0.0000
      8 C5         2.0003    0.8401    3.1568 C.ar      1 RES1    0.0000
      9 H3         1.6620    0.3607    3.8792 H         1 RES1    0.0000
     10 O1         3.6308   -0.8113    2.7590 O.2       1 RES1    0.0000
     11 C6         3.8389    3.1265    0.0568 C.3       1 RES1    0.0000
     12 H4         4.6118    2.6446   -0.2478 H         1 RES1    0.0000
     13 H5         4.1154    3.9595    0.4462 H         1 RES1    0.0000
     14 H6         3.2549    3.2987   -0.6860 H         1 RES1    0.0000
     15 N2         1.2757    3.9487    1.4797 N.pl3     1 RES1    0.0000
     16 O2         1.5375    4.5320    0.4218 O.2       1 RES1    0.0000
     17 O3         0.4160    4.3501    2.2475 O.2       1 RES1    0.0000
@<TRIPOS>BOND
     1    1    2 ar
     2    2    3 1
     3    4    2 ar
     4    5    4 ar
     5    6    5 ar
     6    7    6 1
     7    8    1 ar
     8    9    8 1
     9   10    1 1
    10   11    4 1
    11   12   11 1
    12   13   11 1
    13   14   11 1
    14   15    5 1
    15   16   15 2
    16   17   15 2
    17    6    8 ar
@<TRIPOS>SUBSTRUCTURE
     1 RES1 1

@<TRIPOS>CRYSIN
  20.3430    6.0010    4.9855  90.0000  90.0000  90.0000  19 1

