# MOL2 file generated by ConQuest
# Please check atom types

@<TRIPOS>MOLECULE
MNPYDO06
    17    17     1
SMALL
NO_CHARGES
****
Generated from CSD

@<TRIPOS>ATOM
      1 N1         3.2236    0.3111    2.5589 N.pl3     1 RES1    0.0000
      2 C1         3.7647    1.1015    1.5891 C.ar      1 RES1    0.0000
      3 H1         4.5408    0.8155    1.1645 H         1 RES1    0.0000
      4 C2         3.2072    2.3150    1.2071 C.ar      1 RES1    0.0000
      5 C3         2.0341    2.6842    1.8781 C.ar      1 RES1    0.0000
      6 C4         1.4997    1.8962    2.8891 C.ar      1 RES1    0.0000
      7 H2         0.7337    2.1713    3.3388 H         1 RES1    0.0000
      8 C5         2.1054    0.7097    3.2228 C.ar      1 RES1    0.0000
      9 H3         1.7512    0.1803    3.9010 H         1 RES1    0.0000
     10 O1         3.7828   -0.8245    2.8526 O.2       1 RES1    0.0000
     11 C6         3.9448    3.1176    0.1776 C.3       1 RES1    0.0000
     12 H4         4.7174    2.6279   -0.1160 H         1 RES1    0.0000
     13 H5         4.2213    3.9526    0.5612 H         1 RES1    0.0000
     14 H6         3.3678    3.2851   -0.5709 H         1 RES1    0.0000
     15 N2         1.3177    3.9208    1.5603 N.pl3     1 RES1    0.0000
     16 O2         1.5845    4.4966    0.5114 O.2       1 RES1    0.0000
     17 O3         0.4671    4.3194    2.3474 O.2       1 RES1    0.0000
@<TRIPOS>BOND
     1    1    2 ar
     2    2    3 1
     3    4    2 ar
     4    5    4 ar
     5    6    5 ar
     6    7    6 1
     7    8    1 ar
     8    9    8 1
     9   10    1 1
    10   11    4 1
    11   12   11 1
    12   13   11 1
    13   14   11 1
    14   15    5 1
    15   16   15 2
    16   17   15 2
    17    6    8 ar
@<TRIPOS>SUBSTRUCTURE
     1 RES1 1

@<TRIPOS>CRYSIN
  21.0223    6.1129    5.1343  90.0000  90.0000  90.0000  19 1

