# MOL2 file generated by ConQuest
# Please check atom types

@<TRIPOS>MOLECULE
MNPYDO02
    11    11     1
SMALL
NO_CHARGES
****
Generated from CSD

@<TRIPOS>ATOM
      1 N1         3.1952    0.3137   -0.0188 N.pl3     1 RES1    0.0000
      2 C1         3.7364    1.1017   -0.9943 C.ar      1 RES1    0.0000
      3 C2         3.1812    2.3155   -1.3691 C.ar      1 RES1    0.0000
      4 C3         2.0161    2.6840   -0.6893 C.ar      1 RES1    0.0000
      5 C4         1.4824    1.9080    0.3224 C.ar      1 RES1    0.0000
      6 C5         2.0742    0.7208    0.6492 C.ar      1 RES1    0.0000
      7 O1         3.7447   -0.8269    0.2677 O.2       1 RES1    0.0000
      8 C6         3.9180    3.1156   -2.4007 C.3       1 RES1    0.0000
      9 N2         1.3074    3.9269   -1.0022 N.pl3     1 RES1    0.0000
     10 O2         1.5766    4.5059   -2.0599 O.2       1 RES1    0.0000
     11 O3         0.4567    4.3250   -0.2103 O.2       1 RES1    0.0000
@<TRIPOS>BOND
     1    1    2 ar
     2    2    3 ar
     3    3    4 ar
     4    4    5 ar
     5    5    6 ar
     6    6    1 ar
     7    7    1 1
     8    8    3 1
     9    9    4 1
    10   10    9 2
    11   11    9 2
@<TRIPOS>SUBSTRUCTURE
     1 RES1 1

@<TRIPOS>CRYSIN
  20.8550    6.0880    5.1230  90.0000  90.0000  90.0000  19 1

