# MOL2 file generated by ConQuest
# Please check atom types

@<TRIPOS>MOLECULE
MNPYDO14
    17    17     1
SMALL
NO_CHARGES
****
Generated from CSD

@<TRIPOS>ATOM
      1 N1         3.2951    0.2990    2.6096 N.pl3     1 RES1    0.0000
      2 C1         3.8310    1.0914    1.6524 C.ar      1 RES1    0.0000
      3 H1         4.6209    0.8199    1.2433 H         1 RES1    0.0000
      4 C2         3.2573    2.2906    1.2536 C.ar      1 RES1    0.0000
      5 C3         2.0727    2.6405    1.9020 C.ar      1 RES1    0.0000
      6 C4         1.5355    1.8463    2.9061 C.ar      1 RES1    0.0000
      7 H2         0.7570    2.1080    3.3425 H         1 RES1    0.0000
      8 C5         2.1567    0.6777    3.2503 C.ar      1 RES1    0.0000
      9 H3         1.8004    0.1428    3.9219 H         1 RES1    0.0000
     10 O1         3.8680   -0.8211    2.9225 O.2       1 RES1    0.0000
     11 C6         3.9922    3.0958    0.2275 C.3       1 RES1    0.0000
     12 H4         4.7684    2.6117   -0.0638 H         1 RES1    0.0000
     13 H5         4.2638    3.9328    0.6114 H         1 RES1    0.0000
     14 H6         3.4170    3.2594   -0.5234 H         1 RES1    0.0000
     15 N2         1.3392    3.8630    1.5732 N.pl3     1 RES1    0.0000
     16 O2         1.5990    4.4322    0.5280 O.2       1 RES1    0.0000
     17 O3         0.4824    4.2527    2.3477 O.2       1 RES1    0.0000
@<TRIPOS>BOND
     1    1    2 ar
     2    2    3 1
     3    4    2 ar
     4    5    4 ar
     5    6    5 ar
     6    7    6 1
     7    8    1 ar
     8    9    8 1
     9   10    1 1
    10   11    4 1
    11   12   11 1
    12   13   11 1
    13   14   11 1
    14   15    5 1
    15   16   15 2
    16   17   15 2
    17    6    8 ar
@<TRIPOS>SUBSTRUCTURE
     1 RES1 1

@<TRIPOS>CRYSIN
  21.3830    6.1278    5.1462  90.0000  90.0000  90.0000  19 1

