# MOL2 file generated by ConQuest
# Please check atom types

@<TRIPOS>MOLECULE
MNTBZA11
    33    22     2
SMALL
NO_CHARGES
****
Generated from CSD

@<TRIPOS>ATOM
      1 O1         2.0337    3.8798    4.3818 O.3       1 RES1    0.0000
      2 O2         1.0851    3.8641    6.4001 O.2       1 RES1    0.0000
      3 O3        -1.7779   -2.0663    4.3472 O.2       1 RES1    0.0000
      4 O4         0.2292   -2.8555    4.4067 O.2       1 RES1    0.0000
      5 O5        -1.5300   -2.0236    3.6900 Du        2 SUP2    0.0000
      6 O6        -1.6546   -2.2575    4.9574 Du        2 SUP2    0.0000
      7 O7         0.1048   -2.7965    3.9816 Du        2 SUP2    0.0000
      8 O8        -0.1224   -2.8372    5.0583 Du        2 SUP2    0.0000
      9 N1        -0.5798   -1.9440    4.4674 N.pl3     1 RES1    0.0000
     10 C1         0.8947    1.9230    5.0793 C.ar      1 RES1    0.0000
     11 C2         0.8775    1.3962    3.7928 C.ar      1 RES1    0.0000
     12 C3         0.3834    0.1182    3.5577 C.ar      1 RES1    0.0000
     13 C4        -0.0513   -0.5818    4.6740 C.ar      1 RES1    0.0000
     14 C5        -0.0399   -0.1096    5.9801 C.ar      1 RES1    0.0000
     15 C6         0.4429    1.1788    6.1587 C.ar      1 RES1    0.0000
     16 C7         1.3799    3.3158    5.2891 C.2       1 RES1    0.0000
     17 C8         0.3161   -0.4336    2.1576 C.3       1 RES1    0.0000
     18 C9        -0.5388   -0.9178    7.1459 C.3       1 RES1    0.0000
     19 H1         2.2672    4.5862    4.5648 H         1 RES1    0.0000
     20 H2         1.3718    4.5761    6.4827 Du        2 SUP2    0.0000
     21 H3         1.1907    1.9321    3.0395 H         1 RES1    0.0000
     22 H4         0.6222    0.2441    1.5253 H         1 RES1    0.0000
     23 H5         0.8927   -1.2304    2.0861 H         1 RES1    0.0000
     24 H6        -0.6105   -0.6813    1.9515 H         1 RES1    0.0000
     25 H7        -0.0206   -1.3525    2.1871 Du        2 SUP2    0.0000
     26 H8        -0.2870    0.1220    1.6151 Du        2 SUP2    0.0000
     27 H9         1.2120   -0.4271    1.7609 Du        2 SUP2    0.0000
     28 H10       -0.5712   -0.3559    7.9519 H         1 RES1    0.0000
     29 H11        0.0675   -1.6779    7.3014 H         1 RES1    0.0000
     30 H12       -1.0177   -1.2508    6.9537 H         1 RES1    0.0000
     31 H13       -0.7240   -1.8304    6.8528 Du        2 SUP2    0.0000
     32 H14       -1.3585   -0.5186    7.4921 Du        2 SUP2    0.0000
     33 H15        0.1439   -0.9355    7.8510 Du        2 SUP2    0.0000
@<TRIPOS>BOND
     1    1   16 1
     2    2   16 2
     3    3    9 2
     4    4    9 2
     5    9   13 1
     6   10   11 ar
     7   11   12 ar
     8   12   13 ar
     9   13   14 ar
    10   14   15 ar
    11   15   10 ar
    12   16   10 1
    13   17   12 1
    14   18   14 1
    15   19    1 1
    16   21   11 1
    17   22   17 1
    18   23   17 1
    19   24   17 1
    20   28   18 1
    21   29   18 1
    22   30   18 1
@<TRIPOS>SUBSTRUCTURE
     1 RES1 1
     2 SUP2 5

@<TRIPOS>CRYSIN
   8.2620   10.1690   11.9670  90.0000 110.4100  90.0000  14 1

