# MOL2 file generated by ConQuest
# Please check atom types

@<TRIPOS>MOLECULE
MNTDMA
    19    19     1
SMALL
NO_CHARGES
****
Generated from CSD

@<TRIPOS>ATOM
      1 C1        -4.6010    0.9539    3.8964 C.ar      1 RES1    0.0000
      2 C2        -4.2573    0.5629    5.1724 C.ar      1 RES1    0.0000
      3 C3        -3.3667    1.4096    5.9292 C.ar      1 RES1    0.0000
      4 C4        -2.8853    2.6128    5.2937 C.ar      1 RES1    0.0000
      5 C5        -3.3102    2.9087    4.0247 C.ar      1 RES1    0.0000
      6 C6        -4.1676    2.1065    3.2956 C.ar      1 RES1    0.0000
      7 C7        -2.1404    2.0307    8.0271 C.3       1 RES1    0.0000
      8 C8        -3.5151   -0.1313    7.8373 C.3       1 RES1    0.0000
      9 H1        -4.5217   -0.2670    5.6770 H         1 RES1    0.0000
     10 H2        -2.4185    3.1330    5.9906 H         1 RES1    0.0000
     11 H3        -2.9107    3.7569    3.7416 H         1 RES1    0.0000
     12 H4        -4.7281    2.2655    2.6441 H         1 RES1    0.0000
     13 H5        -3.0319   -0.0641    8.7191 H         1 RES1    0.0000
     14 H6        -4.4376    0.1481    8.0177 H         1 RES1    0.0000
     15 H7        -3.5674   -0.8337    7.0504 H         1 RES1    0.0000
     16 N1        -2.9440    1.0841    7.2283 N.3       1 RES1    0.0000
     17 N2        -5.5359    0.0539    3.1601 N.pl3     1 RES1    0.0000
     18 O1        -5.7753   -1.0648    3.6228 O.2       1 RES1    0.0000
     19 O2        -6.0342    0.4522    2.0876 O.2       1 RES1    0.0000
@<TRIPOS>BOND
     1    1    2 ar
     2    2    3 ar
     3    3    4 ar
     4    4    5 ar
     5    5    6 ar
     6    6    1 ar
     7    7   16 1
     8    8   13 1
     9    9    2 1
    10   10    4 1
    11   11    5 1
    12   12    6 1
    13   14    8 1
    14   15    8 1
    15   16    3 1
    16   17    1 1
    17   18   17 2
    18   19   17 2
    19    8   16 1
@<TRIPOS>SUBSTRUCTURE
     1 RES1 1

@<TRIPOS>CRYSIN
   8.0200   11.6600   10.6200  90.0000 120.3100  90.0000  14 1

