# MOL2 file generated by ConQuest
# Please check atom types

@<TRIPOS>MOLECULE
MNTZOX
    26    28     1
SMALL
NO_CHARGES
****
Generated from CSD

@<TRIPOS>ATOM
      1 H1         0.1271    1.0951    0.9342 H         1 RES1    0.0000
      2 H2         6.4408   -1.0951    2.9925 H         1 RES1    0.0000
      3 H3         6.4068   -1.2167    1.3823 H         1 RES1    0.0000
      4 H4         5.6826   -2.1901    2.2406 H         1 RES1    0.0000
      5 O1         1.5608   -0.4293    0.7231 O.2       1 RES1    0.0000
      6 O2         3.7294   -1.8321    0.6418 O.2       1 RES1    0.0000
      7 N1         2.5204   -0.0313    1.4492 N.pl3     1 RES1    0.0000
      8 C1         3.6906   -0.8813    1.3823 C.2       1 RES1    0.0000
      9 N2         4.7016   -0.5093    2.2140 N.am      1 RES1    0.0000
     10 N3         4.7349    0.5788    2.9933 N.2       1 RES1    0.0000
     11 C2         3.7413    2.5552    3.7711 C.2       1 RES1    0.0000
     12 C3         2.7285    3.4138    3.7908 C.2       1 RES1    0.0000
     13 C4         0.4735    4.0969    3.0974 C.ar      1 RES1    0.0000
     14 C5        -0.6918    3.9005    2.3849 C.ar      1 RES1    0.0000
     15 C6        -0.8273    2.7863    1.5798 C.ar      1 RES1    0.0000
     16 C7         0.1822    1.8616    1.4963 C.ar      1 RES1    0.0000
     17 C8         1.3847    2.0250    2.2178 C.ar      1 RES1    0.0000
     18 C9         2.5073    1.1038    2.1882 C.2       1 RES1    0.0000
     19 C10        3.6755    1.3645    2.9652 C.2       1 RES1    0.0000
     20 C11        1.5242    3.1844    3.0282 C.ar      1 RES1    0.0000
     21 C12        5.9284   -1.3193    2.2254 C.3       1 RES1    0.0000
     22 H5         4.5907    2.6247    4.2761 H         1 RES1    0.0000
     23 H6         2.7613    4.2238    4.3369 H         1 RES1    0.0000
     24 H7         0.5762    4.8843    3.6002 H         1 RES1    0.0000
     25 H8        -1.3667    4.5541    2.4533 H         1 RES1    0.0000
     26 H9        -1.6161    2.6594    1.0709 H         1 RES1    0.0000
@<TRIPOS>BOND
     1    1   16 1
     2    2   21 1
     3    3   21 1
     4    4   21 1
     5    5    7 1
     6    6    8 2
     7    7    8 1
     8    8    9 1
     9    9   10 1
    10   10   19 2
    11   11   12 2
    12   12   20 1
    13   13   14 ar
    14   14   15 ar
    15   15   16 ar
    16   16   17 ar
    17   17   18 1
    18   18    7 2
    19   19   11 1
    20   20   13 ar
    21   21    9 1
    22   22   11 1
    23   23   12 1
    24   24   13 1
    25   25   14 1
    26   26   15 1
    27   17   20 ar
    28   18   19 1
@<TRIPOS>SUBSTRUCTURE
     1 RES1 1

@<TRIPOS>CRYSIN
   7.6490   17.3820    7.8740  90.0000 105.2900  90.0000  14 1

