# MOL2 file generated by ConQuest
# Please check atom types

@<TRIPOS>MOLECULE
MNVIMZ
    11    11     1
SMALL
NO_CHARGES
****
Generated from CSD

@<TRIPOS>ATOM
      1 N1         1.6182    4.8410    3.6348 N.3       1 RES1    0.0000
      2 N2         1.6313    7.0287    3.0120 N.2       1 RES1    0.0000
      3 N3         1.4877    5.3284    1.2048 N.pl3     1 RES1    0.0000
      4 O1         1.5138    4.1371    0.8985 O.2       1 RES1    0.0000
      5 O2         1.5138    6.3356    0.4186 O.2       1 RES1    0.0000
      6 C1         1.6965    5.6099    4.7783 C.2       1 RES1    0.0000
      7 C2         1.6443    6.9312    4.3290 C.2       1 RES1    0.0000
      8 C3         1.5530    5.7616    2.6648 C.2       1 RES1    0.0000
      9 C4         1.6052    3.3248    3.5327 C.3       1 RES1    0.0000
     10 C5         1.7096    4.9818    6.1260 C.2       1 RES1    0.0000
     11 C6         1.7357    5.7832    7.1878 C.2       1 RES1    0.0000
@<TRIPOS>BOND
     1    1    6 1
     2    2    7 1
     3    3    4 2
     4    5    3 2
     5    6    7 2
     6    8    1 1
     7    9    1 1
     8   10    6 1
     9   11   10 2
    10    2    8 2
    11    3    8 1
@<TRIPOS>SUBSTRUCTURE
     1 RES1 1

@<TRIPOS>CRYSIN
  13.0500   10.8300   10.2100  90.0000  90.0000  90.0000  61 1

