# MOL2 file generated by ConQuest
# Please check atom types

@<TRIPOS>MOLECULE
MOBGEQ
    59    60     1
SMALL
NO_CHARGES
****
Generated from CSD

@<TRIPOS>ATOM
      1 O1         2.4924    4.1941   -0.8195 O.2       1 RES1    0.0000
      2 N1         3.8362    7.9759    2.1118 N.ar      1 RES1    0.0000
      3 N2         2.1948    4.4996    0.3997 N.pl3     1 RES1    0.0000
      4 C1         4.1084    7.5881    0.8672 C.ar      1 RES1    0.0000
      5 C2         3.5757    6.4610    0.2438 C.ar      1 RES1    0.0000
      6 C3         2.7054    5.6805    0.9669 C.ar      1 RES1    0.0000
      7 C4         2.3853    6.0530    2.2762 C.ar      1 RES1    0.0000
      8 C5         2.9672    7.1897    2.7840 C.ar      1 RES1    0.0000
      9 C6         1.4044    3.5169    1.1269 C.ar      1 RES1    0.0000
     10 C7         2.0820    2.4441    1.7302 C.ar      1 RES1    0.0000
     11 C8         1.2797    1.4253    2.2613 C.ar      1 RES1    0.0000
     12 C9        -0.1195    1.4387    2.2221 C.ar      1 RES1    0.0000
     13 C10       -0.7324    2.5485    1.6538 C.ar      1 RES1    0.0000
     14 C11       -0.0117    3.6046    1.0676 C.ar      1 RES1    0.0000
     15 C12        3.6049    2.1900    1.8182 C.3       1 RES1    0.0000
     16 C13        4.5585    3.3150    1.3930 C.3       1 RES1    0.0000
     17 C14        3.8984    0.9619    0.9181 C.3       1 RES1    0.0000
     18 C15        3.9636    1.8480    3.2716 C.3       1 RES1    0.0000
     19 C16       -0.9078    0.2083    2.7129 C.3       1 RES1    0.0000
     20 C17       -0.5742   -0.9619    1.7885 C.3       1 RES1    0.0000
     21 C18       -0.5366   -0.1321    4.1494 C.3       1 RES1    0.0000
     22 C19       -2.4299    0.4508    2.6779 C.3       1 RES1    0.0000
     23 C20       -0.8848    4.6931    0.3870 C.3       1 RES1    0.0000
     24 C21       -1.8752    5.2602    1.4174 C.3       1 RES1    0.0000
     25 C22       -0.1737    5.8956   -0.2184 C.3       1 RES1    0.0000
     26 C23       -1.6563    4.0224   -0.7633 C.3       1 RES1    0.0000
     27 H1         4.7279    8.1127    0.3742 H         1 RES1    0.0000
     28 H2         3.7883    6.2570   -0.6584 H         1 RES1    0.0000
     29 H3         1.7692    5.5458    2.7924 H         1 RES1    0.0000
     30 H4         2.7389    7.4462    3.6692 H         1 RES1    0.0000
     31 H5         1.7091    0.6840    2.6716 H         1 RES1    0.0000
     32 H6        -1.6801    2.6000    1.6613 H         1 RES1    0.0000
     33 H7         4.1487    4.1584    1.5489 H         1 RES1    0.0000
     34 H8         4.7606    3.2276    0.4696 H         1 RES1    0.0000
     35 H9         5.3597    3.2548    1.8998 H         1 RES1    0.0000
     36 H10        3.3619    0.9949    0.1346 H         1 RES1    0.0000
     37 H11        4.8162    0.9774    0.6743 H         1 RES1    0.0000
     38 H12        3.7102    0.1632    1.3973 H         1 RES1    0.0000
     39 H13        4.6840    1.2281    3.2875 H         1 RES1    0.0000
     40 H14        3.2096    1.4690    3.7052 H         1 RES1    0.0000
     41 H15        4.2202    2.6447    3.7222 H         1 RES1    0.0000
     42 H16        0.3093   -0.8589    1.4545 H         1 RES1    0.0000
     43 H17       -0.6381   -1.7761    2.2730 H         1 RES1    0.0000
     44 H18       -1.1875   -0.9755    1.0633 H         1 RES1    0.0000
     45 H19        0.1996   -0.7326    4.1494 H         1 RES1    0.0000
     46 H20       -1.2786   -0.5402    4.5809 H         1 RES1    0.0000
     47 H21       -0.2989    0.6626    4.6138 H         1 RES1    0.0000
     48 H22       -2.8740   -0.3711    2.5115 H         1 RES1    0.0000
     49 H23       -2.7174    0.8025    3.5134 H         1 RES1    0.0000
     50 H24       -2.6374    1.0687    1.9867 H         1 RES1    0.0000
     51 H25       -1.4891    5.2135    2.2846 H         1 RES1    0.0000
     52 H26       -2.6739    4.7472    1.3983 H         1 RES1    0.0000
     53 H27       -2.0750    6.1657    1.2075 H         1 RES1    0.0000
     54 H28       -0.0968    6.5776    0.4378 H         1 RES1    0.0000
     55 H29        0.6933    5.6371   -0.5089 H         1 RES1    0.0000
     56 H30       -0.6711    6.2220   -0.9594 H         1 RES1    0.0000
     57 H31       -2.4845    4.4732   -0.8863 H         1 RES1    0.0000
     58 H32       -1.1503    4.0671   -1.5658 H         1 RES1    0.0000
     59 H33       -1.8194    3.1149   -0.5407 H         1 RES1    0.0000
@<TRIPOS>BOND
     1    1    3 1
     2    2    4 ar
     3    3    6 1
     4    4    5 ar
     5    5    6 ar
     6    6    7 ar
     7    7    8 ar
     8    8    2 ar
     9    9    3 1
    10   10    9 ar
    11   11   10 ar
    12   12   11 ar
    13   13   12 ar
    14   14    9 ar
    15   15   10 1
    16   16   15 1
    17   17   15 1
    18   18   15 1
    19   19   12 1
    20   20   19 1
    21   21   19 1
    22   22   19 1
    23   23   14 1
    24   24   23 1
    25   25   23 1
    26   26   23 1
    27   27    4 1
    28   28    5 1
    29   29    7 1
    30   30    8 1
    31   31   11 1
    32   32   13 1
    33   33   16 1
    34   34   16 1
    35   35   16 1
    36   36   17 1
    37   37   17 1
    38   38   17 1
    39   39   18 1
    40   40   18 1
    41   41   18 1
    42   42   20 1
    43   43   20 1
    44   44   20 1
    45   45   21 1
    46   46   21 1
    47   47   21 1
    48   48   22 1
    49   49   22 1
    50   50   22 1
    51   51   24 1
    52   52   24 1
    53   53   24 1
    54   54   25 1
    55   55   25 1
    56   56   25 1
    57   57   26 1
    58   58   26 1
    59   59   26 1
    60   13   14 ar
@<TRIPOS>SUBSTRUCTURE
     1 RES1 1

@<TRIPOS>CRYSIN
   9.9900   19.4317   11.8283  90.0000 116.3259  90.0000  14 1

