# MOL2 file generated by ConQuest
# Please check atom types

@<TRIPOS>MOLECULE
MOCSIH
    51    51     2
SMALL
NO_CHARGES
****
Generated from CSD

@<TRIPOS>ATOM
      1 O1         0.7937    2.7319    3.9520 O.2       1 RES1    0.0000
      2 O2         1.9871    3.1203    2.3028 O.2       1 RES1    0.0000
      3 O3         1.4419    8.0995    4.1744 O.2       1 RES1    0.0000
      4 N1         1.8451    3.0742    3.4668 N.pl3     1 RES1    0.0000
      5 N2         1.5880    4.4129    6.1743 N.3       1 RES1    0.0000
      6 N3         0.5394    6.4444    5.9147 N.pl3     1 RES1    0.0000
      7 H1         0.5406    7.2277    5.5571 H         1 RES1    0.0000
      8 C1         4.6388    2.3944    6.8237 C.ar      1 RES1    0.0000
      9 H2         4.4065    1.6079    6.3862 H         1 RES1    0.0000
     10 C2         5.7869    2.4326    7.5888 C.ar      1 RES1    0.0000
     11 H3         6.3311    1.6812    7.6529 H         1 RES1    0.0000
     12 C3         6.1228    3.5900    8.2569 C.ar      1 RES1    0.0000
     13 H4         6.8849    3.6154    8.7877 H         1 RES1    0.0000
     14 C4         5.3499    4.6741    8.1361 C.ar      1 RES1    0.0000
     15 H5         5.5825    5.4590    8.5790 H         1 RES1    0.0000
     16 C5         4.2052    4.6343    7.3593 C.ar      1 RES1    0.0000
     17 H6         3.6745    5.3953    7.2849 H         1 RES1    0.0000
     18 C6         3.8417    3.4924    6.7003 C.ar      1 RES1    0.0000
     19 C7         2.5892    3.4148    5.8283 C.3       1 RES1    0.0000
     20 H7         2.1860    2.5329    5.9671 H         1 RES1    0.0000
     21 C8         2.9789    3.5167    4.3658 C.3       1 RES1    0.0000
     22 H8         3.7433    2.9245    4.2099 H         1 RES1    0.0000
     23 C9         3.3925    4.9193    4.0226 C.3       1 RES1    0.0000
     24 H9         3.5152    4.9893    3.0622 H         1 RES1    0.0000
     25 H10        4.2429    5.1135    4.4460 H         1 RES1    0.0000
     26 C10        2.3674    5.9429    4.4707 C.2       1 RES1    0.0000
     27 C11        1.4891    5.5895    5.5252 C.2       1 RES1    0.0000
     28 C12        0.6408    4.0357    7.2099 C.3       1 RES1    0.0000
     29 H11        1.0992    3.5040    7.8798 H         1 RES1    0.0000
     30 H12       -0.0525    3.4817    6.8182 H         1 RES1    0.0000
     31 C13        0.0203    5.1804    7.8615 C.3       1 RES1    0.0000
     32 H13        0.6708    5.6118    8.4363 H         1 RES1    0.0000
     33 H14       -0.7132    4.8731    8.4180 H         1 RES1    0.0000
     34 C14       -0.4894    6.1594    6.8878 C.3       1 RES1    0.0000
     35 H15       -1.2734    5.8044    6.4411 H         1 RES1    0.0000
     36 H16       -0.7444    6.9761    7.3453 H         1 RES1    0.0000
     37 C15        2.2617    7.1879    3.8581 C.2       1 RES1    0.0000
     38 C16        3.2042    7.5254    2.7220 C.ar      1 RES1    0.0000
     39 C17        4.4263    8.0619    2.9451 C.ar      1 RES1    0.0000
     40 H17        4.7326    8.1622    3.8164 H         1 RES1    0.0000
     41 C18        5.2401    8.4710    1.8688 C.ar      1 RES1    0.0000
     42 H18        6.0797    8.8388    2.0207 H         1 RES1    0.0000
     43 C19        4.7765    8.3182    0.6168 C.ar      1 RES1    0.0000
     44 H19        5.2982    8.5920   -0.1025 H         1 RES1    0.0000
     45 C20        3.5876    7.7833    0.3954 C.ar      1 RES1    0.0000
     46 H20        3.2921    7.6543   -0.4777 H         1 RES1    0.0000
     47 C21        2.7948    7.4187    1.4423 C.ar      1 RES1    0.0000
     48 H21        1.9440    7.0860    1.2666 H         1 RES1    0.0000
     49 C22       -0.6251    4.7394    7.0415 Du        2 SUP2    0.0000
     50 H22       -1.0771    4.3844    6.2599 Du        2 SUP2    0.0000
     51 H23       -1.1860    4.5611    7.8121 Du        2 SUP2    0.0000
@<TRIPOS>BOND
     1    1    4 2
     2    2    4 2
     3    3   37 2
     4    4   21 1
     5    5   19 1
     6    6    7 1
     7    8    9 1
     8   10    8 ar
     9   11   10 1
    10   12   10 ar
    11   13   12 1
    12   14   12 ar
    13   15   14 1
    14   16   14 ar
    15   17   16 1
    16   18    8 ar
    17   19   18 1
    18   20   19 1
    19   21   19 1
    20   22   21 1
    21   23   21 1
    22   24   23 1
    23   25   23 1
    24   26   23 1
    25   27    5 1
    26   28    5 1
    27   29   28 1
    28   30   28 1
    29   31   28 1
    30   32   31 1
    31   33   31 1
    32   34    6 1
    33   35   34 1
    34   36   34 1
    35   37   26 1
    36   38   37 1
    37   39   38 ar
    38   40   39 1
    39   41   39 ar
    40   42   41 1
    41   43   41 ar
    42   44   43 1
    43   45   43 ar
    44   46   45 1
    45   47   38 ar
    46   48   47 1
    47    6   27 1
    48   16   18 ar
    49   26   27 2
    50   31   34 1
    51   45   47 ar
@<TRIPOS>SUBSTRUCTURE
     1 RES1 1
     2 SUP2 49

@<TRIPOS>CRYSIN
  12.9300   15.9200   18.6120  90.0000 100.4400  90.0000  15 1

