# MOL2 file generated by ConQuest
# Please check atom types

@<TRIPOS>MOLECULE
MODPOL
    22    23     1
SMALL
NO_CHARGES
****
Generated from CSD

@<TRIPOS>ATOM
      1 N1        -1.3323    7.9938    9.1678 N.pl3     1 RES1    0.0000
      2 H1        -2.1596    7.7761    9.2559 H         1 RES1    0.0000
      3 N2         0.8067    7.8440    9.0606 N.2       1 RES1    0.0000
      4 C1        -0.3032    7.1504    9.2517 C.2       1 RES1    0.0000
      5 C2        -0.4133    5.7167    9.5107 C.ar      1 RES1    0.0000
      6 N3        -0.8806    9.2348    8.9236 N.2       1 RES1    0.0000
      7 N4         0.4124    9.1387    8.8536 N.2       1 RES1    0.0000
      8 C3        -1.3677    5.2277   10.3865 C.ar      1 RES1    0.0000
      9 H2        -1.9310    5.8129   10.8398 H         1 RES1    0.0000
     10 C4        -1.4769    3.8571   10.5829 C.ar      1 RES1    0.0000
     11 C5         0.4133    4.8115    8.8440 C.ar      1 RES1    0.0000
     12 H3         1.0636    5.1218    8.2559 H         1 RES1    0.0000
     13 C6         0.2686    3.4584    9.0553 C.ar      1 RES1    0.0000
     14 H4         0.8218    2.8768    8.5871 H         1 RES1    0.0000
     15 C7        -0.6632    2.9212    9.9343 C.ar      1 RES1    0.0000
     16 O1        -3.2207    4.3202   12.0235 O.2       1 RES1    0.0000
     17 O2        -2.6751    2.2734   11.7920 O.2       1 RES1    0.0000
     18 N5        -2.5297    3.4567   11.5351 N.pl3     1 RES1    0.0000
     19 C8        -0.7135    1.4280   10.1137 C.3       1 RES1    0.0000
     20 H5        -0.0454    1.0172    9.5606 H         1 RES1    0.0000
     21 H6        -1.5816    1.1038    9.8610 H         1 RES1    0.0000
     22 H7        -0.5463    1.2108   11.0330 H         1 RES1    0.0000
@<TRIPOS>BOND
     1    1    2 1
     2    3    4 2
     3    4    1 1
     4    5    4 1
     5    6    1 1
     6    7    3 1
     7    8    5 ar
     8    9    8 1
     9   10    8 ar
    10   11    5 ar
    11   12   11 1
    12   13   11 ar
    13   14   13 1
    14   15   10 ar
    15   16   18 2
    16   17   18 2
    17   18   10 1
    18   19   15 1
    19   20   19 1
    20   21   19 1
    21   22   19 1
    22    6    7 2
    23   13   15 ar
@<TRIPOS>SUBSTRUCTURE
     1 RES1 1

@<TRIPOS>CRYSIN
   4.9642   16.9820   10.8040  90.0000 100.7100  90.0000  14 1

