# MOL2 file generated by ConQuest
# Please check atom types

@<TRIPOS>MOLECULE
MOFHIY
   102   105     1
SMALL
NO_CHARGES
****
Generated from CSD

@<TRIPOS>ATOM
      1 O1         6.0560    7.7711   -2.0033 O.3       1 RES1    0.0000
      2 O2         1.1628    8.7433    1.7556 O.2       1 RES1    0.0000
      3 O3         2.4933    7.7753    3.1123 O.2       1 RES1    0.0000
      4 O4         3.3489    3.4862   -1.4345 O.3       1 RES1    0.0000
      5 O5         8.6231    0.2711   -0.5930 O.2       1 RES1    0.0000
      6 O6         7.5160   -1.1280   -1.7851 O.2       1 RES1    0.0000
      7 O7         5.0681    4.2141   -4.0863 O.3       1 RES1    0.0000
      8 O8        -0.7450    5.2514   -6.0574 O.2       1 RES1    0.0000
      9 O9        -0.5980    3.1722   -6.5064 O.2       1 RES1    0.0000
     10 N1         2.2166    8.2022    1.9854 N.pl3     1 RES1    0.0000
     11 N2         7.6247   -0.0636   -1.2127 N.pl3     1 RES1    0.0000
     12 N3        -0.1207    4.2100   -6.0753 N.pl3     1 RES1    0.0000
     13 C1         3.6058    6.5111   -3.6543 C.3       1 RES1    0.0000
     14 C2         2.7634    7.7484   -3.5023 C.3       1 RES1    0.0000
     15 C3         3.4869    8.8506   -2.7573 C.3       1 RES1    0.0000
     16 C4         3.8390    8.4347   -1.3451 C.ar      1 RES1    0.0000
     17 C5         2.9065    8.5387   -0.3282 C.ar      1 RES1    0.0000
     18 C6         3.1833    8.0326    0.9185 C.ar      1 RES1    0.0000
     19 C7         4.3663    7.3768    1.1993 C.ar      1 RES1    0.0000
     20 C8         5.3413    7.2707    0.2137 C.ar      1 RES1    0.0000
     21 C9         5.0722    7.8516   -1.0339 C.ar      1 RES1    0.0000
     22 C10        6.6141    6.4954    0.4490 C.3       1 RES1    0.0000
     23 C11        6.6170    5.1478   -0.2701 C.3       1 RES1    0.0000
     24 C12        5.5629    4.1975    0.2236 C.3       1 RES1    0.0000
     25 C13        5.4984    2.9180   -0.5643 C.ar      1 RES1    0.0000
     26 C14        6.5498    2.0262   -0.5286 C.ar      1 RES1    0.0000
     27 C15        6.4983    0.8680   -1.2691 C.ar      1 RES1    0.0000
     28 C16        5.4090    0.5409   -2.0266 C.ar      1 RES1    0.0000
     29 C17        4.3263    1.4002   -2.0901 C.ar      1 RES1    0.0000
     30 C18        4.3935    2.5907   -1.3469 C.ar      1 RES1    0.0000
     31 C19        3.1043    1.0363   -2.8977 C.3       1 RES1    0.0000
     32 C20        3.4159    0.6345   -4.3474 C.3       1 RES1    0.0000
     33 C21        4.0727    1.7359   -5.1675 C.3       1 RES1    0.0000
     34 C22        3.2816    3.0167   -5.1461 C.ar      1 RES1    0.0000
     35 C23        1.9817    3.0491   -5.6424 C.ar      1 RES1    0.0000
     36 C24        1.2365    4.1976   -5.5369 C.ar      1 RES1    0.0000
     37 C25        1.7150    5.3430   -4.9162 C.ar      1 RES1    0.0000
     38 C26        3.0111    5.3583   -4.4172 C.ar      1 RES1    0.0000
     39 C27        3.7799    4.1905   -4.5755 C.ar      1 RES1    0.0000
     40 C28        6.8921    8.9260   -2.0740 C.3       1 RES1    0.0000
     41 C29        7.9871    8.6640   -3.0238 C.3       1 RES1    0.0000
     42 C30        9.0362    7.7491   -2.5167 C.3       1 RES1    0.0000
     43 C31       10.1776    7.5856   -3.5318 C.3       1 RES1    0.0000
     44 C32        2.3187    3.3178   -0.4981 C.3       1 RES1    0.0000
     45 C33        1.4094    4.4754   -0.6627 C.3       1 RES1    0.0000
     46 C34        0.2970    4.5501    0.3622 C.3       1 RES1    0.0000
     47 C35       -0.5971    5.7253    0.2209 C.3       1 RES1    0.0000
     48 C36        6.0664    4.5422   -5.0879 C.3       1 RES1    0.0000
     49 C37        7.4007    4.5941   -4.4261 C.3       1 RES1    0.0000
     50 C38        7.8649    3.2830   -3.8707 C.3       1 RES1    0.0000
     51 C39        9.1599    3.3473   -3.0837 C.3       1 RES1    0.0000
     52 H1         3.7577    6.0726   -2.7188 H         1 RES1    0.0000
     53 H2         4.5485    6.8382   -4.0872 H         1 RES1    0.0000
     54 H3         1.9284    7.6326   -3.1034 H         1 RES1    0.0000
     55 H4         2.4537    8.1434   -4.3912 H         1 RES1    0.0000
     56 H5         3.0156    9.5375   -2.6562 H         1 RES1    0.0000
     57 H6         4.3382    9.1363   -3.2286 H         1 RES1    0.0000
     58 H7         2.2042    8.9437   -0.4472 H         1 RES1    0.0000
     59 H8         4.5207    7.1152    2.1554 H         1 RES1    0.0000
     60 H9         6.7021    6.2867    1.3862 H         1 RES1    0.0000
     61 H10        7.3991    7.0442    0.1342 H         1 RES1    0.0000
     62 H11        7.4754    4.7485   -0.2057 H         1 RES1    0.0000
     63 H12        6.5886    5.3305   -1.1358 H         1 RES1    0.0000
     64 H13        4.6721    4.5859    0.2057 H         1 RES1    0.0000
     65 H14        5.7250    3.9861    1.1179 H         1 RES1    0.0000
     66 H15        7.1325    2.2253   -0.0268 H         1 RES1    0.0000
     67 H16        5.4260   -0.2601   -2.3342 H         1 RES1    0.0000
     68 H17        2.4445    1.8892   -2.9245 H         1 RES1    0.0000
     69 H18        2.6438    0.2847   -2.4505 H         1 RES1    0.0000
     70 H19        2.5738    0.2632   -4.6327 H         1 RES1    0.0000
     71 H20        3.9488   -0.2852   -4.4628 H         1 RES1    0.0000
     72 H21        4.2095    1.3102   -6.1889 H         1 RES1    0.0000
     73 H22        5.0028    1.9296   -4.8921 H         1 RES1    0.0000
     74 H23        1.5443    2.2184   -6.0189 H         1 RES1    0.0000
     75 H24        1.1961    6.0647   -4.8205 H         1 RES1    0.0000
     76 H25        7.2836    9.0718   -1.1895 H         1 RES1    0.0000
     77 H26        6.4057    9.5344   -2.3342 H         1 RES1    0.0000
     78 H27        8.3326    9.4151   -3.1034 H         1 RES1    0.0000
     79 H28        7.5423    8.1885   -3.6579 H         1 RES1    0.0000
     80 H29        8.5697    6.8881   -2.3164 H         1 RES1    0.0000
     81 H30        9.4169    8.0665   -1.6188 H         1 RES1    0.0000
     82 H31       10.6586    7.0335   -3.5863 H         1 RES1    0.0000
     83 H32        9.7901    7.2951   -4.3197 H         1 RES1    0.0000
     84 H33       10.7502    8.5267   -3.5595 H         1 RES1    0.0000
     85 H34        2.7464    3.3178    0.2504 H         1 RES1    0.0000
     86 H35        1.9704    2.4349   -0.5634 H         1 RES1    0.0000
     87 H36        1.0932    4.5663   -1.4488 H         1 RES1    0.0000
     88 H37        1.2622    5.1665   -0.4293 H         1 RES1    0.0000
     89 H38        0.9107    4.8925    1.0374 H         1 RES1    0.0000
     90 H39       -0.3016    3.6096   -0.0894 H         1 RES1    0.0000
     91 H40       -1.3351    5.4354    0.9480 H         1 RES1    0.0000
     92 H41       -0.0307    6.3685   -0.3488 H         1 RES1    0.0000
     93 H42       -0.8051    5.6884   -0.7691 H         1 RES1    0.0000
     94 H43        5.8542    5.4478   -5.5986 H         1 RES1    0.0000
     95 H44        6.0718    3.8136   -5.8043 H         1 RES1    0.0000
     96 H45        7.3796    5.2281   -3.8099 H         1 RES1    0.0000
     97 H46        8.2026    4.9648   -4.9904 H         1 RES1    0.0000
     98 H47        7.8993    2.5107   -4.4270 H         1 RES1    0.0000
     99 H48        7.1153    3.0838   -3.2912 H         1 RES1    0.0000
    100 H49        9.6366    2.4871   -2.9782 H         1 RES1    0.0000
    101 H50        9.9465    3.7126   -3.5148 H         1 RES1    0.0000
    102 H51        9.0756    3.9431   -2.4147 H         1 RES1    0.0000
@<TRIPOS>BOND
     1    1   21 1
     2    2   10 2
     3    3   10 2
     4    4   30 1
     5    5   11 2
     6    6   11 2
     7    7   39 1
     8    8   12 2
     9    9   12 2
    10   10   18 1
    11   11   27 1
    12   12   36 1
    13   13   14 1
    14   14   15 1
    15   15   16 1
    16   16   17 ar
    17   17   18 ar
    18   18   19 ar
    19   19   20 ar
    20   20   21 ar
    21   21   16 ar
    22   22   20 1
    23   23   22 1
    24   24   23 1
    25   25   24 1
    26   26   25 ar
    27   27   26 ar
    28   28   27 ar
    29   29   28 ar
    30   30   25 ar
    31   31   29 1
    32   32   31 1
    33   33   32 1
    34   34   33 1
    35   35   34 ar
    36   36   35 ar
    37   37   36 ar
    38   38   13 1
    39   39   34 ar
    40   40    1 1
    41   41   40 1
    42   42   41 1
    43   43   42 1
    44   44    4 1
    45   45   44 1
    46   46   45 1
    47   47   46 1
    48   48    7 1
    49   49   48 1
    50   50   49 1
    51   51   50 1
    52   52   13 1
    53   53   13 1
    54   54   14 1
    55   55   14 1
    56   56   15 1
    57   57   15 1
    58   58   17 1
    59   59   19 1
    60   60   22 1
    61   61   22 1
    62   62   23 1
    63   63   23 1
    64   64   24 1
    65   65   24 1
    66   66   26 1
    67   67   28 1
    68   68   31 1
    69   69   31 1
    70   70   32 1
    71   71   32 1
    72   72   33 1
    73   73   33 1
    74   74   35 1
    75   75   37 1
    76   76   40 1
    77   77   40 1
    78   78   41 1
    79   79   41 1
    80   80   42 1
    81   81   42 1
    82   82   43 1
    83   83   43 1
    84   84   43 1
    85   85   44 1
    86   86   44 1
    87   87   45 1
    88   88   45 1
    89   89   46 1
    90   90   46 1
    91   91   47 1
    92   92   47 1
    93   93   47 1
    94   94   48 1
    95   95   48 1
    96   96   49 1
    97   97   49 1
    98   98   50 1
    99   99   50 1
   100  100   51 1
   101  101   51 1
   102  102   51 1
   103   29   30 ar
   104   37   38 ar
   105   38   39 ar
@<TRIPOS>SUBSTRUCTURE
     1 RES1 1

@<TRIPOS>CRYSIN
  11.5880   19.2320    9.3810  95.1600 107.1300  85.2960   2 1

