# MOL2 file generated by ConQuest
# Please check atom types

@<TRIPOS>MOLECULE
MOGHOH
    55    57     1
SMALL
NO_CHARGES
****
Generated from CSD

@<TRIPOS>ATOM
      1 C1         6.7277    7.9129   10.1737 C.3       1 RES1    0.0000
      2 H1         7.2003    7.2312   10.7143 H         1 RES1    0.0000
      3 H2         6.4104    7.4893    9.3366 H         1 RES1    0.0000
      4 C2         5.5413    8.5021   10.9641 C.3       1 RES1    0.0000
      5 H3         4.7175    8.4851   10.4149 H         1 RES1    0.0000
      6 H4         5.3818    7.9795   11.7893 H         1 RES1    0.0000
      7 C3         5.9267    9.9518   11.3110 C.3       1 RES1    0.0000
      8 H5         5.4445   10.5932   10.7303 H         1 RES1    0.0000
      9 H6         5.7172   10.1551   12.2571 H         1 RES1    0.0000
     10 C4         7.4332   10.0185   11.0617 C.3       1 RES1    0.0000
     11 H7         7.9358    9.6993   11.8522 H         1 RES1    0.0000
     12 H8         7.7154   10.9446   10.8549 H         1 RES1    0.0000
     13 C5         7.6642    9.0953    9.8577 C.3       1 RES1    0.0000
     14 C6         7.2230    9.7938    8.5615 C.3       1 RES1    0.0000
     15 H9         6.2349    9.8506    8.5503 H         1 RES1    0.0000
     16 H10        7.5773   10.7180    8.5599 H         1 RES1    0.0000
     17 C7         7.6856    9.0919    7.3021 C.2       1 RES1    0.0000
     18 C8         8.6210    8.1297    7.3272 C.2       1 RES1    0.0000
     19 H11        8.8589    7.7127    6.5078 H         1 RES1    0.0000
     20 C9         9.3095    7.6793    8.5754 C.3       1 RES1    0.0000
     21 H12       10.2763    7.5721    8.3926 H         1 RES1    0.0000
     22 H13        8.9511    6.7962    8.8444 H         1 RES1    0.0000
     23 C10        9.1242    8.6634    9.7202 C.3       1 RES1    0.0000
     24 H14        9.6875    9.4610    9.5604 H         1 RES1    0.0000
     25 H15        9.4219    8.2423   10.5651 H         1 RES1    0.0000
     26 C11        7.0778    9.5151    6.0277 C.2       1 RES1    0.0000
     27 C12        7.6295    9.0489    4.7027 C.3       1 RES1    0.0000
     28 H16        8.5612    8.7448    4.8404 H         1 RES1    0.0000
     29 H17        7.6574    9.8218    4.0850 H         1 RES1    0.0000
     30 C13        6.8403    7.9123    4.0259 C.3       1 RES1    0.0000
     31 H18        6.8385    7.1121    4.6081 H         1 RES1    0.0000
     32 H19        5.9015    8.1942    3.8825 H         1 RES1    0.0000
     33 C14        7.4787    7.5802    2.7068 C.2       1 RES1    0.0000
     34 H20        8.2453    7.0191    2.7116 H         1 RES1    0.0000
     35 C15        7.0434    8.0172    1.5476 C.2       1 RES1    0.0000
     36 H21        6.2793    8.5801    1.5087 H         1 RES1    0.0000
     37 H22        7.4926    7.7703    0.7480 H         1 RES1    0.0000
     38 C16        4.6735   11.8225    4.9808 C.ar      1 RES1    0.0000
     39 C17        3.9345   12.2384    3.8420 C.ar      1 RES1    0.0000
     40 C18        3.1363   13.3762    3.8639 C.ar      1 RES1    0.0000
     41 H23        2.6519   13.6438    3.0920 H         1 RES1    0.0000
     42 C19        3.0632   14.1047    5.0228 C.ar      1 RES1    0.0000
     43 C20        3.7253   13.7044    6.1869 C.ar      1 RES1    0.0000
     44 H24        3.6359   14.2106    6.9852 H         1 RES1    0.0000
     45 C21        4.5022   12.5802    6.1689 C.ar      1 RES1    0.0000
     46 H25        4.9355   12.3002    6.9671 H         1 RES1    0.0000
     47 N1         6.0973   10.3537    6.1390 N.2       1 RES1    0.0000
     48 N2         5.5088   10.7641    4.9629 N.pl3     1 RES1    0.0000
     49 H26        5.6550   10.3643    4.2160 H         1 RES1    0.0000
     50 N3         3.9590   11.4988    2.5997 N.pl3     1 RES1    0.0000
     51 N4         2.3054   15.3432    5.0251 N.pl3     1 RES1    0.0000
     52 O1         4.7718   10.5727    2.4724 O.2       1 RES1    0.0000
     53 O2         3.1698   11.8075    1.7141 O.2       1 RES1    0.0000
     54 O3         1.6844   15.6563    4.0170 O.2       1 RES1    0.0000
     55 O4         2.3259   16.0210    6.0499 O.2       1 RES1    0.0000
@<TRIPOS>BOND
     1    1    2 1
     2    3    1 1
     3    4    1 1
     4    5    4 1
     5    6    4 1
     6    7    4 1
     7    8    7 1
     8    9    7 1
     9   10    7 1
    10   11   10 1
    11   12   10 1
    12   13    1 1
    13   14   13 1
    14   15   14 1
    15   16   14 1
    16   17   14 1
    17   18   17 2
    18   19   18 1
    19   20   18 1
    20   21   20 1
    21   22   20 1
    22   23   13 1
    23   24   23 1
    24   25   23 1
    25   26   17 1
    26   27   26 1
    27   28   27 1
    28   29   27 1
    29   30   27 1
    30   31   30 1
    31   32   30 1
    32   33   30 1
    33   34   33 1
    34   35   33 2
    35   36   35 1
    36   37   35 1
    37   38   39 ar
    38   39   40 ar
    39   40   41 1
    40   42   40 ar
    41   43   42 ar
    42   44   43 1
    43   45   38 ar
    44   46   45 1
    45   47   26 2
    46   48   38 1
    47   49   48 1
    48   50   39 1
    49   51   42 1
    50   52   50 2
    51   53   50 2
    52   54   51 2
    53   55   51 2
    54   10   13 1
    55   20   23 1
    56   43   45 ar
    57   47   48 1
@<TRIPOS>SUBSTRUCTURE
     1 RES1 1

@<TRIPOS>CRYSIN
   9.2591   10.2143   11.6545  78.9130  68.0120  84.1670   2 1

