# MOL2 file generated by ConQuest
# Please check atom types

@<TRIPOS>MOLECULE
MOKBOF
    35    35     1
SMALL
NO_CHARGES
****
Generated from CSD

@<TRIPOS>ATOM
      1 O1         3.1272    7.4355   10.5940 O.2       1 RES1    0.0000
      2 N1         2.7363    8.4640    9.9235 N.3       1 RES1    0.0000
      3 C1         1.6176    9.2559   10.5289 C.3       1 RES1    0.0000
      4 C2         2.1436   10.0031   11.7627 C.3       1 RES1    0.0000
      5 H1         2.6298    9.3791   12.3401 H         1 RES1    0.0000
      6 H2         1.3904   10.3879   12.2587 H         1 RES1    0.0000
      7 H3         2.7466   10.7217   11.4785 H         1 RES1    0.0000
      8 C3         0.5323    8.2635   10.9529 C.3       1 RES1    0.0000
      9 H4         0.2391    7.7474   10.1741 H         1 RES1    0.0000
     10 H5        -0.2296    8.7531   11.3275 H         1 RES1    0.0000
     11 H6         0.8938    7.6548   11.6310 H         1 RES1    0.0000
     12 C4         1.0527   10.2260    9.4872 C.3       1 RES1    0.0000
     13 H7         0.5196    9.7140    8.8298 H         1 RES1    0.0000
     14 H8         0.4433   10.8622    9.9402 H         1 RES1    0.0000
     15 C5         2.1158   11.0057    8.7537 C.3       1 RES1    0.0000
     16 H9         2.6465   11.5676    9.3880 H         1 RES1    0.0000
     17 C6         3.0159   10.0194    8.0151 C.3       1 RES1    0.0000
     18 H10        3.7056   10.5273    7.5181 H         1 RES1    0.0000
     19 H11        2.4709    9.5247    7.3523 H         1 RES1    0.0000
     20 C7         3.7135    9.0086    8.9364 C.3       1 RES1    0.0000
     21 C8         4.8997    9.6305    9.6811 C.3       1 RES1    0.0000
     22 H12        4.6105   10.4540   10.1268 H         1 RES1    0.0000
     23 H13        5.6132    9.8382    9.0430 H         1 RES1    0.0000
     24 H14        5.2334    8.9974   10.3503 H         1 RES1    0.0000
     25 C9         4.2109    7.8359    8.0896 C.3       1 RES1    0.0000
     26 H15        4.7146    7.2140    8.6551 H         1 RES1    0.0000
     27 H16        4.7917    8.1719    7.3760 H         1 RES1    0.0000
     28 H17        3.4442    7.3697    7.6943 H         1 RES1    0.0000
     29 O2         1.4079   11.8284    7.8059 O.3       1 RES1    0.0000
     30 C10        2.1714   12.9092    7.2782 C.3       1 RES1    0.0000
     31 H18        1.7487   13.2248    6.4403 H         1 RES1    0.0000
     32 H19        3.0803   12.5835    7.0547 H         1 RES1    0.0000
     33 C11        2.2818   14.0402    8.2184 C.1       1 RES1    0.0000
     34 C12        2.3637   14.9685    8.9542 C.1       1 RES1    0.0000
     35 H20        2.4296   15.7116    9.5420 H         1 RES1    0.0000
@<TRIPOS>BOND
     1    1    2 1
     2    2    3 1
     3    3    4 1
     4    4    5 1
     5    6    4 1
     6    7    4 1
     7    8    3 1
     8    9    8 1
     9   10    8 1
    10   11    8 1
    11   12    3 1
    12   13   12 1
    13   14   12 1
    14   15   12 1
    15   16   15 1
    16   17   15 1
    17   18   17 1
    18   19   17 1
    19   20    2 1
    20   21   20 1
    21   22   21 1
    22   23   21 1
    23   24   21 1
    24   25   20 1
    25   26   25 1
    26   27   25 1
    27   28   25 1
    28   29   15 1
    29   30   29 1
    30   31   30 1
    31   32   30 1
    32   33   30 1
    33   34   33 3
    34   35   34 1
    35   17   20 1
@<TRIPOS>SUBSTRUCTURE
     1 RES1 1

@<TRIPOS>CRYSIN
   7.9451   10.1792   14.8052  90.0000  90.0000  90.0000  19 1

