# MOL2 file generated by ConQuest
# Please check atom types

@<TRIPOS>MOLECULE
MOKFEY
    63    58     2
SMALL
NO_CHARGES
****
Generated from CSD

@<TRIPOS>ATOM
      1 C1         0.4486    1.2252    0.4702 C.2       1 RES1    0.0000
      2 O1         0.9459    2.2466    1.0987 O.2       1 RES1    0.0000
      3 O2         0.0206    0.0000    5.3157 O.2       1 RES1    0.0000
      4 O3         1.4351    0.0000    6.8686 O.2       1 RES1    0.0000
      5 N1         1.1342    0.0000    5.6206 N.2       1 RES1    0.0000
      6 C2         6.6021    0.0000    2.3906 C.3       1 RES1    0.0000
      7 H1         7.2140    0.0000    1.6244 H         1 RES1    0.0000
      8 H2         6.7579   -0.8005    2.9341 H         1 RES1    0.0000
      9 H3         6.7579    0.8005    2.9341 H         1 RES1    0.0000
     10 O4         5.2693    0.0000    1.9266 O.3       1 RES1    0.0000
     11 N2        -0.4486    1.2252   -0.4702 N.2       1 RES1    0.0000
     12 H4         0.7514    2.0027    0.7483 Du        2 SUP2    0.0000
     13 O5         1.1342    0.0000    5.6206 Du        2 SUP2    0.0000
     14 C3         1.4351    0.0000    6.8686 Du        2 SUP2    0.0000
     15 H5         0.6129    0.0000    7.4023 Du        2 SUP2    0.0000
     16 H6         1.9608    0.8005    7.0778 Du        2 SUP2    0.0000
     17 H7         1.9608   -0.8005    7.0778 Du        2 SUP2    0.0000
     18 O6         6.6021    0.0000    2.3906 Du        2 SUP2    0.0000
     19 N3         5.2693    0.0000    1.9266 Du        2 SUP2    0.0000
     20 O7         5.3512    0.0000    0.9003 Du        2 SUP2    0.0000
     21 C4         2.2167    0.0000    4.6962 C.2       1 RES1    0.0000
     22 C5         3.5084    0.0000    5.1530 C.2       1 RES1    0.0000
     23 H8         3.6860    0.0000    6.0864 H         1 RES1    0.0000
     24 C6         4.5392    0.0000    4.2554 C.2       1 RES1    0.0000
     25 H9         5.4344    0.0000    4.5728 H         1 RES1    0.0000
     26 C7         4.3022    0.0000    2.9055 C.2       1 RES1    0.0000
     27 C8         2.9871    0.0000    2.4487 C.2       1 RES1    0.0000
     28 C9         1.9485    0.0000    3.3328 C.2       1 RES1    0.0000
     29 C10        0.6419    0.0000    2.6194 C.3       1 RES1    0.0000
     30 H10        0.0224    0.5922    2.8787 H         1 RES1    0.0000
     31 C11        0.9971    0.0000    1.1086 C.3       1 RES1    0.0000
     32 C12        2.5429    0.0000    1.0236 C.3       1 RES1    0.0000
     33 H11        2.9017    0.8533    0.5543 H         1 RES1    0.0000
     34 C1D       -0.4486   -1.2252   -0.4702 C.2       1 RES1    0.0000
     35 C1F        0.4486   -1.2252    0.4702 C.2       1 RES1    0.0000
     36 O1B       -0.9459    2.2466   -1.0987 O.2       1 RES1    0.0000
     37 O1F        0.9459   -2.2466    1.0987 O.2       1 RES1    0.0000
     38 O1D       -0.9459   -2.2466   -1.0987 O.2       1 RES1    0.0000
     39 O2D       -0.0206   -0.0000   -5.3157 O.2       1 RES1    0.0000
     40 O3D       -1.4351   -0.0000   -6.8686 O.2       1 RES1    0.0000
     41 N1D       -1.1342   -0.0000   -5.6206 N.2       1 RES1    0.0000
     42 C2D       -6.6021   -0.0000   -2.3906 C.3       1 RES1    0.0000
     43 H1D       -7.2140   -0.0000   -1.6244 H         1 RES1    0.0000
     44 H2B       -6.7579   -0.8005   -2.9341 H         1 RES1    0.0000
     45 H2D       -6.7579    0.8005   -2.9341 H         1 RES1    0.0000
     46 O4D       -5.2693   -0.0000   -1.9266 O.3       1 RES1    0.0000
     47 C4D       -2.2167   -0.0000   -4.6962 C.2       1 RES1    0.0000
     48 C5D       -3.5084   -0.0000   -5.1530 C.2       1 RES1    0.0000
     49 H8D       -3.6860   -0.0000   -6.0864 H         1 RES1    0.0000
     50 C6D       -4.5392   -0.0000   -4.2554 C.2       1 RES1    0.0000
     51 H9D       -5.4344   -0.0000   -4.5728 H         1 RES1    0.0000
     52 C7D       -4.3022   -0.0000   -2.9055 C.2       1 RES1    0.0000
     53 C8D       -2.9871   -0.0000   -2.4487 C.2       1 RES1    0.0000
     54 C9D       -1.9485   -0.0000   -3.3328 C.2       1 RES1    0.0000
     55 C10D      -0.6419   -0.0000   -2.6194 C.3       1 RES1    0.0000
     56 H10F       0.0224   -0.5922    2.8787 H         1 RES1    0.0000
     57 H10B      -0.0224    0.5922   -2.8787 H         1 RES1    0.0000
     58 H10D      -0.0224   -0.5922   -2.8787 H         1 RES1    0.0000
     59 C11D      -0.9971   -0.0000   -1.1086 C.3       1 RES1    0.0000
     60 C12D      -2.5429   -0.0000   -1.0236 C.3       1 RES1    0.0000
     61 H11F       2.9017   -0.8533    0.5543 H         1 RES1    0.0000
     62 H11B      -2.9017    0.8533   -0.5543 H         1 RES1    0.0000
     63 H11D      -2.9017   -0.8533   -0.5543 H         1 RES1    0.0000
@<TRIPOS>BOND
     1    1    2 1
     2    3    5 1
     3    4    5 1
     4    5   21 1
     5    6    7 1
     6    8    6 1
     7    9    6 1
     8   10    6 1
     9   11    1 1
    10   21   22 1
    11   22   23 1
    12   24   22 1
    13   25   24 1
    14   26   10 1
    15   27   26 1
    16   28   21 1
    17   29   28 1
    18   30   29 1
    19   31    1 1
    20   32   27 1
    21   33   32 1
    22   34   35 1
    23   35   31 1
    24   36   11 1
    25   37   35 1
    26   38   34 1
    27   39   41 1
    28   40   41 1
    29   41   47 1
    30   42   43 1
    31   44   42 1
    32   45   42 1
    33   46   42 1
    34   47   48 1
    35   48   49 1
    36   50   48 1
    37   51   50 1
    38   52   46 1
    39   53   52 1
    40   54   47 1
    41   55   54 1
    42   56   29 1
    43   57   55 1
    44   58   55 1
    45   59   11 1
    46   60   53 1
    47   61   32 1
    48   62   60 1
    49   63   60 1
    50   24   26 1
    51   27   28 1
    52   29   31 1
    53   31   32 1
    54   34   59 1
    55   50   52 1
    56   53   54 1
    57   55   59 1
    58   59   60 1
@<TRIPOS>SUBSTRUCTURE
     1 RES1 1
     2 SUP2 12

@<TRIPOS>CRYSIN
  17.1490    6.3680    9.3100  90.0000 106.2070  90.0000  12 1

