# MOL2 file generated by ConQuest
# Please check atom types

@<TRIPOS>MOLECULE
MOKKUT
    21    21     1
SMALL
NO_CHARGES
****
Generated from CSD

@<TRIPOS>ATOM
      1 O1         0.6462    2.9333   13.7056 O.2       1 RES1    0.0000
      2 O2         2.5153    1.7893   14.2533 O.3       1 RES1    0.0000
      3 O3         5.6230    5.2815   13.5560 O.3       1 RES1    0.0000
      4 H1         6.0593    5.6568   12.9710 H         1 RES1    0.0000
      5 O4         6.5845    5.4798   11.1435 O.2       1 RES1    0.0000
      6 O5         6.2276    3.9064    9.7027 O.2       1 RES1    0.0000
      7 N1         5.9995    4.4367   10.7839 N.pl3     1 RES1    0.0000
      8 C1         0.5106    1.1246   15.2982 C.3       1 RES1    0.0000
      9 H2        -0.4271    1.3242   15.3479 H         1 RES1    0.0000
     10 H3         0.9065    1.2257   16.1672 H         1 RES1    0.0000
     11 H4         0.6298    0.2214   14.9948 H         1 RES1    0.0000
     12 C2         1.1680    2.0616   14.3407 C.2       1 RES1    0.0000
     13 C3         3.2884    2.5423   13.3564 C.ar      1 RES1    0.0000
     14 C4         3.3758    2.1147   12.0319 C.ar      1 RES1    0.0000
     15 H5         2.8477    1.4172   11.7176 H         1 RES1    0.0000
     16 C5         4.2711    2.7612   11.2028 C.ar      1 RES1    0.0000
     17 H6         4.3648    2.4862   10.3190 H         1 RES1    0.0000
     18 C6         5.0377    3.8276   11.6855 C.ar      1 RES1    0.0000
     19 C7         4.9188    4.2734   13.0117 C.ar      1 RES1    0.0000
     20 C8         4.0147    3.5966   13.8481 C.ar      1 RES1    0.0000
     21 H7         3.9090    3.8630   14.7334 H         1 RES1    0.0000
@<TRIPOS>BOND
     1    1   12 2
     2    2   12 1
     3    3    4 1
     4    5    7 2
     5    6    7 2
     6    7   18 1
     7    8    9 1
     8   10    8 1
     9   11    8 1
    10   12    8 1
    11   13    2 1
    12   14   13 ar
    13   15   14 1
    14   16   14 ar
    15   17   16 1
    16   18   16 ar
    17   19    3 1
    18   20   13 ar
    19   21   20 1
    20   18   19 ar
    21   19   20 ar
@<TRIPOS>SUBSTRUCTURE
     1 RES1 1

@<TRIPOS>CRYSIN
  10.8810    5.0543   15.3180  90.0000  93.7500  90.0000 231 1

