# MOL2 file generated by ConQuest
# Please check atom types

@<TRIPOS>MOLECULE
MOKLAA
    32    32     1
SMALL
NO_CHARGES
****
Generated from CSD

@<TRIPOS>ATOM
      1 C1         1.2654   10.6291    8.1694 C.ar      1 RES1    0.0000
      2 C2         0.2032   10.5452    9.0933 C.ar      1 RES1    0.0000
      3 H1        -0.1815   11.3091    9.4587 H         1 RES1    0.0000
      4 C3        -0.2316    9.3133    9.4249 C.ar      1 RES1    0.0000
      5 C4         0.2974    8.1554    8.8374 C.ar      1 RES1    0.0000
      6 C5         1.3668    8.2773    7.9304 C.ar      1 RES1    0.0000
      7 H2         1.7554    7.5186    7.5587 H         1 RES1    0.0000
      8 C6         1.8286    9.5190    7.6014 C.ar      1 RES1    0.0000
      9 H3         2.5247    9.6106    6.9917 H         1 RES1    0.0000
     10 C7         0.4067    5.7213    8.9302 C.3       1 RES1    0.0000
     11 H4         1.3774    5.8253    8.8466 H         1 RES1    0.0000
     12 C8         0.0157    4.8023   10.0780 C.3       1 RES1    0.0000
     13 H5         0.2077    5.2349   10.9131 H         1 RES1    0.0000
     14 H6         0.5162    3.9854   10.0182 H         1 RES1    0.0000
     15 H7        -0.9229    4.6073   10.0269 H         1 RES1    0.0000
     16 C9        -0.2203    5.2058    7.6854 C.3       1 RES1    0.0000
     17 H8        -1.1727    5.1669    7.7990 H         1 RES1    0.0000
     18 H9         0.1163    4.3267    7.4974 H         1 RES1    0.0000
     19 H10       -0.0095    5.7915    6.9541 H         1 RES1    0.0000
     20 C10       -1.0650    8.5350   11.4746 C.2       1 RES1    0.0000
     21 C11       -2.2353    7.5692   13.3589 C.3       1 RES1    0.0000
     22 H11       -1.6505    6.8077   13.3538 H         1 RES1    0.0000
     23 H12       -3.1317    7.2827   13.5516 H         1 RES1    0.0000
     24 H13       -1.9464    8.1904   14.0322 H         1 RES1    0.0000
     25 N1         1.7753   11.9506    7.8157 N.pl3     1 RES1    0.0000
     26 N2        -2.2023    8.2128   12.0615 N.am      1 RES1    0.0000
     27 H14       -2.9434    8.3894   11.6628 H         1 RES1    0.0000
     28 O1         1.2048   12.9284    8.2870 O.2       1 RES1    0.0000
     29 O2         2.7492   12.0440    7.0753 O.2       1 RES1    0.0000
     30 O3        -0.2753    6.9953    9.2333 O.3       1 RES1    0.0000
     31 O4        -1.3066    9.1899   10.2845 O.3       1 RES1    0.0000
     32 O5         0.0514    8.3301   11.8969 O.2       1 RES1    0.0000
@<TRIPOS>BOND
     1    1    2 ar
     2    2    3 1
     3    4    2 ar
     4    5    4 ar
     5    6    5 ar
     6    7    6 1
     7    8    1 ar
     8    9    8 1
     9   10   11 1
    10   12   10 1
    11   13   12 1
    12   14   12 1
    13   15   12 1
    14   16   10 1
    15   17   16 1
    16   18   16 1
    17   19   16 1
    18   20   26 1
    19   21   22 1
    20   23   21 1
    21   24   21 1
    22   25    1 1
    23   26   21 1
    24   27   26 1
    25   28   25 2
    26   29   25 2
    27   30    5 1
    28   31    4 1
    29   32   20 2
    30    6    8 ar
    31   10   30 1
    32   20   31 1
@<TRIPOS>SUBSTRUCTURE
     1 RES1 1

@<TRIPOS>CRYSIN
   5.0340   10.4221   12.6319  91.3610  97.4920  94.6930   2 1

