# MOL2 file generated by ConQuest
# Please check atom types

@<TRIPOS>MOLECULE
MOLFID
    39    40     1
SMALL
USER_CHARGES
****
Generated from CSD

@<TRIPOS>ATOM
      1 O1         2.7619    6.8498    8.1844 O.2       1 RES1    0.0000
      2 O2         7.5413    7.6899    4.3326 O.2       1 RES1    0.0000
      3 O3         6.0175    8.7404    3.2226 O.2       1 RES1    0.0000
      4 N1         6.3912    8.0985    4.2030 N.pl3     1 RES1    0.0000
      5 N2         0.8236    7.6867    6.5428 N.pl3     1 RES1    1.0000
      6 N3        -0.2050   10.4250    6.2327 N.3       1 RES1    0.0000
      7 C1         3.5867    7.1679    7.2907 C.2       1 RES1    0.0000
      8 C2         3.1676    7.7259    6.0233 C.2       1 RES1    0.0000
      9 C3         4.1009    8.0238    5.0305 C.2       1 RES1    0.0000
     10 C4         5.4388    7.8110    5.2466 C.2       1 RES1   -1.0000
     11 C5         5.8890    7.2888    6.4717 C.2       1 RES1    0.0000
     12 C6         5.0011    6.9890    7.4534 C.2       1 RES1    0.0000
     13 C7         1.7929    7.9512    5.7423 C.2       1 RES1    0.0000
     14 C8        -0.5672    7.9921    6.2505 C.3       1 RES1    0.0000
     15 C9        -0.9595    9.3378    6.8232 C.3       1 RES1    0.0000
     16 C10       -0.1941   11.6012    7.0824 C.3       1 RES1    0.0000
     17 C11        0.7181   12.6567    6.5305 C.3       1 RES1    0.0000
     18 C12        0.3251   13.0480    5.1352 C.3       1 RES1    0.0000
     19 C13        0.2194   11.8133    4.2711 C.3       1 RES1    0.0000
     20 C14       -0.6766   10.7785    4.9025 C.3       1 RES1    0.0000
     21 H1         3.8150    8.3688    4.2158 H         1 RES1    0.0000
     22 H2         6.7977    7.1487    6.6100 H         1 RES1    0.0000
     23 H3         5.3203    6.6550    8.2599 H         1 RES1    0.0000
     24 H4         1.5783    8.3188    4.9152 H         1 RES1    0.0000
     25 H5         0.9845    7.3254    7.3508 H         1 RES1    0.0000
     26 H6        -1.1358    7.3023    6.6296 H         1 RES1    0.0000
     27 H7        -0.7029    7.9982    5.2908 H         1 RES1    0.0000
     28 H8        -1.9052    9.4865    6.6688 H         1 RES1    0.0000
     29 H9        -0.8116    9.3317    7.7818 H         1 RES1    0.0000
     30 H10        0.1018   11.3526    7.9719 H         1 RES1    0.0000
     31 H11       -1.0931   11.9571    7.1527 H         1 RES1    0.0000
     32 H12        1.6297   12.3228    6.5247 H         1 RES1    0.0000
     33 H13        0.6894   13.4380    7.1031 H         1 RES1    0.0000
     34 H14        0.9877   13.6513    4.7654 H         1 RES1    0.0000
     35 H15       -0.5284   13.5087    5.1525 H         1 RES1    0.0000
     36 H16       -0.1341   12.0571    3.4012 H         1 RES1    0.0000
     37 H17        1.1036   11.4354    4.1386 H         1 RES1    0.0000
     38 H18       -1.5803   11.1258    4.9624 H         1 RES1    0.0000
     39 H19       -0.6965    9.9838    4.3460 H         1 RES1    0.0000
@<TRIPOS>BOND
     1    1    7 2
     2    2    4 2
     3    3    4 2
     4    4   10 1
     5    5   13 2
     6    6   15 1
     7    7    8 1
     8    8    9 un
     9    9   10 un
    10   10   11 un
    11   11   12 un
    12   12    7 1
    13   13    8 1
    14   14    5 1
    15   15   14 1
    16   16    6 1
    17   17   16 1
    18   18   17 1
    19   19   18 1
    20   20    6 1
    21   21    9 1
    22   22   11 1
    23   23   12 1
    24   24   13 1
    25   25    5 1
    26   26   14 1
    27   27   14 1
    28   28   15 1
    29   29   15 1
    30   30   16 1
    31   31   16 1
    32   32   17 1
    33   33   17 1
    34   34   18 1
    35   35   18 1
    36   36   19 1
    37   37   19 1
    38   38   20 1
    39   39   20 1
    40   19   20 1
@<TRIPOS>SUBSTRUCTURE
     1 RES1 1

@<TRIPOS>CRYSIN
  10.5688   12.1887   12.6816  90.0000 114.6960  90.0000  13 1

