# MOL2 file generated by ConQuest
# Please check atom types

@<TRIPOS>MOLECULE
MOLJUT
    47    50     1
SMALL
NO_CHARGES
****
Generated from CSD

@<TRIPOS>ATOM
      1 O1         4.8135    3.9179    4.4013 O.2       1 RES1    0.0000
      2 N1         4.1551    0.4905    5.2848 N.am      1 RES1    0.0000
      3 H1         4.2789   -0.2661    4.9100 H         1 RES1    0.0000
      4 O2         3.2909   -0.4113    7.1642 O.2       1 RES1    0.0000
      5 O3         1.8115   -0.1409    1.4033 O.3       1 RES1    0.0000
      6 N2         3.9813    3.0167    6.2822 N.am      1 RES1    0.0000
      7 H2         3.8377    3.8284    6.6865 H         1 RES1    0.0000
      8 C1         3.3630    1.9541    7.0768 C.3       1 RES1    0.0000
      9 H3         3.8028    1.9656    7.9748 H         1 RES1    0.0000
     10 C2         5.8884   -0.6985    1.8059 C.ar      1 RES1    0.0000
     11 C3         5.2248    0.3084    2.5235 C.ar      1 RES1    0.0000
     12 C4         4.3970    1.5785    4.3448 C.3       1 RES1    0.0000
     13 C5         3.5913    0.5794    6.4879 C.2       1 RES1    0.0000
     14 C6         5.7102    1.2671    3.5894 C.3       1 RES1    0.0000
     15 H4         6.1020    2.0847    3.1908 H         1 RES1    0.0000
     16 H5         6.3779    0.8413    4.1840 H         1 RES1    0.0000
     17 C7         4.4170    2.9278    5.0359 C.2       1 RES1    0.0000
     18 C8         1.0260   -1.0390    0.6281 C.3       1 RES1    0.0000
     19 H6         0.0868   -0.7572    0.6533 H         1 RES1    0.0000
     20 H7         1.1048   -1.9438    0.9946 H         1 RES1    0.0000
     21 H8         1.3433   -1.0336   -0.2994 H         1 RES1    0.0000
     22 C9         1.8816    2.2474    7.3006 C.3       1 RES1    0.0000
     23 H9         1.4871    1.5132    7.8349 H         1 RES1    0.0000
     24 H10        1.7963    3.0815    7.8266 H         1 RES1    0.0000
     25 C10        3.8333   -1.3898    0.8001 C.ar      1 RES1    0.0000
     26 H11        3.3594   -1.9723    0.2182 H         1 RES1    0.0000
     27 C11        3.1502   -0.3720    1.4856 C.ar      1 RES1    0.0000
     28 N3         7.3186   -0.8945    1.9458 N.pl3     1 RES1    0.0000
     29 C12       -0.3473    2.6944    3.6468 C.ar      1 RES1    0.0000
     30 H12       -0.8563    2.7984    2.8509 H         1 RES1    0.0000
     31 C13        3.8637    0.4488    2.3375 C.ar      1 RES1    0.0000
     32 C14        0.3851    3.7510    4.1490 C.ar      1 RES1    0.0000
     33 H13        0.4075    4.5765    3.6790 H         1 RES1    0.0000
     34 O4         7.9765   -0.0248    2.4438 O.2       1 RES1    0.0000
     35 C15        3.3223    1.5465    3.2299 C.3       1 RES1    0.0000
     36 H14        2.4295    1.3148    3.5908 H         1 RES1    0.0000
     37 H15        3.2681    2.4113    2.7515 H         1 RES1    0.0000
     38 O5         7.8125   -1.9221    1.5052 O.2       1 RES1    0.0000
     39 C16        5.1799   -1.5410    0.9694 C.ar      1 RES1    0.0000
     40 H16        5.6358   -2.2341    0.5064 H         1 RES1    0.0000
     41 C17        1.0917    2.3962    6.0178 C.ar      1 RES1    0.0000
     42 C18        1.0896    3.6149    5.3366 C.ar      1 RES1    0.0000
     43 H17        1.5736    4.3540    5.6877 H         1 RES1    0.0000
     44 C19        0.3780    1.3421    5.4863 C.ar      1 RES1    0.0000
     45 H18        0.3742    0.5038    5.9339 H         1 RES1    0.0000
     46 C20       -0.3331    1.4914    4.3085 C.ar      1 RES1    0.0000
     47 H19       -0.8149    0.7536    3.9531 H         1 RES1    0.0000
@<TRIPOS>BOND
     1    1   17 2
     2    2    3 1
     3    4   13 2
     4    5   18 1
     5    6    7 1
     6    8    6 1
     7    9    8 1
     8   10   11 ar
     9   11   14 1
    10   12    2 1
    11   13    2 1
    12   14   12 1
    13   15   14 1
    14   16   14 1
    15   17    6 1
    16   18   19 1
    17   20   18 1
    18   21   18 1
    19   22    8 1
    20   23   22 1
    21   24   22 1
    22   25   26 1
    23   27    5 1
    24   28   10 1
    25   29   30 1
    26   31   11 ar
    27   32   29 ar
    28   33   32 1
    29   34   28 2
    30   35   12 1
    31   36   35 1
    32   37   35 1
    33   38   28 2
    34   39   10 ar
    35   40   39 1
    36   41   22 1
    37   42   32 ar
    38   43   42 1
    39   44   41 ar
    40   45   44 1
    41   46   29 ar
    42   47   46 1
    43    8   13 1
    44   12   17 1
    45   25   27 ar
    46   25   39 ar
    47   27   31 ar
    48   31   35 1
    49   41   42 ar
    50   44   46 ar
@<TRIPOS>SUBSTRUCTURE
     1 RES1 1

@<TRIPOS>CRYSIN
  10.6551    6.0480   13.9914  90.0000  91.1710  90.0000   4 1

