# MOL2 file generated by ConQuest
# Please check atom types

@<TRIPOS>MOLECULE
MOMFUR
    39    41     1
SMALL
NO_CHARGES
****
Generated from CSD

@<TRIPOS>ATOM
      1 N1        12.6461    2.1847    2.9851 N.am      1 RES1    0.0000
      2 O1         6.3447    2.9705    3.5824 O.3       1 RES1    0.0000
      3 N2         5.1011    3.6508    3.5519 N.2       1 RES1    0.0000
      4 O2        13.7419    3.5199    4.5158 O.2       1 RES1    0.0000
      5 O3        12.1732    0.7294    1.2521 O.2       1 RES1    0.0000
      6 C1         5.4415    4.9063    3.4892 C.2       1 RES1    0.0000
      7 N3         6.8074    5.1330    3.4827 N.2       1 RES1    0.0000
      8 C2         7.2902    3.9270    3.5292 C.2       1 RES1    0.0000
      9 C3         4.4175    6.0090    3.3955 C.3       1 RES1    0.0000
     10 C4         3.0437    5.4063    3.1042 C.3       1 RES1    0.0000
     11 H1         3.0865    4.8787    2.2799 H         1 RES1    0.0000
     12 H2         2.3874    6.1256    2.9975 H         1 RES1    0.0000
     13 H3         2.7755    4.8280    3.8491 H         1 RES1    0.0000
     14 C5         4.3826    6.7798    4.7234 C.3       1 RES1    0.0000
     15 H4         4.1331    6.1701    5.4485 H         1 RES1    0.0000
     16 H5         3.7252    7.5030    4.6642 H         1 RES1    0.0000
     17 H6         5.2689    7.1575    4.9053 H         1 RES1    0.0000
     18 C6         4.8149    6.9614    2.2592 C.3       1 RES1    0.0000
     19 H7         5.6965    7.3464    2.4489 H         1 RES1    0.0000
     20 H8         4.1530    7.6796    2.1886 H         1 RES1    0.0000
     21 H9         4.8501    6.4650    1.4146 H         1 RES1    0.0000
     22 C7         8.6848    3.4888    3.4768 C.ar      1 RES1    0.0000
     23 C8         9.7124    4.4275    3.3600 C.ar      1 RES1    0.0000
     24 H10        9.5116    5.3562    3.3787 H         1 RES1    0.0000
     25 C9        11.0273    4.0057    3.2167 C.ar      1 RES1    0.0000
     26 H11       11.7269    4.6406    3.1260 H         1 RES1    0.0000
     27 C10       11.3093    2.6437    3.2077 C.ar      1 RES1    0.0000
     28 C11       10.2963    1.7047    3.3665 C.ar      1 RES1    0.0000
     29 H12       10.5054    0.7786    3.3924 H         1 RES1    0.0000
     30 C12        8.9833    2.1250    3.4865 C.ar      1 RES1    0.0000
     31 H13        8.2864    1.4865    3.5751 H         1 RES1    0.0000
     32 C13       13.7771    2.6864    3.6463 C.2       1 RES1    0.0000
     33 C14       14.9922    1.9736    3.1027 C.3       1 RES1    0.0000
     34 H14       15.4074    1.4082    3.8010 H         1 RES1    0.0000
     35 H15       15.6644    2.6244    2.7792 H         1 RES1    0.0000
     36 C15       14.4736    1.1162    1.9513 C.3       1 RES1    0.0000
     37 H16       14.8441    1.4297    1.0885 H         1 RES1    0.0000
     38 H17       14.7268    0.1674    2.0808 H         1 RES1    0.0000
     39 C16       12.9771    1.2736    1.9732 C.2       1 RES1    0.0000
@<TRIPOS>BOND
     1    1   27 1
     2    2    3 1
     3    3    6 2
     4    4   32 2
     5    5   39 2
     6    6    7 1
     7    7    8 2
     8    8    2 1
     9    9    6 1
    10   10    9 1
    11   11   10 1
    12   12   10 1
    13   13   10 1
    14   14    9 1
    15   15   14 1
    16   16   14 1
    17   17   14 1
    18   18    9 1
    19   19   18 1
    20   20   18 1
    21   21   18 1
    22   22    8 1
    23   23   22 ar
    24   24   23 1
    25   25   23 ar
    26   26   25 1
    27   27   25 ar
    28   28   27 ar
    29   29   28 1
    30   30   22 ar
    31   31   30 1
    32   32    1 1
    33   33   32 1
    34   34   33 1
    35   35   33 1
    36   36   33 1
    37   37   36 1
    38   38   36 1
    39   39    1 1
    40   28   30 ar
    41   36   39 1
@<TRIPOS>SUBSTRUCTURE
     1 RES1 1

@<TRIPOS>CRYSIN
  13.8569   15.3562    6.8926  90.0000  94.9180  90.0000  14 1

