# MOL2 file generated by ConQuest
# Please check atom types

@<TRIPOS>MOLECULE
MOMFIF
    40    41     1
SMALL
NO_CHARGES
****
Generated from CSD

@<TRIPOS>ATOM
      1 O1         9.0959   11.6056    4.9317 O.3       1 RES1    0.0000
      2 N1         4.6876    6.9588    4.6858 N.am      1 RES1    0.0000
      3 H1         4.9090    6.0712    4.7146 H         1 RES1    0.0000
      4 O2         2.9101    8.3827    4.5728 O.2       1 RES1    0.0000
      5 N2        10.3769   12.1739    5.1607 N.2       1 RES1    0.0000
      6 O3        -1.0003    6.6429    5.3093 O.2       1 RES1    0.0000
      7 C1        11.1289   11.1388    5.3908 C.2       1 RES1    0.0000
      8 O4         0.4462    8.2713    4.9578 O.3       1 RES1    0.0000
      9 H2         1.4612    8.3837    4.8053 H         1 RES1    0.0000
     10 N3        10.4646    9.9236    5.3435 N.2       1 RES1    0.0000
     11 C2         9.2466   10.2730    5.0595 C.2       1 RES1    0.0000
     12 C3        12.6014   11.2746    5.6983 C.3       1 RES1    0.0000
     13 C4        13.0054   12.7480    5.6331 C.3       1 RES1    0.0000
     14 H3        12.8524   13.0887    4.7277 H         1 RES1    0.0000
     15 H4        13.9564   12.8364    5.8590 H         1 RES1    0.0000
     16 H5        12.4685   13.2634    6.2711 H         1 RES1    0.0000
     17 C5        12.8722   10.7047    7.0927 C.3       1 RES1    0.0000
     18 H6        12.4153   11.2543    7.7640 H         1 RES1    0.0000
     19 H7        13.8359   10.7107    7.2664 H         1 RES1    0.0000
     20 H8        12.5372    9.7862    7.1405 H         1 RES1    0.0000
     21 C6        13.3984   10.4712    4.6670 C.3       1 RES1    0.0000
     22 H9        13.1074    9.5363    4.6874 H         1 RES1    0.0000
     23 H10       14.3542   10.5215    4.8798 H         1 RES1    0.0000
     24 H11       13.2419   10.8418    3.7727 H         1 RES1    0.0000
     25 C7         8.0554    9.4458    4.8893 C.ar      1 RES1    0.0000
     26 C8         8.1802    8.0600    4.8149 C.ar      1 RES1    0.0000
     27 H12        9.0418    7.6581    4.8325 H         1 RES1    0.0000
     28 C9         7.0465    7.2675    4.7147 C.ar      1 RES1    0.0000
     29 H13        7.1309    6.3235    4.6612 H         1 RES1    0.0000
     30 C10        5.7784    7.8557    4.6921 C.ar      1 RES1    0.0000
     31 C11        5.6457    9.2439    4.7247 C.ar      1 RES1    0.0000
     32 H14        4.7885    9.6479    4.6824 H         1 RES1    0.0000
     33 C12        6.7881   10.0218    4.8206 C.ar      1 RES1    0.0000
     34 H15        6.7050   10.9679    4.8395 H         1 RES1    0.0000
     35 C13        3.3704    7.2364    4.6808 C.2       1 RES1    0.0000
     36 C14        2.5240    6.0256    4.8179 C.2       1 RES1    0.0000
     37 H16        2.9812    5.1928    4.7801 H         1 RES1    0.0000
     38 C15        1.1992    5.9557    4.9883 C.2       1 RES1    0.0000
     39 H17        0.8672    5.0690    5.0551 H         1 RES1    0.0000
     40 C16        0.1463    7.0049    5.0939 C.2       1 RES1    0.0000
@<TRIPOS>BOND
     1    1    5 1
     2    2    3 1
     3    4   35 2
     4    5    7 2
     5    6   40 2
     6    7   10 1
     7    8    9 1
     8   10   11 2
     9   11    1 1
    10   12    7 1
    11   13   12 1
    12   14   13 1
    13   15   13 1
    14   16   13 1
    15   17   12 1
    16   18   17 1
    17   19   17 1
    18   20   17 1
    19   21   12 1
    20   22   21 1
    21   23   21 1
    22   24   21 1
    23   25   11 1
    24   26   25 ar
    25   27   26 1
    26   28   26 ar
    27   29   28 1
    28   30    2 1
    29   31   30 ar
    30   32   31 1
    31   33   25 ar
    32   34   33 1
    33   35    2 1
    34   36   35 1
    35   37   36 1
    36   38   36 2
    37   39   38 1
    38   40    8 1
    39   28   30 ar
    40   31   33 ar
    41   38   40 1
@<TRIPOS>SUBSTRUCTURE
     1 RES1 1

@<TRIPOS>CRYSIN
  28.0192   28.0192   10.0740  90.0000  90.0000 120.0000 233 1

