# MOL2 file generated by ConQuest
# Please check atom types

@<TRIPOS>MOLECULE
MOMHAZ
    35    38     1
SMALL
NO_CHARGES
****
Generated from CSD

@<TRIPOS>ATOM
      1 C1         2.9585    3.6502    4.5918 C.2       1 RES1    0.0000
      2 C2         3.9497    3.1779    5.5666 C.ar      1 RES1    0.0000
      3 C3         4.4792    1.7781    7.4466 C.ar      1 RES1    0.0000
      4 H1         4.2084    1.1772    8.1026 H         1 RES1    0.0000
      5 C4         5.7881    2.1684    7.3599 C.ar      1 RES1    0.0000
      6 C5         3.5652    2.2895    6.5432 C.ar      1 RES1    0.0000
      7 H2         2.6745    2.0284    6.5977 H         1 RES1    0.0000
      8 C6         0.0783    5.5292    1.6442 C.ar      1 RES1    0.0000
      9 H3        -0.5102    5.4053    2.3537 H         1 RES1    0.0000
     10 C7         2.2756    5.2535    0.7075 C.ar      1 RES1    0.0000
     11 N1         0.9839    3.6905    3.6672 N.2       1 RES1    0.0000
     12 C8         1.3809    5.1017    1.7464 C.ar      1 RES1    0.0000
     13 C9         5.2894    3.5343    5.5004 C.ar      1 RES1    0.0000
     14 H4         5.5720    4.1261    4.8409 H         1 RES1    0.0000
     15 C10        3.0649    4.4781    3.4982 C.2       1 RES1    0.0000
     16 C11        6.2058    3.0294    6.3911 C.ar      1 RES1    0.0000
     17 H5         7.1008    3.2728    6.3318 H         1 RES1    0.0000
     18 C12       -0.3506    6.1386    0.4970 C.ar      1 RES1    0.0000
     19 H6        -1.2329    6.4224    0.4227 H         1 RES1    0.0000
     20 C13        1.8160    5.8900   -0.4343 C.ar      1 RES1    0.0000
     21 H7         2.4008    6.0228   -1.1449 H         1 RES1    0.0000
     22 C14        0.5220    6.3301   -0.5423 C.ar      1 RES1    0.0000
     23 H8         0.2371    6.7570   -1.3179 H         1 RES1    0.0000
     24 C15        3.6751    4.7234    0.7931 C.3       1 RES1    0.0000
     25 H9         3.6401    3.7796    1.0149 H         1 RES1    0.0000
     26 H10        4.0966    4.8069   -0.0766 H         1 RES1    0.0000
     27 C16        4.1258    5.3408    2.9772 C.3       1 RES1    0.0000
     28 H11        3.8882    6.2463    3.2315 H         1 RES1    0.0000
     29 H12        4.9268    5.1174    3.4765 H         1 RES1    0.0000
     30 O1         7.9282    1.9719    8.1991 O.2       1 RES1    0.0000
     31 O2         6.3858    0.7809    9.1061 O.2       1 RES1    0.0000
     32 O3         4.4707    5.3933    1.7552 O.3       1 RES1    0.0000
     33 N2         1.8222    4.4683    2.9475 N.pl3     1 RES1    0.0000
     34 N3         1.6714    3.2057    4.6594 N.2       1 RES1    0.0000
     35 N4         6.7696    1.5998    8.2854 N.pl3     1 RES1    0.0000
@<TRIPOS>BOND
     1    1    2 1
     2    2    6 ar
     3    3    4 1
     4    5    3 ar
     5    6    3 ar
     6    7    6 1
     7    8    9 1
     8   10   12 ar
     9   11   33 1
    10   12    8 ar
    11   13    2 ar
    12   14   13 1
    13   15    1 2
    14   16    5 ar
    15   17   16 1
    16   18    8 ar
    17   19   18 1
    18   20   10 ar
    19   21   20 1
    20   22   18 ar
    21   23   22 1
    22   24   10 1
    23   25   24 1
    24   26   24 1
    25   27   15 1
    26   28   27 1
    27   29   27 1
    28   30   35 2
    29   31   35 2
    30   32   24 1
    31   33   12 1
    32   34    1 1
    33   35    5 1
    34   11   34 2
    35   13   16 ar
    36   15   33 1
    37   20   22 ar
    38   27   32 1
@<TRIPOS>SUBSTRUCTURE
     1 RES1 1

@<TRIPOS>CRYSIN
   7.7496    7.9699   12.4477  74.2500  72.2120  73.1350   2 1

