# MOL2 file generated by ConQuest
# Please check atom types

@<TRIPOS>MOLECULE
MOMLIL
    45    46     2
SMALL
NO_CHARGES
****
Generated from CSD

@<TRIPOS>ATOM
      1 O1         3.5412   12.2768   11.5542 O.2       1 RES1    0.0000
      2 O2         2.6314   12.6936    9.6340 O.2       1 RES1    0.0000
      3 N1         3.0376   11.9497   10.4973 N.pl3     1 RES1    0.0000
      4 N2         1.5798    5.8593    8.8029 N.am      1 RES1    0.0000
      5 H1         1.7706    6.3150    8.0983 H         1 RES1    0.0000
      6 C1         2.4602    8.3700   11.2775 C.ar      1 RES1    0.0000
      7 H2         2.5449    7.7876   11.9972 H         1 RES1    0.0000
      8 C2         2.8274    9.6841   11.4258 C.ar      1 RES1    0.0000
      9 H3         3.1782    9.9952   12.2286 H         1 RES1    0.0000
     10 C3         2.6616   10.5206   10.3594 C.ar      1 RES1    0.0000
     11 C4         2.1735   10.0951    9.1618 C.ar      1 RES1    0.0000
     12 H4         2.0700   10.6920    8.4553 H         1 RES1    0.0000
     13 C5         1.8365    8.7696    9.0144 C.ar      1 RES1    0.0000
     14 H5         1.5197    8.4616    8.1965 H         1 RES1    0.0000
     15 C6         1.9662    7.8962   10.0742 C.ar      1 RES1    0.0000
     16 C7         1.5540    6.4635   10.0109 C.2       1 RES1    0.0000
     17 C8         1.2956    4.4864    8.6980 C.2       1 RES1    0.0000
     18 C9         1.9214    3.6084    9.7361 C.2       1 RES1    0.0000
     19 C10        1.1407    2.4619   10.2574 C.ar      1 RES1    0.0000
     20 C11       -0.2405    2.4805   10.3122 C.ar      1 RES1    0.0000
     21 H6        -0.7067    3.2325   10.0298 H         1 RES1    0.0000
     22 C12       -0.9250    1.3792   10.7864 C.ar      1 RES1    0.0000
     23 H7        -1.8534    1.3937   10.8355 H         1 RES1    0.0000
     24 C13       -0.2317    0.2587   11.1849 C.ar      1 RES1    0.0000
     25 H8        -0.6946   -0.4934   11.4787 H         1 RES1    0.0000
     26 C14        1.1290    0.2442   11.1509 C.ar      1 RES1    0.0000
     27 H9         1.5913   -0.5112   11.4362 H         1 RES1    0.0000
     28 C15        1.8200    1.3373   10.6995 C.ar      1 RES1    0.0000
     29 H10        2.7497    1.3251   10.6891 H         1 RES1    0.0000
     30 C16        0.7148    3.9012    7.6458 C.2       1 RES1    0.0000
     31 H11        0.6469    2.9782    7.7261 H         1 RES1    0.0000
     32 C17        0.1641    4.4205    6.3981 C.ar      1 RES1    0.0000
     33 C18       -0.2434    5.7344    6.2083 C.ar      1 RES1    0.0000
     34 H12       -0.1638    6.3506    6.9016 H         1 RES1    0.0000
     35 C19       -0.7688    6.1306    4.9889 C.ar      1 RES1    0.0000
     36 H13       -1.0485    7.0093    4.8699 H         1 RES1    0.0000
     37 C20       -0.8774    5.2364    3.9585 C.ar      1 RES1    0.0000
     38 H14       -1.2113    5.5164    3.1367 H         1 RES1    0.0000
     39 C21       -0.4998    3.9408    4.1294 C.ar      1 RES1    0.0000
     40 H15       -0.5905    3.3343    3.4305 H         1 RES1    0.0000
     41 C22        0.0204    3.5281    5.3459 C.ar      1 RES1    0.0000
     42 H16        0.2770    2.6399    5.4583 H         1 RES1    0.0000
     43 O3         1.1948    5.8641   11.0178 O.2       1 RES1    0.0000
     44 O4         3.0750    3.8030   10.0723 O.2       1 RES1    0.0000
     45 O5         3.0883   12.7190    9.5679 Du        2 SUP2    0.0000
@<TRIPOS>BOND
     1    1    3 2
     2    2    3 2
     3    3   10 1
     4    4    5 1
     5    6    7 1
     6    8    6 ar
     7    9    8 1
     8   10    8 ar
     9   11   10 ar
    10   12   11 1
    11   13   11 ar
    12   14   13 1
    13   15    6 ar
    14   16    4 1
    15   17    4 1
    16   18   17 1
    17   19   18 1
    18   20   19 ar
    19   21   20 1
    20   22   20 ar
    21   23   22 1
    22   24   22 ar
    23   25   24 1
    24   26   24 ar
    25   27   26 1
    26   28   19 ar
    27   29   28 1
    28   30   17 2
    29   31   30 1
    30   32   30 1
    31   33   32 ar
    32   34   33 1
    33   35   33 ar
    34   36   35 1
    35   37   35 ar
    36   38   37 1
    37   39   37 ar
    38   40   39 1
    39   41   32 ar
    40   42   41 1
    41   43   16 2
    42   44   18 2
    43   13   15 ar
    44   15   16 1
    45   26   28 ar
    46   39   41 ar
@<TRIPOS>SUBSTRUCTURE
     1 RES1 1
     2 SUP2 45

@<TRIPOS>CRYSIN
   7.6429   25.4330    9.9223  90.0000 107.8410  90.0000  14 1

