# MOL2 file generated by ConQuest
# Please check atom types

@<TRIPOS>MOLECULE
MOMWOC
    49    51     1
SMALL
NO_CHARGES
****
Generated from CSD

@<TRIPOS>ATOM
      1 C1         2.0117    1.4188    5.1223 C.2       1 RES1    0.0000
      2 C2         2.7733    0.7567    6.2527 C.3       1 RES1    0.0000
      3 H1         2.1482    0.4897    6.9851 H         1 RES1    0.0000
      4 C3         3.3372   -0.4748    5.5631 C.ar      1 RES1    0.0000
      5 C4         3.9177   -1.6157    6.0890 C.ar      1 RES1    0.0000
      6 H2         4.0002   -1.7243    7.0299 H         1 RES1    0.0000
      7 C5         4.3780   -2.6015    5.2249 C.ar      1 RES1    0.0000
      8 H3         4.7769   -3.3888    5.5775 H         1 RES1    0.0000
      9 C6         4.2605   -2.4440    3.8509 C.ar      1 RES1    0.0000
     10 H4         4.5852   -3.1259    3.2744 H         1 RES1    0.0000
     11 C7         3.6780   -1.3094    3.3029 C.ar      1 RES1    0.0000
     12 H5         3.6080   -1.1976    2.3619 H         1 RES1    0.0000
     13 C8         3.2011   -0.3449    4.1779 C.ar      1 RES1    0.0000
     14 C9         2.2028    1.3732    2.6626 C.2       1 RES1    0.0000
     15 C10        1.4454    2.6708    2.7138 C.3       1 RES1    0.0000
     16 H6         0.9780    2.8007    1.8514 H         1 RES1    0.0000
     17 H7         2.0921    3.4125    2.8197 H         1 RES1    0.0000
     18 C11        0.4238    2.7471    3.8399 C.3       1 RES1    0.0000
     19 H8         0.0983    3.6778    3.9241 H         1 RES1    0.0000
     20 H9        -0.3513    2.1708    3.6209 H         1 RES1    0.0000
     21 C12        1.0212    2.3031    5.1553 C.2       1 RES1    0.0000
     22 C13        0.4163    2.7928    6.4456 C.3       1 RES1    0.0000
     23 H10        0.1129    3.7282    6.3277 H         1 RES1    0.0000
     24 H11        1.1087    2.7849    7.1537 H         1 RES1    0.0000
     25 C14       -0.7628    1.9346    6.8892 C.3       1 RES1    0.0000
     26 H12       -1.4310    1.9015    6.1730 H         1 RES1    0.0000
     27 H13       -1.1661    2.3235    7.6935 H         1 RES1    0.0000
     28 H14       -0.4507    1.0267    7.0871 H         1 RES1    0.0000
     29 C15        3.8567    1.7125    6.7909 C.3       1 RES1    0.0000
     30 H15        4.5797    1.7865    6.1189 H         1 RES1    0.0000
     31 H16        3.4600    2.6125    6.9077 H         1 RES1    0.0000
     32 C16        4.4497    1.2700    8.0972 C.2       1 RES1    0.0000
     33 C17        5.4084    2.1818    8.7924 C.2       1 RES1    0.0000
     34 C18        6.0283    1.6716   10.0728 C.2       1 RES1    0.0000
     35 C19        7.8378    0.4464   10.9583 C.3       1 RES1    0.0000
     36 H17        8.1601    1.1748   11.5294 H         1 RES1    0.0000
     37 H18        8.5977   -0.0921   10.6539 H         1 RES1    0.0000
     38 H19        7.2205   -0.1189   11.4675 H         1 RES1    0.0000
     39 C20        6.6248    5.4021    8.6201 C.3       1 RES1    0.0000
     40 H20        6.7166    5.4077    7.6440 H         1 RES1    0.0000
     41 H21        7.4041    5.8368    9.0252 H         1 RES1    0.0000
     42 H22        5.8114    5.8872    8.8736 H         1 RES1    0.0000
     43 N1         2.4839    0.8413    3.8917 N.am      1 RES1    0.0000
     44 N2         5.6189    3.3492    8.3140 N.2       1 RES1    0.0000
     45 O1         2.5687    0.8478    1.6187 O.2       1 RES1    0.0000
     46 O2         4.1934    0.2068    8.6336 O.2       1 RES1    0.0000
     47 O3         5.5513    1.8343   11.1562 O.2       1 RES1    0.0000
     48 O4         7.1461    1.0026    9.8062 O.3       1 RES1    0.0000
     49 O5         6.5385    4.0476    9.0841 O.3       1 RES1    0.0000
@<TRIPOS>BOND
     1    1    2 1
     2    2    3 1
     3    4    2 1
     4    5    4 ar
     5    6    5 1
     6    7    5 ar
     7    8    7 1
     8    9    7 ar
     9   10    9 1
    10   11    9 ar
    11   12   11 1
    12   13    4 ar
    13   14   15 1
    14   15   16 1
    15   17   15 1
    16   18   15 1
    17   19   18 1
    18   20   18 1
    19   21    1 2
    20   22   21 1
    21   23   22 1
    22   24   22 1
    23   25   22 1
    24   26   25 1
    25   27   25 1
    26   28   25 1
    27   29    2 1
    28   30   29 1
    29   31   29 1
    30   32   29 1
    31   33   32 1
    32   34   33 1
    33   35   36 1
    34   37   35 1
    35   38   35 1
    36   39   40 1
    37   41   39 1
    38   42   39 1
    39   43    1 1
    40   44   33 2
    41   45   14 2
    42   46   32 2
    43   47   34 2
    44   48   34 1
    45   49   39 1
    46   11   13 ar
    47   13   43 1
    48   14   43 1
    49   18   21 1
    50   35   48 1
    51   44   49 1
@<TRIPOS>SUBSTRUCTURE
     1 RES1 1

@<TRIPOS>CRYSIN
  15.2319    7.8737   15.4675  90.0000  90.2330  90.0000  14 1

