# MOL2 file generated by ConQuest
# Please check atom types

@<TRIPOS>MOLECULE
MOMXAP
    50    53     1
SMALL
NO_CHARGES
****
Generated from CSD

@<TRIPOS>ATOM
      1 C1         3.7593    2.9708    5.6881 C.ar      1 RES1    0.0000
      2 C2         4.4973    3.5442    6.7083 C.ar      1 RES1    0.0000
      3 H1         5.4404    3.4385    6.7481 H         1 RES1    0.0000
      4 C3         3.8277    4.2683    7.6595 C.ar      1 RES1    0.0000
      5 H2         4.3126    4.6567    8.3781 H         1 RES1    0.0000
      6 C4         2.4489    4.4429    7.5884 C.ar      1 RES1    0.0000
      7 H3         2.0018    4.9388    8.2650 H         1 RES1    0.0000
      8 C5         1.7253    3.9054    6.5488 C.ar      1 RES1    0.0000
      9 H4         0.7875    4.0503    6.4939 H         1 RES1    0.0000
     10 C6         2.3744    3.1492    5.5814 C.ar      1 RES1    0.0000
     11 C7         1.9176    2.3780    4.4460 C.2       1 RES1    0.0000
     12 C8         0.4767    2.3652    4.0032 C.3       1 RES1    0.0000
     13 C9        -0.0193    3.8263    3.8858 C.2       1 RES1    0.0000
     14 C10        0.4698    5.9478    2.9539 C.3       1 RES1    0.0000
     15 H5         1.0799    6.3530    2.3022 H         1 RES1    0.0000
     16 H6         0.6065    6.3640    3.8308 H         1 RES1    0.0000
     17 H7        -0.4565    6.0892    2.6663 H         1 RES1    0.0000
     18 C11       -0.8738    2.6306    0.8446 C.3       1 RES1    0.0000
     19 H8        -1.7483    2.9255    0.5139 H         1 RES1    0.0000
     20 H9        -0.5500    1.8887    0.2930 H         1 RES1    0.0000
     21 H10       -0.2376    3.3744    0.7972 H         1 RES1    0.0000
     22 C12        0.4733    0.3972    2.4638 C.2       1 RES1    0.0000
     23 C13        1.7717   -0.1751    2.9561 C.3       1 RES1    0.0000
     24 H11        1.9337   -1.0204    2.4691 H         1 RES1    0.0000
     25 H12        1.6577   -0.4067    3.9127 H         1 RES1    0.0000
     26 C14        3.0440    0.6972    2.8279 C.3       1 RES1    0.0000
     27 C15        3.1664    1.3519    1.4360 C.3       1 RES1    0.0000
     28 H13        2.5088    2.0884    1.3746 H         1 RES1    0.0000
     29 H14        4.0701    1.7495    1.3520 H         1 RES1    0.0000
     30 C16        2.9425    0.3972    0.2661 C.3       1 RES1    0.0000
     31 H15        3.0360    0.8866   -0.5774 H         1 RES1    0.0000
     32 H16        2.0414    0.0165    0.3243 H         1 RES1    0.0000
     33 H17        3.6046   -0.3242    0.3016 H         1 RES1    0.0000
     34 C17        4.2554   -0.2163    3.1295 C.3       1 RES1    0.0000
     35 H18        4.0624   -0.7529    3.9386 H         1 RES1    0.0000
     36 H19        4.3841   -0.8427    2.3743 H         1 RES1    0.0000
     37 C18        5.5467    0.5727    3.3514 C.3       1 RES1    0.0000
     38 H20        6.2758   -0.0568    3.5788 H         1 RES1    0.0000
     39 H21        5.7947    1.0314    2.5090 H         1 RES1    0.0000
     40 C19        5.4221    1.5875    4.4406 C.2       1 RES1    0.0000
     41 C20        2.9877    1.7289    3.9203 C.2       1 RES1    0.0000
     42 N1         4.1408    2.0796    4.6550 N.am      1 RES1    0.0000
     43 N2         0.2761    1.7736    2.6728 N.am      1 RES1    0.0000
     44 O1         6.3551    1.9796    5.1107 O.2       1 RES1    0.0000
     45 O2         0.7363    4.5264    3.0466 O.3       1 RES1    0.0000
     46 O3        -0.9216    4.2603    4.5332 O.2       1 RES1    0.0000
     47 O4        -1.0012    2.1946    2.2086 O.3       1 RES1    0.0000
     48 O5        -0.3171   -0.2720    1.8389 O.2       1 RES1    0.0000
     49 O6        -0.2579    1.6971    4.9892 O.3       1 RES1    0.0000
     50 H22       -1.0740    1.8740    4.8984 H         1 RES1    0.0000
@<TRIPOS>BOND
     1    1    2 ar
     2    2    3 1
     3    4    2 ar
     4    5    4 1
     5    6    4 ar
     6    7    6 1
     7    8    6 ar
     8    9    8 1
     9   10    1 ar
    10   11   10 1
    11   12   11 1
    12   13   12 1
    13   14   15 1
    14   16   14 1
    15   17   14 1
    16   18   19 1
    17   20   18 1
    18   21   18 1
    19   22   23 1
    20   23   24 1
    21   25   23 1
    22   26   23 1
    23   27   26 1
    24   28   27 1
    25   29   27 1
    26   30   27 1
    27   31   30 1
    28   32   30 1
    29   33   30 1
    30   34   26 1
    31   35   34 1
    32   36   34 1
    33   37   34 1
    34   38   37 1
    35   39   37 1
    36   40   37 1
    37   41   11 2
    38   42    1 1
    39   43   12 1
    40   44   40 2
    41   45   13 1
    42   46   13 2
    43   47   18 1
    44   48   22 2
    45   49   12 1
    46   50   49 1
    47    8   10 ar
    48   14   45 1
    49   22   43 1
    50   26   41 1
    51   40   42 1
    52   41   42 1
    53   43   47 1
@<TRIPOS>SUBSTRUCTURE
     1 RES1 1

@<TRIPOS>CRYSIN
   9.3854   18.3190   11.4340  90.0000 109.5790  90.0000  14 1

