# MOL2 file generated by ConQuest
# Please check atom types

@<TRIPOS>MOLECULE
MOMXIX
    50    52     1
SMALL
NO_CHARGES
****
Generated from CSD

@<TRIPOS>ATOM
      1 O1         8.6571   13.5448    5.6218 O.2       1 RES1    0.0000
      2 O2         6.7238   10.9476    1.1895 O.2       1 RES1    0.0000
      3 O3         7.4299    9.6169   -0.4295 O.3       1 RES1    0.0000
      4 H1         6.6254    9.5539   -0.5742 H         1 RES1    0.0000
      5 O4         9.4482    6.5284    1.9900 O.3       1 RES1    0.0000
      6 O5         6.2638    7.6790    2.4829 O.2       1 RES1    0.0000
      7 O6         7.2886    6.1652    3.7837 O.3       1 RES1    0.0000
      8 N1         8.4254   11.5652    4.5273 N.am      1 RES1    0.0000
      9 N2         9.5943    7.7535    2.6594 N.2       1 RES1    0.0000
     10 C1         7.7761   10.8625    5.5662 C.ar      1 RES1    0.0000
     11 C2         7.7353    9.5162    5.2014 C.ar      1 RES1    0.0000
     12 C3         7.1213    8.5930    6.0478 C.ar      1 RES1    0.0000
     13 H2         7.1039    7.6880    5.8316 H         1 RES1    0.0000
     14 C4         6.5413    9.0495    7.2086 C.ar      1 RES1    0.0000
     15 H3         6.1221    8.4476    7.7808 H         1 RES1    0.0000
     16 C5         6.5744   10.3947    7.5372 C.ar      1 RES1    0.0000
     17 H4         6.1693   10.6754    8.3251 H         1 RES1    0.0000
     18 C6         7.1900   11.3312    6.7313 C.ar      1 RES1    0.0000
     19 H5         7.2106   12.2331    6.9596 H         1 RES1    0.0000
     20 C7         8.3799    9.3993    3.9082 C.2       1 RES1    0.0000
     21 C8         8.7676   10.6428    3.5081 C.2       1 RES1    0.0000
     22 C9         9.4734   11.1767    2.2748 C.3       1 RES1    0.0000
     23 C10        9.1317   12.6775    2.1382 C.3       1 RES1    0.0000
     24 H6         9.6249   13.0486    1.3891 H         1 RES1    0.0000
     25 H7         8.1855   12.7720    1.9475 H         1 RES1    0.0000
     26 C11        9.4658   13.4584    3.3860 C.3       1 RES1    0.0000
     27 H8        10.4276   13.4594    3.5097 H         1 RES1    0.0000
     28 H9         9.1824   14.3786    3.2674 H         1 RES1    0.0000
     29 C12        8.8219   12.9083    4.6099 C.2       1 RES1    0.0000
     30 C13       10.9977   10.9652    2.5037 C.3       1 RES1    0.0000
     31 H10       11.2154   11.2743    3.3964 H         1 RES1    0.0000
     32 H11       11.1786   10.0124    2.4746 H         1 RES1    0.0000
     33 C14       11.9329   11.6556    1.5220 C.3       1 RES1    0.0000
     34 H12       11.6512   11.4654    0.6245 H         1 RES1    0.0000
     35 H13       12.8276   11.3322    1.6518 H         1 RES1    0.0000
     36 H14       11.9102   12.6032    1.6707 H         1 RES1    0.0000
     37 C15        9.0728   10.4497    0.9788 C.3       1 RES1    0.0000
     38 H15        9.5388   10.8808    0.2454 H         1 RES1    0.0000
     39 H16        9.4090    9.5417    1.0351 H         1 RES1    0.0000
     40 C16        7.6266   10.3744    0.6126 C.2       1 RES1    0.0000
     41 C17        8.4813    8.1110    3.1976 C.2       1 RES1    0.0000
     42 C18       10.6525    6.1923    1.3181 C.3       1 RES1    0.0000
     43 H17       11.0539    6.9895    0.9643 H         1 RES1    0.0000
     44 H18       10.4593    5.5853    0.5994 H         1 RES1    0.0000
     45 H19       11.2576    5.7754    1.9350 H         1 RES1    0.0000
     46 C19        7.2196    7.2894    3.0895 C.2       1 RES1    0.0000
     47 C20        6.0886    5.3474    3.7991 C.3       1 RES1    0.0000
     48 H20        5.3464    5.8720    4.1090 H         1 RES1    0.0000
     49 H21        6.2189    4.5980    4.3843 H         1 RES1    0.0000
     50 H22        5.9058    5.0301    2.9103 H         1 RES1    0.0000
@<TRIPOS>BOND
     1    1   29 2
     2    2   40 2
     3    3    4 1
     4    5    9 1
     5    6   46 2
     6    7   46 1
     7    8   10 1
     8    9   41 2
     9   10   11 ar
    10   11   12 ar
    11   12   13 1
    12   14   12 ar
    13   15   14 1
    14   16   14 ar
    15   17   16 1
    16   18   10 ar
    17   19   18 1
    18   20   11 1
    19   21    8 1
    20   22   21 1
    21   23   22 1
    22   24   23 1
    23   25   23 1
    24   26   23 1
    25   27   26 1
    26   28   26 1
    27   29    8 1
    28   30   22 1
    29   31   30 1
    30   32   30 1
    31   33   30 1
    32   34   33 1
    33   35   33 1
    34   36   33 1
    35   37   22 1
    36   38   37 1
    37   39   37 1
    38   40    3 1
    39   41   20 1
    40   42    5 1
    41   43   42 1
    42   44   42 1
    43   45   42 1
    44   46   41 1
    45   47    7 1
    46   48   47 1
    47   49   47 1
    48   50   47 1
    49   16   18 ar
    50   20   21 2
    51   26   29 1
    52   37   40 1
@<TRIPOS>SUBSTRUCTURE
     1 RES1 1

@<TRIPOS>CRYSIN
  11.6260   10.1680   15.8620  90.0000  97.3570  90.0000  14 1

