# MOL2 file generated by ConQuest
# Please check atom types

@<TRIPOS>MOLECULE
MOPGUU
    69    70     1
SMALL
NO_CHARGES
****
Generated from CSD

@<TRIPOS>ATOM
      1 O1        -1.3651    3.4352    3.0488 O.2       1 RES1    0.0000
      2 O2         0.1006    2.0035    2.4054 O.2       1 RES1    0.0000
      3 O3         3.3354    3.2625   -0.7742 O.2       1 RES1    0.0000
      4 O4         3.9055    5.3179   -1.1168 O.2       1 RES1    0.0000
      5 N1         2.3874    8.5600    0.5132 N.2       1 RES1    0.0000
      6 N2         2.6410    7.2575    0.1089 N.3       1 RES1    0.0000
      7 N3        -0.3420    3.1482    2.4614 N.pl3     1 RES1    0.0000
      8 N4         3.1911    4.4702   -0.5711 N.pl3     1 RES1    0.0000
      9 C1         8.3457    9.1371    0.0426 C.3       1 RES1    0.0000
     10 C2         5.1029    5.4474    2.1546 C.ar      1 RES1    0.0000
     11 C3         8.2359   10.1452    1.2069 C.3       1 RES1    0.0000
     12 C4         9.4263    9.6649   -0.9295 C.3       1 RES1    0.0000
     13 C5         8.8423    7.7993    0.5913 C.3       1 RES1    0.0000
     14 C6         7.0140    9.0422   -0.7141 C.3       1 RES1    0.0000
     15 C7         4.1498    5.3916    3.1655 C.ar      1 RES1    0.0000
     16 C8         6.9993    7.9451   -1.7689 C.3       1 RES1    0.0000
     17 C9         5.7357    8.9877    0.1898 C.3       1 RES1    0.0000
     18 C10        3.7857    4.1843    3.7142 C.ar      1 RES1    0.0000
     19 C11        4.4739    9.2462   -0.6533 C.3       1 RES1    0.0000
     20 C12        3.2204    9.4710    0.1642 C.2       1 RES1    0.0000
     21 C13        2.8406   10.9030    0.5462 C.3       1 RES1    0.0000
     22 C14        1.7494   10.9221    1.6010 C.3       1 RES1    0.0000
     23 C15        2.3228   11.5898   -0.7263 C.3       1 RES1    0.0000
     24 C16        4.0404   11.7143    1.0536 C.3       1 RES1    0.0000
     25 C17        5.6022    7.7269    0.9477 C.1       1 RES1    0.0000
     26 C18        4.3481    3.0184    3.2726 C.ar      1 RES1    0.0000
     27 C19        5.4197    6.7069    1.5207 C.1       1 RES1    0.0000
     28 C20        5.3042    3.0587    2.2787 C.ar      1 RES1    0.0000
     29 C21        5.6814    4.2590    1.7251 C.ar      1 RES1    0.0000
     30 C22        1.8923    6.2585    0.6225 C.ar      1 RES1    0.0000
     31 C23        0.8146    6.5407    1.4875 C.ar      1 RES1    0.0000
     32 C24        0.0655    5.5487    2.0487 C.ar      1 RES1    0.0000
     33 C25        0.4020    4.2099    1.7993 C.ar      1 RES1    0.0000
     34 C26        1.4199    3.8865    0.9529 C.ar      1 RES1    0.0000
     35 C27        2.1509    4.8871    0.3414 C.ar      1 RES1    0.0000
     36 H1         7.6381    9.7847    1.8954 H         1 RES1    0.0000
     37 H2         3.2793    7.0853   -0.4720 H         1 RES1    0.0000
     38 H3         7.8754   10.9932    0.8723 H         1 RES1    0.0000
     39 H4         9.1245   10.2970    1.5925 H         1 RES1    0.0000
     40 H5        10.2627    9.8096   -0.4392 H         1 RES1    0.0000
     41 H6         9.1276   10.5105   -1.3224 H         1 RES1    0.0000
     42 H7         9.5744    9.0078   -1.6412 H         1 RES1    0.0000
     43 H8         8.1923    7.4482    1.2348 H         1 RES1    0.0000
     44 H9         9.7062    7.9297    1.0365 H         1 RES1    0.0000
     45 H10        8.9480    7.1636   -0.1472 H         1 RES1    0.0000
     46 H11        7.8472    7.9511   -2.2580 H         1 RES1    0.0000
     47 H12        6.2606    8.1017   -2.3930 H         1 RES1    0.0000
     48 H13        6.8804    7.0758   -1.3322 H         1 RES1    0.0000
     49 H14        4.6304   10.0420   -1.2227 H         1 RES1    0.0000
     50 H15        4.3281    8.4729   -1.2531 H         1 RES1    0.0000
     51 H16        2.0486   10.4216    2.3882 H         1 RES1    0.0000
     52 H17        0.9375   10.5093    1.2385 H         1 RES1    0.0000
     53 H18        1.5592   11.8495    1.8565 H         1 RES1    0.0000
     54 H19        3.0355   11.6111   -1.3991 H         1 RES1    0.0000
     55 H20        2.0472   12.5066   -0.5134 H         1 RES1    0.0000
     56 H21        1.5559   11.0917   -1.0779 H         1 RES1    0.0000
     57 H22        6.9401    9.8997   -1.2251 H         1 RES1    0.0000
     58 H23        4.7345   11.7392    0.3601 H         1 RES1    0.0000
     59 H24        4.4016   11.2933    1.8614 H         1 RES1    0.0000
     60 H25        3.7538   12.6276    1.2616 H         1 RES1    0.0000
     61 H26        3.7470    6.1934    3.4794 H         1 RES1    0.0000
     62 H27        3.1360    4.1594    4.4065 H         1 RES1    0.0000
     63 H28        4.0825    2.1870    3.6473 H         1 RES1    0.0000
     64 H29        5.7046    2.2523    1.9757 H         1 RES1    0.0000
     65 H30        6.3432    4.2768    1.0426 H         1 RES1    0.0000
     66 H31        0.6056    7.4458    1.6850 H         1 RES1    0.0000
     67 H32       -0.6762    5.7617    2.6023 H         1 RES1    0.0000
     68 H33        5.8077    9.7301    0.8553 H         1 RES1    0.0000
     69 H34        1.6265    2.9745    0.7835 H         1 RES1    0.0000
@<TRIPOS>BOND
     1    1    7 2
     2    2    7 2
     3    3    8 2
     4    4    8 2
     5    5    6 1
     6    6   30 1
     7    7   33 1
     8    8   35 1
     9    9   11 1
    10   10   15 ar
    11   11   36 1
    12   12    9 1
    13   13    9 1
    14   14    9 1
    15   15   18 ar
    16   16   14 1
    17   17   14 1
    18   18   26 ar
    19   19   17 1
    20   20    5 2
    21   21   20 1
    22   22   21 1
    23   23   21 1
    24   24   21 1
    25   25   17 1
    26   26   28 ar
    27   27   10 1
    28   28   29 ar
    29   29   10 ar
    30   30   31 ar
    31   31   32 ar
    32   32   33 ar
    33   33   34 ar
    34   34   35 ar
    35   35   30 ar
    36   37    6 1
    37   38   11 1
    38   39   11 1
    39   40   12 1
    40   41   12 1
    41   42   12 1
    42   43   13 1
    43   44   13 1
    44   45   13 1
    45   46   16 1
    46   47   16 1
    47   48   16 1
    48   49   19 1
    49   50   19 1
    50   51   22 1
    51   52   22 1
    52   53   22 1
    53   54   23 1
    54   55   23 1
    55   56   23 1
    56   57   14 1
    57   58   24 1
    58   59   24 1
    59   60   24 1
    60   61   15 1
    61   62   18 1
    62   63   26 1
    63   64   28 1
    64   65   29 1
    65   66   31 1
    66   67   32 1
    67   68   17 1
    68   69   34 1
    69   19   20 1
    70   25   27 3
@<TRIPOS>SUBSTRUCTURE
     1 RES1 1

@<TRIPOS>CRYSIN
  18.2664   11.8602   12.8113  90.0000 108.2650  90.0000  14 1

