# MOL2 file generated by ConQuest
# Please check atom types

@<TRIPOS>MOLECULE
MOPHIK
    32    33     1
SMALL
NO_CHARGES
****
Generated from CSD

@<TRIPOS>ATOM
      1 N1        10.1424    4.0867    3.5456 N.2       1 RES1    0.0000
      2 N2         9.3510    3.2848    4.3402 N.am      1 RES1    0.0000
      3 H1         9.0481    3.5771    5.0908 H         1 RES1    0.0000
      4 N3         7.9913   -0.0183    4.8868 N.3       1 RES1    0.0000
      5 N4         5.2362    0.9175    6.9320 N.pl3     1 RES1    0.0000
      6 O1         9.5026    1.5391    2.9004 O.2       1 RES1    0.0000
      7 O2         4.6980   -0.1297    7.2845 O.2       1 RES1    0.0000
      8 O3         4.8239    2.0266    7.2447 O.2       1 RES1    0.0000
      9 C1         9.0587    2.0385    3.9263 C.2       1 RES1    0.0000
     10 C2         8.0869    1.3626    4.7964 C.2       1 RES1    0.0000
     11 C3         7.0801    1.9052    5.5486 C.2       1 RES1    0.0000
     12 H2         6.8960    2.8096    5.6639 H         1 RES1    0.0000
     13 C4         6.3892    0.8378    6.1035 C.2       1 RES1    0.0000
     14 C5         6.9669   -0.3296    5.6954 C.2       1 RES1    0.0000
     15 H3         6.6983   -1.1876    5.9351 H         1 RES1    0.0000
     16 C6         8.8843   -1.0067    4.2755 C.3       1 RES1    0.0000
     17 H4         8.5274   -1.8873    4.4115 H         1 RES1    0.0000
     18 H5         9.7527   -0.9472    4.6811 H         1 RES1    0.0000
     19 H6         8.9578   -0.8330    3.3341 H         1 RES1    0.0000
     20 C7        10.2066    5.3003    3.9073 C.2       1 RES1    0.0000
     21 H7         9.7062    5.5894    4.6355 H         1 RES1    0.0000
     22 C8        11.0541    6.2475    3.1956 C.ar      1 RES1    0.0000
     23 C9        12.0104    5.8346    2.2908 C.ar      1 RES1    0.0000
     24 H8        12.0848    4.9302    2.0834 H         1 RES1    0.0000
     25 C10       12.8542    6.7378    1.6920 C.ar      1 RES1    0.0000
     26 H9        13.5059    6.4415    1.0981 H         1 RES1    0.0000
     27 C11       12.7383    8.0634    1.9657 C.ar      1 RES1    0.0000
     28 H10       13.3120    8.6751    1.5634 H         1 RES1    0.0000
     29 C12       11.7793    8.4954    2.8332 C.ar      1 RES1    0.0000
     30 H11       11.6851    9.4046    3.0024 H         1 RES1    0.0000
     31 C13       10.9500    7.5922    3.4586 C.ar      1 RES1    0.0000
     32 H12       10.3127    7.8956    4.0648 H         1 RES1    0.0000
@<TRIPOS>BOND
     1    1    2 1
     2    2    3 1
     3    4   10 1
     4    5    7 2
     5    6    9 2
     6    8    5 2
     7    9    2 1
     8   10    9 1
     9   11   10 2
    10   12   11 1
    11   13    5 1
    12   14    4 1
    13   15   14 1
    14   16    4 1
    15   17   16 1
    16   18   16 1
    17   19   16 1
    18   20    1 2
    19   21   20 1
    20   22   20 1
    21   23   22 ar
    22   24   23 1
    23   25   23 ar
    24   26   25 1
    25   27   25 ar
    26   28   27 1
    27   29   27 ar
    28   30   29 1
    29   31   22 ar
    30   32   31 1
    31   11   13 1
    32   13   14 2
    33   29   31 ar
@<TRIPOS>SUBSTRUCTURE
     1 RES1 1

@<TRIPOS>CRYSIN
  13.0300   11.9000    8.3310  90.0000  95.4090  90.0000  14 1

