# MOL2 file generated by ConQuest
# Please check atom types

@<TRIPOS>MOLECULE
MOPQEN
    72    61     2
SMALL
NO_CHARGES
****
Generated from CSD

@<TRIPOS>ATOM
      1 O1         9.2920    3.0544    5.2472 O.2       1 RES1    0.0000
      2 O2         7.1431    2.8638    5.3061 O.2       1 RES1    0.0000
      3 O3        10.8056    7.1002    2.2763 O.2       1 RES1    0.0000
      4 O4        11.3814    2.0506    0.8305 O.2       1 RES1    0.0000
      5 N1        10.8022    5.4899   -2.1162 N.pl3     1 RES1    0.0000
      6 H1        10.9886    5.7497   -2.8960 H         1 RES1    0.0000
      7 N2         9.5455    1.5612   -0.4057 N.am      1 RES1    0.0000
      8 N3         8.1864    3.2125    4.7524 N.pl3     1 RES1    0.0000
      9 C1        10.6985    4.1467   -1.7304 C.2       1 RES1    0.0000
     10 C2        10.5182    3.8227   -0.4440 C.2       1 RES1    0.0000
     11 C3        10.4920    4.8583    0.6655 C.3       1 RES1    0.0000
     12 H2        11.2722    4.6818    1.2648 H         1 RES1    0.0000
     13 C4        10.6442    6.2631    0.1131 C.2       1 RES1    0.0000
     14 C5        10.7671    7.3424    1.0552 C.2       1 RES1    0.0000
     15 C6        10.7997    8.7824    0.5677 C.3       1 RES1    0.0000
     16 C7        11.5233    8.8359   -0.7714 C.3       1 RES1    0.0000
     17 H3        11.4824    9.7571   -1.1265 H         1 RES1    0.0000
     18 H4        12.4770    8.6062   -0.6345 H         1 RES1    0.0000
     19 C8        10.3481    8.9556   -0.8712 Du        2 SUP2    0.0000
     20 H5        10.6317    9.8475   -1.1949 Du        2 SUP2    0.0000
     21 H6         9.3591    8.9190   -0.9083 Du        2 SUP2    0.0000
     22 C9        10.9231    7.8805   -1.7938 C.3       1 RES1    0.0000
     23 H7        10.0335    8.2103   -2.0704 H         1 RES1    0.0000
     24 H8        11.5021    7.8511   -2.5966 H         1 RES1    0.0000
     25 H9        10.4553    7.9195   -2.6665 Du        2 SUP2    0.0000
     26 H10       11.8802    8.0710   -1.9549 Du        2 SUP2    0.0000
     27 C10       10.7877    6.4959   -1.2249 C.2       1 RES1    0.0000
     28 C11       10.8285    3.1764   -2.8744 C.3       1 RES1    0.0000
     29 H11       10.7403    2.2603   -2.5381 H         1 RES1    0.0000
     30 H12       11.7067    3.2841   -3.2967 H         1 RES1    0.0000
     31 H13       10.1238    3.3526   -3.5334 H         1 RES1    0.0000
     32 C12       10.4992    2.4145    0.0348 C.2       1 RES1    0.0000
     33 C13        9.6366    0.1400   -0.0647 C.3       1 RES1    0.0000
     34 H14        8.8583   -0.1100    0.4934 H         1 RES1    0.0000
     35 H15       10.4553   -0.0122    0.4720 H         1 RES1    0.0000
     36 C14        9.6743   -0.7526   -1.2859 C.3       1 RES1    0.0000
     37 H16        8.8287   -0.6695   -1.7767 H         1 RES1    0.0000
     38 H17        9.8007   -1.6836   -1.0067 H         1 RES1    0.0000
     39 H18       10.4158   -0.4814   -1.8651 H         1 RES1    0.0000
     40 C15        8.3166    1.9895   -1.1002 C.3       1 RES1    0.0000
     41 H19        8.2559    1.5101   -1.9649 H         1 RES1    0.0000
     42 H20        8.3829    2.9567   -1.2976 H         1 RES1    0.0000
     43 C16        7.0515    1.7386   -0.3166 C.3       1 RES1    0.0000
     44 H21        6.9453    0.7746   -0.1654 H         1 RES1    0.0000
     45 H22        6.2808    2.0770   -0.8199 H         1 RES1    0.0000
     46 H23        7.1047    2.1992    0.5476 H         1 RES1    0.0000
     47 C17        9.2191    4.6997    1.5006 C.ar      1 RES1    0.0000
     48 C18        9.2636    4.0624    2.7331 C.ar      1 RES1    0.0000
     49 H24       10.0913    3.7655    3.0885 H         1 RES1    0.0000
     50 C19        8.0979    3.8657    3.4345 C.ar      1 RES1    0.0000
     51 C20        6.8645    4.2540    2.9679 C.ar      1 RES1    0.0000
     52 H25        6.0748    4.1003    3.4735 H         1 RES1    0.0000
     53 C21        6.8158    4.8788    1.7325 C.ar      1 RES1    0.0000
     54 H26        5.9803    5.1534    1.3746 H         1 RES1    0.0000
     55 C22        7.9764    5.1034    1.0175 C.ar      1 RES1    0.0000
     56 H27        7.9258    5.5420    0.1768 H         1 RES1    0.0000
     57 C23        9.3281    9.1829    0.4078 C.3       1 RES1    0.0000
     58 H28        9.2745   10.0919    0.0428 H         1 RES1    0.0000
     59 H29        8.8837    9.1560    1.2805 H         1 RES1    0.0000
     60 H30        8.8837    8.5598   -0.2039 H         1 RES1    0.0000
     61 C24       11.4330    9.6960    1.5856 C.3       1 RES1    0.0000
     62 H31       12.3909    9.5030    1.6498 H         1 RES1    0.0000
     63 H32       11.0098    9.5543    2.4597 H         1 RES1    0.0000
     64 H33       11.3060   10.6294    1.3118 H         1 RES1    0.0000
     65 C25       12.2964    9.1144    0.6103 Du        2 SUP2    0.0000
     66 H34       12.7859    8.5011    0.0242 Du        2 SUP2    0.0000
     67 H35       12.6251    9.0240    1.5286 Du        2 SUP2    0.0000
     68 H36       12.4361   10.0357    0.3051 Du        2 SUP2    0.0000
     69 C26       10.1718    9.7889    1.5215 Du        2 SUP2    0.0000
     70 H37       10.2733   10.6930    1.1564 Du        2 SUP2    0.0000
     71 H38       10.6176    9.7351    2.3927 Du        2 SUP2    0.0000
     72 H39        9.2195    9.5861    1.6284 Du        2 SUP2    0.0000
@<TRIPOS>BOND
     1    1    8 2
     2    2    8 2
     3    3   14 2
     4    4   32 2
     5    5    6 1
     6    7   32 1
     7    8   50 1
     8    9    5 1
     9   10    9 2
    10   11   10 1
    11   12   11 1
    12   13   11 1
    13   14   13 1
    14   15   14 1
    15   16   15 1
    16   17   16 1
    17   18   16 1
    18   22   16 1
    19   23   22 1
    20   24   22 1
    21   27    5 1
    22   28    9 1
    23   29   28 1
    24   30   28 1
    25   31   28 1
    26   32   10 1
    27   33    7 1
    28   34   33 1
    29   35   33 1
    30   36   33 1
    31   37   36 1
    32   38   36 1
    33   39   36 1
    34   40    7 1
    35   41   40 1
    36   42   40 1
    37   43   40 1
    38   44   43 1
    39   45   43 1
    40   46   43 1
    41   47   11 1
    42   48   47 ar
    43   49   48 1
    44   50   48 ar
    45   51   50 ar
    46   52   51 1
    47   53   51 ar
    48   54   53 1
    49   55   47 ar
    50   56   55 1
    51   57   15 1
    52   58   57 1
    53   59   57 1
    54   60   57 1
    55   61   15 1
    56   62   61 1
    57   63   61 1
    58   64   61 1
    59   13   27 2
    60   22   27 1
    61   53   55 ar
@<TRIPOS>SUBSTRUCTURE
     1 RES1 1
     2 SUP2 19

@<TRIPOS>CRYSIN
  28.2157   28.2157   14.2592  90.0000  90.0000 120.0000 236 1

