# MOL2 file generated by ConQuest
# Please check atom types

@<TRIPOS>MOLECULE
MOPRAL
    37    38     1
SMALL
NO_CHARGES
****
Generated from CSD

@<TRIPOS>ATOM
      1 O1         2.3861    9.0280    3.6586 O.2       1 RES1    0.0000
      2 O2         3.7683    7.8977    9.5870 O.3       1 RES1    0.0000
      3 O3         2.7541    9.7659    8.6886 O.3       1 RES1    0.0000
      4 O4         5.2957    7.7083    3.1945 O.2       1 RES1    0.0000
      5 O5         5.3147    8.3343    1.1420 O.2       1 RES1    0.0000
      6 N1         4.7842    7.7848    2.1004 N.pl3     1 RES1    0.0000
      7 C1         2.9634    8.8308    7.7109 C.ar      1 RES1    0.0000
      8 C2         2.6454    8.9191    6.3811 C.ar      1 RES1    0.0000
      9 C3         2.6946    7.9418    4.1183 C.2       1 RES1    0.0000
     10 C4         2.7882    6.7330    3.1842 C.3       1 RES1    0.0000
     11 C5         3.5685    7.7132    8.2460 C.ar      1 RES1    0.0000
     12 C6         2.9714    7.8005    5.5736 C.ar      1 RES1    0.0000
     13 C7         3.5685    6.6918    6.1283 C.ar      1 RES1    0.0000
     14 C8         3.4757    9.2625    9.8375 C.3       1 RES1    0.0000
     15 C9         3.4155    7.2059    1.8780 C.3       1 RES1    0.0000
     16 C10        1.3933    6.0550    2.9388 C.3       1 RES1    0.0000
     17 C11        3.8905    6.6172    7.4913 C.ar      1 RES1    0.0000
     18 C12        0.7549    5.7155    4.2933 C.3       1 RES1    0.0000
     19 C13        0.4330    6.9754    2.1665 C.3       1 RES1    0.0000
     20 C14        1.5844    4.7637    2.1614 C.3       1 RES1    0.0000
     21 H1         1.2371    5.1219    4.8548 H         1 RES1    0.0000
     22 H2         2.9975    7.8300    1.4858 H         1 RES1    0.0000
     23 H3         3.6002    6.4857    1.2543 H         1 RES1    0.0000
     24 H4         4.2584    5.8676    7.9820 H         1 RES1    0.0000
     25 H5         3.7985    5.9264    5.6323 H         1 RES1    0.0000
     26 H6         3.3465    5.9559    3.6282 H         1 RES1    0.0000
     27 H7         0.6106    6.4465    4.8376 H         1 RES1    0.0000
     28 H8         0.2776    7.7319    2.6607 H         1 RES1    0.0000
     29 H9         2.0618    4.1014    2.7125 H         1 RES1    0.0000
     30 H10       -0.4520    6.5054    2.0732 H         1 RES1    0.0000
     31 H11       -0.1110    5.2200    4.2674 H         1 RES1    0.0000
     32 H12        0.6503    4.4645    2.1251 H         1 RES1    0.0000
     33 H13        2.9024    9.4980   10.6081 H         1 RES1    0.0000
     34 H14        0.8327    7.3884    1.3822 H         1 RES1    0.0000
     35 H15        2.1649    9.7237    5.9951 H         1 RES1    0.0000
     36 H16        4.3377    9.7531    9.9861 H         1 RES1    0.0000
     37 H17        1.9666    4.9747    1.2267 H         1 RES1    0.0000
@<TRIPOS>BOND
     1    1    9 2
     2    2   11 1
     3    3    7 1
     4    4    6 2
     5    5    6 2
     6    6   15 1
     7    7    8 ar
     8    8   12 ar
     9    9   10 1
    10   10   15 1
    11   11    7 ar
    12   12    9 1
    13   13   12 ar
    14   14    2 1
    15   15   22 1
    16   16   10 1
    17   17   11 ar
    18   18   16 1
    19   19   16 1
    20   20   16 1
    21   21   18 1
    22   23   15 1
    23   24   17 1
    24   25   13 1
    25   26   10 1
    26   27   18 1
    27   28   19 1
    28   29   20 1
    29   30   19 1
    30   31   18 1
    31   32   20 1
    32   33   14 1
    33   34   19 1
    34   35    8 1
    35   36   14 1
    36   37   20 1
    37    3   14 1
    38   13   17 ar
@<TRIPOS>SUBSTRUCTURE
     1 RES1 1

@<TRIPOS>CRYSIN
   7.9300    9.8120   17.2770  90.0000  90.0000  90.0000  19 1

