# MOL2 file generated by ConQuest
# Please check atom types

@<TRIPOS>MOLECULE
MOQCAW
    17    17     1
SMALL
NO_CHARGES
****
Generated from CSD

@<TRIPOS>ATOM
      1 C1         5.3177    0.0383   10.4187 C.ar      1 RES1    0.0000
      2 C2         4.7369   -1.2068   10.5157 C.ar      1 RES1    0.0000
      3 C3         4.1609   -1.6011   11.7096 C.ar      1 RES1    0.0000
      4 C4         4.2189   -0.7749   12.8079 C.ar      1 RES1    0.0000
      5 C5         4.8550    0.4377   12.7154 C.ar      1 RES1    0.0000
      6 C6         5.3822    0.8580   11.5261 C.ar      1 RES1    0.0000
      7 N1         5.7948    0.4730    9.1459 N.3       1 RES1    0.0000
      8 N2         7.1346    0.6753    9.0397 N.pl3     1 RES1    0.0000
      9 O1         7.5242    1.3505    8.1053 O.2       1 RES1    0.0000
     10 O2         7.8468    0.1235    9.8680 O.2       1 RES1    0.0000
     11 C7         4.9185    1.2176    8.2509 C.3       1 RES1    0.0000
     12 N3         4.7927   -2.0568    9.3173 N.pl3     1 RES1    0.0000
     13 O3         3.8923   -1.9954    8.5406 O.2       1 RES1    0.0000
     14 O4         5.7812   -2.7270    9.1778 O.2       1 RES1    0.0000
     15 N4         3.4887   -2.8982   11.8219 N.pl3     1 RES1    0.0000
     16 O5         2.8733   -3.1250   12.8352 O.2       1 RES1    0.0000
     17 O6         3.6106   -3.6962   10.9071 O.2       1 RES1    0.0000
@<TRIPOS>BOND
     1    1    2 ar
     2    2    3 ar
     3    3    4 ar
     4    4    5 ar
     5    5    6 ar
     6    6    1 ar
     7    7    1 1
     8    8    7 1
     9    9    8 2
    10   10    8 2
    11   11    7 1
    12   12    2 1
    13   13   12 2
    14   14   12 2
    15   15    3 1
    16   16   15 2
    17   17   15 2
@<TRIPOS>SUBSTRUCTURE
     1 RES1 1

@<TRIPOS>CRYSIN
   9.2240    7.2220   15.4580  90.0000 101.0800  90.0000  14 1

