# MOL2 file generated by ConQuest
# Please check atom types

@<TRIPOS>MOLECULE
MOQCEA
    17    17     1
SMALL
NO_CHARGES
****
Generated from CSD

@<TRIPOS>ATOM
      1 C1        -6.9757    8.6496    8.2176 C.ar      1 RES1    0.0000
      2 C2        -5.6992    8.0892    8.1846 C.ar      1 RES1    0.0000
      3 C3        -4.6498    8.8968    7.8020 C.ar      1 RES1    0.0000
      4 C4        -4.7869   10.2132    7.4298 C.ar      1 RES1    0.0000
      5 C5        -6.0647   10.7136    7.4636 C.ar      1 RES1    0.0000
      6 C6        -7.1643    9.9768    7.8551 C.ar      1 RES1    0.0000
      7 N1        -8.1227    7.8768    8.5230 N.3       1 RES1    0.0000
      8 N2        -8.1038    6.9996    9.5608 N.pl3     1 RES1    0.0000
      9 O1        -7.0800    6.8964   10.2167 O.2       1 RES1    0.0000
     10 O2        -9.1164    6.3492    9.7714 O.2       1 RES1    0.0000
     11 C7        -9.4201    8.1528    7.9154 C.3       1 RES1    0.0000
     12 N3        -3.3011    8.3100    7.7570 N.pl3     1 RES1    0.0000
     13 O3        -2.4576    8.8800    7.0850 O.2       1 RES1    0.0000
     14 O4        -3.1018    7.2876    8.3816 O.2       1 RES1    0.0000
     15 N4        -6.2780   12.1008    7.0360 N.pl3     1 RES1    0.0000
     16 O5        -5.2988   12.8004    6.8551 O.2       1 RES1    0.0000
     17 O6        -7.4229   12.4716    6.8599 O.2       1 RES1    0.0000
@<TRIPOS>BOND
     1    1    2 ar
     2    2    3 ar
     3    3    4 ar
     4    4    5 ar
     5    5    6 ar
     6    6    1 ar
     7    7    1 1
     8    8    7 1
     9    9    8 2
    10   10    8 2
    11   11    7 1
    12   12    3 1
    13   13   12 2
    14   14   12 2
    15   15    5 1
    16   16   15 2
    17   17   15 2
@<TRIPOS>SUBSTRUCTURE
     1 RES1 1

@<TRIPOS>CRYSIN
   9.8140   12.0000    8.8650  90.0000 114.9400  90.0000 231 1

