# MOL2 file generated by ConQuest
# Please check atom types

@<TRIPOS>MOLECULE
MOQQUF
    37    38     1
SMALL
NO_CHARGES
****
Generated from CSD

@<TRIPOS>ATOM
      1 O1         4.2839    7.7486    7.3325 O.3       1 RES1    0.0000
      2 O2         6.0186    4.7401    9.6489 O.3       1 RES1    0.0000
      3 O3         6.8873    2.7967    7.9052 O.3       1 RES1    0.0000
      4 O4         7.5576    2.6867    5.7688 O.2       1 RES1    0.0000
      5 O5         2.7778    4.4934    8.9306 O.3       1 RES1    0.0000
      6 N1         3.8199    6.6985    6.5120 N.2       1 RES1    0.0000
      7 C1         5.1127    7.3235    8.4180 C.3       1 RES1    0.0000
      8 H1         5.4014    8.1150    8.9379 H         1 RES1    0.0000
      9 H2         5.9228    6.8835    8.0569 H         1 RES1    0.0000
     10 C2         3.7536    5.5435    7.0434 C.2       1 RES1    0.0000
     11 H3         3.5375    4.8293    6.4549 H         1 RES1    0.0000
     12 C3         3.9720    5.1615    8.4831 C.3       1 RES1    0.0000
     13 C4         5.1113    4.1329    8.7254 C.3       1 RES1    0.0000
     14 H4         4.7208    3.3154    9.1482 H         1 RES1    0.0000
     15 C5         5.3096    5.7524   10.4017 C.3       1 RES1    0.0000
     16 C6         4.3896    6.3633    9.3321 C.3       1 RES1    0.0000
     17 H5         3.5933    6.7995    9.7515 H         1 RES1    0.0000
     18 C7         5.8577    3.7279    7.4936 C.3       1 RES1    0.0000
     19 H6         5.2440    3.2968    6.8468 H         1 RES1    0.0000
     20 H7         6.2638    4.5209    7.0628 H         1 RES1    0.0000
     21 C8         7.7028    2.3723    6.9245 C.2       1 RES1    0.0000
     22 C9         8.7723    1.4834    7.4559 C.3       1 RES1    0.0000
     23 H8         9.6431    1.9189    7.3450 H         1 RES1    0.0000
     24 H9         8.7656    0.6354    6.9657 H         1 RES1    0.0000
     25 H10        8.6118    1.3117    8.4077 H         1 RES1    0.0000
     26 C10        4.5121    5.1199   11.5283 C.3       1 RES1    0.0000
     27 H11        5.1071    4.5714   12.0825 H         1 RES1    0.0000
     28 H12        3.8056    4.5558   11.1524 H         1 RES1    0.0000
     29 H13        4.1104    5.8237   12.0791 H         1 RES1    0.0000
     30 C11        6.3514    6.6985   10.9707 C.3       1 RES1    0.0000
     31 H14        6.9273    7.0232   10.2474 H         1 RES1    0.0000
     32 H15        6.8961    6.2243   11.6334 H         1 RES1    0.0000
     33 H16        5.9039    7.4580   11.3992 H         1 RES1    0.0000
     34 C12        1.5635    5.2403    8.7825 C.3       1 RES1    0.0000
     35 H17        1.4382    5.4766    7.8398 H         1 RES1    0.0000
     36 H18        1.6151    6.0578    9.3196 H         1 RES1    0.0000
     37 H19        0.8063    4.6963    9.0853 H         1 RES1    0.0000
@<TRIPOS>BOND
     1    1    6 1
     2    2   13 1
     3    3   18 1
     4    4   21 2
     5    5   12 1
     6    6   10 2
     7    7    1 1
     8    8    7 1
     9    9    7 1
    10   10   11 1
    11   12   10 1
    12   13   12 1
    13   14   13 1
    14   15    2 1
    15   16    7 1
    16   17   16 1
    17   18   13 1
    18   19   18 1
    19   20   18 1
    20   21    3 1
    21   22   21 1
    22   23   22 1
    23   24   22 1
    24   25   22 1
    25   26   15 1
    26   27   26 1
    27   28   26 1
    28   29   26 1
    29   30   15 1
    30   31   30 1
    31   32   30 1
    32   33   30 1
    33   34    5 1
    34   35   34 1
    35   36   34 1
    36   37   34 1
    37   12   16 1
    38   15   16 1
@<TRIPOS>SUBSTRUCTURE
     1 RES1 1

@<TRIPOS>CRYSIN
   7.6742    7.4320   11.4356  90.0000  92.2700  90.0000   4 1

