# MOL2 file generated by ConQuest
# Please check atom types

@<TRIPOS>MOLECULE
MOQQOZ
    45    48     1
SMALL
NO_CHARGES
****
Generated from CSD

@<TRIPOS>ATOM
      1 O1        -2.5026   -0.6609    6.9032 O.3       1 RES1    0.0000
      2 O2        -1.6322   -2.9691    8.5979 O.3       1 RES1    0.0000
      3 O3        -0.4751    0.9854    8.1576 O.3       1 RES1    0.0000
      4 O4        -0.1305   -2.0263   10.0638 O.3       1 RES1    0.0000
      5 N1         0.4580   -0.0674    7.7676 N.3       1 RES1    0.0000
      6 C1        -3.0083   -0.4664    8.2601 C.3       1 RES1    0.0000
      7 C2        -1.8742   -0.6107    9.3200 C.3       1 RES1    0.0000
      8 H1        -2.2862   -0.8016   10.2107 H         1 RES1    0.0000
      9 C3        -1.7941   -2.9965    7.1556 C.3       1 RES1    0.0000
     10 H2        -2.7274   -3.2196    6.9104 H         1 RES1    0.0000
     11 H3        -1.1868   -3.6621    6.7455 H         1 RES1    0.0000
     12 C4        -1.4371   -1.5857    6.7035 C.3       1 RES1    0.0000
     13 H4        -1.1420   -1.5844    5.7483 H         1 RES1    0.0000
     14 C5         0.9668   -2.9183    9.8096 C.3       1 RES1    0.0000
     15 H5         0.6497   -3.6865    9.2901 H         1 RES1    0.0000
     16 H6         1.3378   -3.2314   10.6610 H         1 RES1    0.0000
     17 H7         1.6608   -2.4465    9.3048 H         1 RES1    0.0000
     18 C6        -0.9308   -1.7617    8.9527 C.3       1 RES1    0.0000
     19 C7        -0.2402   -1.3502    7.6452 C.3       1 RES1    0.0000
     20 H8         0.4465   -2.0464    7.4373 H         1 RES1    0.0000
     21 C8        -1.0115    0.6475    9.4331 C.3       1 RES1    0.0000
     22 H9        -1.5594    1.3979    9.7730 H         1 RES1    0.0000
     23 H10       -0.2732    0.4892   10.0732 H         1 RES1    0.0000
     24 C9        -4.1625   -1.4438    8.5661 C.3       1 RES1    0.0000
     25 H11       -4.7804   -1.4675    7.8058 H         1 RES1    0.0000
     26 H12       -4.6415   -1.1432    9.3667 H         1 RES1    0.0000
     27 H13       -3.7988   -2.3407    8.7201 H         1 RES1    0.0000
     28 C10       -3.6006    0.9407    8.2146 C.3       1 RES1    0.0000
     29 H14       -2.9028    1.5809    7.9622 H         1 RES1    0.0000
     30 H15       -3.9545    1.1752    9.0980 H         1 RES1    0.0000
     31 H16       -4.3243    0.9693    7.5549 H         1 RES1    0.0000
     32 C11        0.9693    0.3973    6.4795 C.3       1 RES1    0.0000
     33 H17        0.2069    0.6109    5.8848 H         1 RES1    0.0000
     34 H18        1.4923   -0.3284    6.0559 H         1 RES1    0.0000
     35 C12        1.8447    1.6205    6.6231 C.ar      1 RES1    0.0000
     36 C13        2.8614    1.6679    7.5828 C.ar      1 RES1    0.0000
     37 H19        2.9874    0.9373    8.1763 H         1 RES1    0.0000
     38 C14        3.6839    2.7763    7.6694 C.ar      1 RES1    0.0000
     39 H20        4.3591    2.8111    8.3369 H         1 RES1    0.0000
     40 C15        3.5319    3.8381    6.7885 C.ar      1 RES1    0.0000
     41 H21        4.1079    4.5917    6.8432 H         1 RES1    0.0000
     42 C16        2.5328    3.7915    5.8282 C.ar      1 RES1    0.0000
     43 H22        2.4275    4.5124    5.2182 H         1 RES1    0.0000
     44 C17        1.6869    2.6928    5.7570 C.ar      1 RES1    0.0000
     45 H23        0.9929    2.6754    5.1090 H         1 RES1    0.0000
@<TRIPOS>BOND
     1    1    6 1
     2    2    9 1
     3    3    5 1
     4    4   14 1
     5    5   19 1
     6    6    7 1
     7    7    8 1
     8    9   10 1
     9   11    9 1
    10   12    1 1
    11   13   12 1
    12   14   15 1
    13   16   14 1
    14   17   14 1
    15   18    2 1
    16   19   12 1
    17   20   19 1
    18   21    3 1
    19   22   21 1
    20   23   21 1
    21   24    6 1
    22   25   24 1
    23   26   24 1
    24   27   24 1
    25   28    6 1
    26   29   28 1
    27   30   28 1
    28   31   28 1
    29   32    5 1
    30   33   32 1
    31   34   32 1
    32   35   32 1
    33   36   35 ar
    34   37   36 1
    35   38   36 ar
    36   39   38 1
    37   40   38 ar
    38   41   40 1
    39   42   40 ar
    40   43   42 1
    41   44   35 ar
    42   45   44 1
    43    4   18 1
    44    7   18 1
    45    7   21 1
    46    9   12 1
    47   18   19 1
    48   42   44 ar
@<TRIPOS>SUBSTRUCTURE
     1 RES1 1

@<TRIPOS>CRYSIN
  10.7533    6.9582   11.0998  90.0000 108.9650  90.0000   4 1

