# MOL2 file generated by ConQuest
# Please check atom types

@<TRIPOS>MOLECULE
MORCUT
    33    35     1
SMALL
NO_CHARGES
****
Generated from CSD

@<TRIPOS>ATOM
      1 O1         3.1129   23.6634    1.3544 O.2       1 RES1    0.0000
      2 O2         0.9781   24.0080    1.4386 O.2       1 RES1    0.0000
      3 N1        -1.2806   33.2619    1.7744 N.ar      1 RES1    0.0000
      4 N2         1.3386   34.2688    1.4199 N.ar      1 RES1    0.0000
      5 N3         2.1746   32.1430    1.4099 N.pl3     1 RES1    0.0000
      6 H1         3.0212   32.4405    1.4854 H         1 RES1    0.0000
      7 N4         1.9557   30.8049    1.4536 N.2       1 RES1    0.0000
      8 N5         2.1388   24.4081    1.3999 N.pl3     1 RES1    0.0000
      9 C1         0.2742   35.1165    1.5578 C.ar      1 RES1    0.0000
     10 C2         0.4847   36.5117    1.5341 C.ar      1 RES1    0.0000
     11 H2         1.3600   36.8582    1.4118 H         1 RES1    0.0000
     12 C3         2.3592   25.8537    1.4074 C.ar      1 RES1    0.0000
     13 C4         2.7552   28.5771    1.4006 C.ar      1 RES1    0.0000
     14 C5         3.6396   26.3397    1.1909 C.ar      1 RES1    0.0000
     15 H3         4.3669   25.7466    1.0448 H         1 RES1    0.0000
     16 C6         3.8311   27.7156    1.1927 C.ar      1 RES1    0.0000
     17 H4         4.7007   28.0709    1.0517 H         1 RES1    0.0000
     18 C7        -0.5805   37.3657    1.6895 C.ar      1 RES1    0.0000
     19 H5        -0.4360   38.3041    1.6739 H         1 RES1    0.0000
     20 C8        -1.0449   34.6183    1.7413 C.ar      1 RES1    0.0000
     21 C9         1.2707   26.6837    1.6253 C.ar      1 RES1    0.0000
     22 H6         0.4046   26.3204    1.7726 H         1 RES1    0.0000
     23 C10        1.4751   28.0516    1.6234 C.ar      1 RES1    0.0000
     24 H7         0.7434   28.6383    1.7744 H         1 RES1    0.0000
     25 C11        1.0904   32.9890    1.4998 C.ar      1 RES1    0.0000
     26 C12       -2.1158   35.5166    1.8993 C.ar      1 RES1    0.0000
     27 H8        -2.9984   35.1880    2.0260 H         1 RES1    0.0000
     28 C13        2.9690   30.0261    1.3687 C.2       1 RES1    0.0000
     29 H9         3.8385   30.3791    1.2795 H         1 RES1    0.0000
     30 C14       -1.8848   36.8646    1.8705 C.ar      1 RES1    0.0000
     31 H10       -2.6102   37.4674    1.9742 H         1 RES1    0.0000
     32 C15       -0.2463   32.4700    1.6652 C.ar      1 RES1    0.0000
     33 H11       -0.3775   31.5300    1.6945 H         1 RES1    0.0000
@<TRIPOS>BOND
     1    1    8 2
     2    2    8 2
     3    3   20 ar
     4    4    9 ar
     5    5    6 1
     6    7    5 1
     7    8   12 1
     8    9   10 ar
     9   10   11 1
    10   12   14 ar
    11   13   16 ar
    12   14   15 1
    13   16   14 ar
    14   17   16 1
    15   18   10 ar
    16   19   18 1
    17   20    9 ar
    18   21   12 ar
    19   22   21 1
    20   23   13 ar
    21   24   23 1
    22   25    4 ar
    23   26   20 ar
    24   27   26 1
    25   28    7 2
    26   29   28 1
    27   30   18 ar
    28   31   30 1
    29   32    3 ar
    30   33   32 1
    31    5   25 1
    32   13   28 1
    33   21   23 ar
    34   25   32 ar
    35   26   30 ar
@<TRIPOS>SUBSTRUCTURE
     1 RES1 1

@<TRIPOS>CRYSIN
   6.4580   32.0590    6.9440  90.0000 115.9970  90.0000  14 1

