# MOL2 file generated by ConQuest
# Please check atom types

@<TRIPOS>MOLECULE
MORPIT
    56    58     1
SMALL
NO_CHARGES
****
Generated from CSD

@<TRIPOS>ATOM
      1 O1         9.5695    7.3689    1.7362 O.2       1 RES1    0.0000
      2 O2         8.5754    9.1852    0.9063 O.3       1 RES1    0.0000
      3 O3         1.6811    4.2194    1.1463 O.2       1 RES1    0.0000
      4 O4        -0.1019    3.6652    0.0473 O.2       1 RES1    0.0000
      5 O5        -4.0084    6.2749    0.0335 O.2       1 RES1    0.0000
      6 O6        -3.9772    8.2920    0.8285 O.2       1 RES1    0.0000
      7 N1         2.4088    7.5555    3.1110 N.2       1 RES1    0.0000
      8 N2         1.8171    6.5157    2.4003 N.pl3     1 RES1    0.0000
      9 H1         2.2654    5.7749    2.2389 H         1 RES1    0.0000
     10 N3         0.5162    4.4345    0.7841 N.pl3     1 RES1    0.0000
     11 N4        -3.4603    7.1909    0.6110 N.pl3     1 RES1    0.0000
     12 C1         9.8759    9.6624    0.4939 C.3       1 RES1    0.0000
     13 H2        10.4598    9.7365    1.2773 H         1 RES1    0.0000
     14 H3         9.7834   10.5427    0.0720 H         1 RES1    0.0000
     15 H4        10.2678    9.0328   -0.1469 H         1 RES1    0.0000
     16 C2         8.5463    7.9715    1.5209 C.2       1 RES1    0.0000
     17 C3         7.1477    7.5342    1.8214 C.3       1 RES1    0.0000
     18 H5         6.7398    7.2208    0.9638 H         1 RES1    0.0000
     19 C4         7.1254    6.3376    2.8171 C.3       1 RES1    0.0000
     20 H6         7.9344    6.4131    3.4019 H         1 RES1    0.0000
     21 C5         5.9069    6.6068    3.6791 C.3       1 RES1    0.0000
     22 C6         5.8449    8.1538    3.8195 C.3       1 RES1    0.0000
     23 C7         6.2215    8.6168    2.4113 C.3       1 RES1    0.0000
     24 H7         6.6905    9.4886    2.4484 H         1 RES1    0.0000
     25 H8         5.4102    8.7179    1.8534 H         1 RES1    0.0000
     26 C8         7.1734    4.9829    2.1385 C.3       1 RES1    0.0000
     27 H9         7.0853    4.2763    2.8120 H         1 RES1    0.0000
     28 H10        8.0282    4.8818    1.6708 H         1 RES1    0.0000
     29 H11        6.4377    4.9145    1.4940 H         1 RES1    0.0000
     30 C9         6.8208    8.7493    4.8589 C.3       1 RES1    0.0000
     31 H12        6.8351    9.7251    4.7716 H         1 RES1    0.0000
     32 H13        7.7207    8.3946    4.7032 H         1 RES1    0.0000
     33 H14        6.5253    8.5057    5.7608 H         1 RES1    0.0000
     34 C10        6.0428    5.8818    5.0334 C.3       1 RES1    0.0000
     35 H15        6.0526    4.9131    4.8865 H         1 RES1    0.0000
     36 H16        5.2850    6.1182    5.6081 H         1 RES1    0.0000
     37 H17        6.8786    6.1553    5.4670 H         1 RES1    0.0000
     38 C11        4.3867    8.4473    4.1708 C.3       1 RES1    0.0000
     39 H18        4.2658    8.2536    5.1440 H         1 RES1    0.0000
     40 C12        3.8753    9.8661    3.9184 C.3       1 RES1    0.0000
     41 H19        4.4444   10.5071    4.3934 H         1 RES1    0.0000
     42 H20        2.9538    9.9444    4.2435 H         1 RES1    0.0000
     43 H21        3.9001   10.0570    2.9575 H         1 RES1    0.0000
     44 C13        3.6481    7.3903    3.4070 C.2       1 RES1    0.0000
     45 C14        4.5587    6.2564    3.0361 C.3       1 RES1    0.0000
     46 H22        4.6486    6.1838    2.0527 H         1 RES1    0.0000
     47 H23        4.2139    5.3989    3.3903 H         1 RES1    0.0000
     48 C15        0.5363    6.6524    1.9581 C.ar      1 RES1    0.0000
     49 C16       -0.1494    5.6681    1.2089 C.ar      1 RES1    0.0000
     50 C17       -1.4233    5.8333    0.7870 C.ar      1 RES1    0.0000
     51 H24       -1.8586    5.1553    0.2837 H         1 RES1    0.0000
     52 C18       -2.0789    7.0071    1.1012 C.ar      1 RES1    0.0000
     53 C19       -1.4577    8.0100    1.8323 C.ar      1 RES1    0.0000
     54 H25       -1.9262    8.8105    2.0417 H         1 RES1    0.0000
     55 C20       -0.1779    7.8348    2.2425 C.ar      1 RES1    0.0000
     56 H26        0.2491    8.5256    2.7349 H         1 RES1    0.0000
@<TRIPOS>BOND
     1    1   16 2
     2    2   12 1
     3    3   10 2
     4    4   10 2
     5    5   11 2
     6    6   11 2
     7    7    8 1
     8    8    9 1
     9   10   49 1
    10   11   52 1
    11   12   13 1
    12   14   12 1
    13   15   12 1
    14   16    2 1
    15   17   16 1
    16   18   17 1
    17   19   17 1
    18   20   19 1
    19   21   19 1
    20   22   21 1
    21   23   17 1
    22   24   23 1
    23   25   23 1
    24   26   19 1
    25   27   26 1
    26   28   26 1
    27   29   26 1
    28   30   22 1
    29   31   30 1
    30   32   30 1
    31   33   30 1
    32   34   21 1
    33   35   34 1
    34   36   34 1
    35   37   34 1
    36   38   22 1
    37   39   38 1
    38   40   38 1
    39   41   40 1
    40   42   40 1
    41   43   40 1
    42   44    7 2
    43   45   21 1
    44   46   45 1
    45   47   45 1
    46   48    8 1
    47   49   48 ar
    48   50   49 ar
    49   51   50 1
    50   52   50 ar
    51   53   52 ar
    52   54   53 1
    53   55   48 ar
    54   56   55 1
    55   22   23 1
    56   38   44 1
    57   44   45 1
    58   53   55 ar
@<TRIPOS>SUBSTRUCTURE
     1 RES1 1

@<TRIPOS>CRYSIN
  20.4750   14.2450    7.3712  90.0000  99.3260  90.0000  14 1

