# MOL2 file generated by ConQuest
# Please check atom types

@<TRIPOS>MOLECULE
MOSCIH
    26    27     1
SMALL
NO_CHARGES
****
Generated from CSD

@<TRIPOS>ATOM
      1 N1         4.9272    2.7805    3.5826 N.3       1 RES1    0.0000
      2 C1         3.7300    2.3162    4.0044 C.2       1 RES1    0.0000
      3 N2         2.9335    2.5107    2.9402 N.pl3     1 RES1    0.0000
      4 H1         2.0809    2.2937    2.9005 H         1 RES1    0.0000
      5 N3         3.6407    3.0954    1.9282 N.2       1 RES1    0.0000
      6 N4         4.8400    3.2514    2.3200 N.2       1 RES1    0.0000
      7 C2         6.1880    2.7514    4.3179 C.3       1 RES1    0.0000
      8 H2         6.9445    2.8764    3.6910 H         1 RES1    0.0000
      9 H3         6.2965    1.8744    4.7639 H         1 RES1    0.0000
     10 N5         3.6267    1.8347    5.2428 N.2       1 RES1    0.0000
     11 N6         2.4010    1.4266    5.6066 N.pl3     1 RES1    0.0000
     12 O1         1.4183    1.5113    4.8694 O.2       1 RES1    0.0000
     13 O2         2.3345    0.9723    6.7676 O.2       1 RES1    0.0000
     14 N1B        7.4530    3.8335    6.0923 N.3       1 RES1    0.0000
     15 C1B        8.6503    4.2978    5.6705 C.2       1 RES1    0.0000
     16 N2B        9.4467    4.1033    6.7347 N.pl3     1 RES1    0.0000
     17 H1B       10.2993    4.3203    6.7744 H         1 RES1    0.0000
     18 N3B        8.7396    3.5186    7.7467 N.2       1 RES1    0.0000
     19 N4B        7.5402    3.3626    7.3549 N.2       1 RES1    0.0000
     20 C2B        6.1922    3.8626    5.3570 C.3       1 RES1    0.0000
     21 H2B        5.4358    3.7376    5.9839 H         1 RES1    0.0000
     22 H3B        6.0837    4.7396    4.9110 H         1 RES1    0.0000
     23 N5B        8.7535    4.7793    4.4321 N.2       1 RES1    0.0000
     24 N6B        9.9793    5.1874    4.0683 N.pl3     1 RES1    0.0000
     25 O1B       10.9619    5.1027    4.8055 O.2       1 RES1    0.0000
     26 O2B       10.0458    5.6417    2.9073 O.2       1 RES1    0.0000
@<TRIPOS>BOND
     1    1    2 1
     2    2    3 1
     3    3    4 1
     4    5    3 1
     5    6    1 1
     6    7    1 1
     7    8    7 1
     8    9    7 1
     9   10    2 2
    10   11   10 1
    11   12   11 2
    12   13   11 2
    13   14   15 1
    14   15   16 1
    15   16   17 1
    16   18   16 1
    17   19   14 1
    18   20    7 1
    19   21   20 1
    20   22   20 1
    21   23   15 2
    22   24   23 1
    23   25   24 2
    24   26   24 2
    25    5    6 2
    26   14   20 1
    27   18   19 2
@<TRIPOS>SUBSTRUCTURE
     1 RES1 1

@<TRIPOS>CRYSIN
   8.1820    6.6140   10.4630  90.0000 112.3800  90.0000 231 1

