# MOL2 file generated by ConQuest
# Please check atom types

@<TRIPOS>MOLECULE
MOSCON
    18    18     1
SMALL
NO_CHARGES
****
Generated from CSD

@<TRIPOS>ATOM
      1 N1         8.3467    0.6944    1.6592 N.3       1 RES1    0.0000
      2 N2         8.2437   -0.4395    0.9123 N.2       1 RES1    0.0000
      3 N3         7.5088   -1.2665    1.5440 N.2       1 RES1    0.0000
      4 N4         7.1185   -0.6796    2.7080 N.pl3     1 RES1    0.0000
      5 H1         6.5959   -1.0526    3.3098 H         1 RES1    0.0000
      6 C1         7.6474    0.5539    2.8051 C.2       1 RES1    0.0000
      7 C2         9.1615    1.8191    1.1840 C.3       1 RES1    0.0000
      8 H2         8.9175    2.6361    1.6873 H         1 RES1    0.0000
      9 H3         8.9694    1.9816    0.2264 H         1 RES1    0.0000
     10 C3        10.6416    1.5468    1.3589 C.3       1 RES1    0.0000
     11 H4        10.8773    0.7044    0.8949 H         1 RES1    0.0000
     12 H5        11.1616    2.2803    0.9440 H         1 RES1    0.0000
     13 O1        10.9934    1.4403    2.7408 O.3       1 RES1    0.0000
     14 H6        11.4571    2.1044    2.9638 H         1 RES1    0.0000
     15 N5         7.6373    1.5184    3.7371 N.2       1 RES1    0.0000
     16 N6         6.8232    1.2949    4.8018 N.pl3     1 RES1    0.0000
     17 O2         6.1332    0.2607    4.8879 O.2       1 RES1    0.0000
     18 O3         6.8097    2.1744    5.6600 O.2       1 RES1    0.0000
@<TRIPOS>BOND
     1    1    2 1
     2    2    3 2
     3    3    4 1
     4    4    5 1
     5    6    1 1
     6    7    1 1
     7    8    7 1
     8    9    7 1
     9   10    7 1
    10   11   10 1
    11   12   10 1
    12   13   10 1
    13   14   13 1
    14   15    6 2
    15   16   15 1
    16   17   16 2
    17   18   16 2
    18    4    6 1
@<TRIPOS>SUBSTRUCTURE
     1 RES1 1

@<TRIPOS>CRYSIN
   7.1095    7.1116    7.8928  89.2350  66.3030  66.8040   2 1

