# MOL2 file generated by ConQuest
# Please check atom types

@<TRIPOS>MOLECULE
MOSRAO
    46    47     1
SMALL
NO_CHARGES
****
Generated from CSD

@<TRIPOS>ATOM
      1 O1         2.1410    7.1340    2.9998 O.2       1 RES1    0.0000
      2 O2         2.4660    6.7477    5.0877 O.2       1 RES1    0.0000
      3 O3        -1.7344    2.7874    1.1207 O.2       1 RES1    0.0000
      4 O4        -0.8806    4.5930    0.3105 O.2       1 RES1    0.0000
      5 O5         1.9457    1.9918    8.7448 O.2       1 RES1    0.0000
      6 O6        -1.9666    3.7919   10.7478 O.2       1 RES1    0.0000
      7 N1         1.8984    6.5062    4.0033 N.pl3     1 RES1    0.0000
      8 N2        -1.0828    3.8216    1.2237 N.pl3     1 RES1    0.0000
      9 N3         0.9694    4.9911    6.3485 N.pl3     1 RES1    0.0000
     10 H1         1.7618    5.4755    6.4399 H         1 RES1    0.0000
     11 N4         0.8343    4.0265    7.3419 N.pl3     1 RES1    0.0000
     12 H2         1.4993    3.4368    7.4364 H         1 RES1    0.0000
     13 N5         0.8298    1.6313   10.7179 N.am      1 RES1    0.0000
     14 H3         1.4015    1.0658   11.0188 H         1 RES1    0.0000
     15 C1         0.9163    5.4242    3.9408 C.ar      1 RES1    0.0000
     16 C2         0.3895    5.1530    2.6693 C.ar      1 RES1    0.0000
     17 H4         0.6558    5.6607    1.9125 H         1 RES1    0.0000
     18 C3        -0.5246    4.1292    2.5503 C.ar      1 RES1    0.0000
     19 C4        -0.9328    3.3736    3.6396 C.ar      1 RES1    0.0000
     20 H5        -1.5597    2.6689    3.5277 H         1 RES1    0.0000
     21 C5        -0.4217    3.6541    4.8811 C.ar      1 RES1    0.0000
     22 H6        -0.7088    3.1390    5.6251 H         1 RES1    0.0000
     23 C6         0.5252    4.6932    5.0849 C.ar      1 RES1    0.0000
     24 C7        -0.0981    4.1268    8.2938 C.2       1 RES1    0.0000
     25 C8        -0.0272    3.2655    9.3831 C.2       1 RES1    0.0000
     26 C9         1.0313    2.2580    9.5476 C.2       1 RES1    0.0000
     27 C10       -0.3023    2.1478   11.4848 C.3       1 RES1    0.0000
     28 H7        -0.9595    1.4125   11.6520 H         1 RES1    0.0000
     29 C11       -0.9166    3.1840   10.5196 C.2       1 RES1    0.0000
     30 C12        0.1270    2.7820   12.8323 C.3       1 RES1    0.0000
     31 H8         0.6195    3.6285   12.6324 H         1 RES1    0.0000
     32 C13        1.0714    1.8560   13.6034 C.3       1 RES1    0.0000
     33 H9         0.6011    1.0026   13.7767 H         1 RES1    0.0000
     34 H10        1.8511    1.6545   13.0277 H         1 RES1    0.0000
     35 C14        1.5758    2.4027   14.9218 C.3       1 RES1    0.0000
     36 H11        0.8307    2.4619   15.5574 H         1 RES1    0.0000
     37 H12        1.9570    3.2946   14.7811 H         1 RES1    0.0000
     38 H13        2.2639    1.8056   15.2810 H         1 RES1    0.0000
     39 C15       -1.0995    3.1361   13.6561 C.3       1 RES1    0.0000
     40 H14       -0.8302    3.6838   14.4227 H         1 RES1    0.0000
     41 H15       -1.5271    2.3143   13.9760 H         1 RES1    0.0000
     42 H16       -1.7318    3.6388   13.1017 H         1 RES1    0.0000
     43 C16       -1.1968    5.1348    8.1268 C.3       1 RES1    0.0000
     44 H17       -1.7693    4.8720    7.3753 H         1 RES1    0.0000
     45 H18       -0.8075    6.0158    7.9475 H         1 RES1    0.0000
     46 H19       -1.7315    5.1738    8.9471 H         1 RES1    0.0000
@<TRIPOS>BOND
     1    1    7 2
     2    2    7 2
     3    3    8 2
     4    4    8 2
     5    5   26 2
     6    6   29 2
     7    7   15 1
     8    8   18 1
     9    9   10 1
    10   11    9 1
    11   12   11 1
    12   13   14 1
    13   15   16 ar
    14   16   17 1
    15   18   16 ar
    16   19   18 ar
    17   20   19 1
    18   21   19 ar
    19   22   21 1
    20   23    9 1
    21   24   11 1
    22   25   24 2
    23   26   13 1
    24   27   13 1
    25   28   27 1
    26   29   25 1
    27   30   27 1
    28   31   30 1
    29   32   30 1
    30   33   32 1
    31   34   32 1
    32   35   32 1
    33   36   35 1
    34   37   35 1
    35   38   35 1
    36   39   30 1
    37   40   39 1
    38   41   39 1
    39   42   39 1
    40   43   24 1
    41   44   43 1
    42   45   43 1
    43   46   43 1
    44   15   23 ar
    45   21   23 ar
    46   25   26 1
    47   27   29 1
@<TRIPOS>SUBSTRUCTURE
     1 RES1 1

@<TRIPOS>CRYSIN
  10.6710    4.9387   16.8390  90.0000 107.3630  90.0000   4 1

