# MOL2 file generated by ConQuest
# Please check atom types

@<TRIPOS>MOLECULE
MOTCEE
    26    26     1
SMALL
NO_CHARGES
****
Generated from CSD

@<TRIPOS>ATOM
      1 O1         0.1382    0.5425    5.4867 O.3       1 RES1    0.0000
      2 O2        -1.6892    0.0585    6.6744 O.2       1 RES1    0.0000
      3 O3        -2.3562    2.5092   10.9027 O.2       1 RES1    0.0000
      4 O4        -1.1803    4.2887   11.2696 O.2       1 RES1    0.0000
      5 O5         3.0859    4.8243    8.9839 O.3       1 RES1    0.0000
      6 O6         3.5212    3.5660    7.1952 O.2       1 RES1    0.0000
      7 N1        -1.4323    3.2673   10.6440 N.pl3     1 RES1    0.0000
      8 C1        -0.1851    1.6903    7.5111 C.ar      1 RES1    0.0000
      9 C2         1.0371    2.3276    7.3642 C.ar      1 RES1    0.0000
     10 H1         1.5908    2.1228    6.6198 H         1 RES1    0.0000
     11 C3         1.4569    3.2664    8.3028 C.ar      1 RES1    0.0000
     12 C4         0.6481    3.5855    9.3847 C.ar      1 RES1    0.0000
     13 H2         0.9184    4.2335   10.0247 H         1 RES1    0.0000
     14 C5        -0.5637    2.9315    9.5031 C.ar      1 RES1    0.0000
     15 C6        -0.9951    1.9816    8.6077 C.ar      1 RES1    0.0000
     16 H3        -1.8239    1.5347    8.7333 H         1 RES1    0.0000
     17 C7        -0.6745    0.6805    6.5329 C.2       1 RES1    0.0000
     18 C8        -0.3156   -0.4176    4.4858 C.3       1 RES1    0.0000
     19 H4        -1.1525   -0.1008    4.0638 H         1 RES1    0.0000
     20 H5        -0.4905   -1.2950    4.9096 H         1 RES1    0.0000
     21 C9         0.7432   -0.5463    3.4755 C.3       1 RES1    0.0000
     22 H6         0.8822    0.3186    3.0361 H         1 RES1    0.0000
     23 H7         0.4782   -1.2128    2.8070 H         1 RES1    0.0000
     24 H8         1.5752   -0.8301    3.9085 H         1 RES1    0.0000
     25 C10        2.7834    3.8976    8.1122 C.2       1 RES1    0.0000
     26 H9         3.9308    5.1234    8.7820 H         1 RES1    0.0000
@<TRIPOS>BOND
     1    1   17 1
     2    2   17 2
     3    3    7 2
     4    4    7 2
     5    5   25 1
     6    6   25 2
     7    7   14 1
     8    8    9 ar
     9    9   10 1
    10   11    9 ar
    11   12   11 ar
    12   13   12 1
    13   14   12 ar
    14   15    8 ar
    15   16   15 1
    16   17    8 1
    17   18    1 1
    18   19   18 1
    19   20   18 1
    20   21   18 1
    21   22   21 1
    22   23   21 1
    23   24   21 1
    24   25   11 1
    25   26    5 1
    26   14   15 ar
@<TRIPOS>SUBSTRUCTURE
     1 RES1 1

@<TRIPOS>CRYSIN
  14.2490    4.6450   16.5360  90.0000 108.4010  90.0000 231 1

