# MOL2 file generated by ConQuest
# Please check atom types

@<TRIPOS>MOLECULE
MOTHOU
    55    59     1
SMALL
NO_CHARGES
****
Generated from CSD

@<TRIPOS>ATOM
      1 O1         0.6822   -0.5972    6.1164 O.3       1 RES1    0.0000
      2 O2         3.4487   -0.5386    5.6342 O.3       1 RES1    0.0000
      3 N1         2.9941   -1.0483    3.5567 N.2       1 RES1    0.0000
      4 N2         4.5437   -0.0839    4.8651 N.2       1 RES1    0.0000
      5 C1        -2.0370    4.7408    4.1122 C.3       1 RES1    0.0000
      6 H1        -2.7308    4.0807    4.0446 H         1 RES1    0.0000
      7 H2        -2.3262    5.5534    3.6895 H         1 RES1    0.0000
      8 H3        -1.8464    4.9119    5.0373 H         1 RES1    0.0000
      9 C2        -1.0246    4.0463    1.9480 C.3       1 RES1    0.0000
     10 H4        -1.7034    3.3812    1.8140 H         1 RES1    0.0000
     11 H5        -0.2093    3.7614    1.5277 H         1 RES1    0.0000
     12 H6        -1.3096    4.8777    1.5628 H         1 RES1    0.0000
     13 C3         0.2877    5.3005    3.5555 C.3       1 RES1    0.0000
     14 H7         0.4625    5.4685    4.4842 H         1 RES1    0.0000
     15 H8        -0.0136    6.1104    3.1352 H         1 RES1    0.0000
     16 H9         1.0921    4.9991    3.1268 H         1 RES1    0.0000
     17 C4        -0.7883    4.2324    3.4261 C.3       1 RES1    0.0000
     18 C5        -0.3638    2.9317    4.1067 C.ar      1 RES1    0.0000
     19 C6        -0.7108    1.6962    3.6174 C.ar      1 RES1    0.0000
     20 H10       -1.1955    1.6485    2.8248 H         1 RES1    0.0000
     21 C7        -0.3690    0.5208    4.2590 C.ar      1 RES1    0.0000
     22 H11       -0.6316   -0.2973    3.9021 H         1 RES1    0.0000
     23 C8         0.3460    0.5594    5.4007 C.ar      1 RES1    0.0000
     24 C9         0.7167    1.7553    5.9203 C.ar      1 RES1    0.0000
     25 H12        1.2205    1.7871    6.7016 H         1 RES1    0.0000
     26 C10        0.3462    2.9257    5.2878 C.ar      1 RES1    0.0000
     27 H13        0.5844    3.7383    5.6726 H         1 RES1    0.0000
     28 C11        1.3147   -1.6069    5.3369 C.3       1 RES1    0.0000
     29 H14        0.7282   -1.8770    4.6134 H         1 RES1    0.0000
     30 H15        1.4899   -2.3843    5.8900 H         1 RES1    0.0000
     31 C12        2.5955   -1.0878    4.7783 C.2       1 RES1    0.0000
     32 C13        4.2183   -0.4135    3.6673 C.2       1 RES1    0.0000
     33 C14        5.0645   -0.0873    2.4926 C.ar      1 RES1    0.0000
     34 C15        4.7940    1.0887    1.7745 C.ar      1 RES1    0.0000
     35 C16        3.8022    2.0336    2.1670 C.ar      1 RES1    0.0000
     36 H16        3.2938    1.8750    2.9299 H         1 RES1    0.0000
     37 C17        3.5879    3.1576    1.4468 C.ar      1 RES1    0.0000
     38 H17        2.9470    3.7693    1.7306 H         1 RES1    0.0000
     39 C18        4.3263    3.4154    0.2673 C.ar      1 RES1    0.0000
     40 H18        4.1624    4.1883   -0.2234 H         1 RES1    0.0000
     41 C19        5.2633    2.5452   -0.1454 C.ar      1 RES1    0.0000
     42 H19        5.7362    2.7214   -0.9263 H         1 RES1    0.0000
     43 C20        5.5465    1.3623    0.5874 C.ar      1 RES1    0.0000
     44 C21        6.5371    0.4647    0.1958 C.ar      1 RES1    0.0000
     45 H20        7.0137    0.6361   -0.5833 H         1 RES1    0.0000
     46 C22        6.8370   -0.6694    0.9217 C.ar      1 RES1    0.0000
     47 C23        7.8871   -1.5721    0.5504 C.ar      1 RES1    0.0000
     48 H21        8.3894   -1.3983   -0.2126 H         1 RES1    0.0000
     49 C24        8.1588   -2.6627    1.2833 C.ar      1 RES1    0.0000
     50 H22        8.8474   -3.2312    1.0229 H         1 RES1    0.0000
     51 C25        7.4172   -2.9585    2.4379 C.ar      1 RES1    0.0000
     52 H23        7.6254   -3.7155    2.9371 H         1 RES1    0.0000
     53 C26        6.4021   -2.1524    2.8328 C.ar      1 RES1    0.0000
     54 H24        5.9086   -2.3750    3.5893 H         1 RES1    0.0000
     55 C27        6.0800   -0.9696    2.1060 C.ar      1 RES1    0.0000
@<TRIPOS>BOND
     1    1   23 1
     2    2    4 1
     3    3   31 2
     4    4   32 2
     5    5    6 1
     6    7    5 1
     7    8    5 1
     8    9   10 1
     9   11    9 1
    10   12    9 1
    11   13   14 1
    12   15   13 1
    13   16   13 1
    14   17    5 1
    15   18   17 1
    16   19   18 ar
    17   20   19 1
    18   21   19 ar
    19   22   21 1
    20   23   21 ar
    21   24   23 ar
    22   25   24 1
    23   26   18 ar
    24   27   26 1
    25   28    1 1
    26   29   28 1
    27   30   28 1
    28   31    2 1
    29   32    3 1
    30   33   32 1
    31   34   33 ar
    32   35   34 ar
    33   36   35 1
    34   37   35 ar
    35   38   37 1
    36   39   37 ar
    37   40   39 1
    38   41   39 ar
    39   42   41 1
    40   43   34 ar
    41   44   43 ar
    42   45   44 1
    43   46   44 ar
    44   47   46 ar
    45   48   47 1
    46   49   47 ar
    47   50   49 1
    48   51   49 ar
    49   52   51 1
    50   53   51 ar
    51   54   53 1
    52   55   33 ar
    53    9   17 1
    54   13   17 1
    55   24   26 ar
    56   28   31 1
    57   41   43 ar
    58   46   55 ar
    59   53   55 ar
@<TRIPOS>SUBSTRUCTURE
     1 RES1 1

@<TRIPOS>CRYSIN
   9.0021   10.6361   12.6450 104.6250  93.6770 109.0640   2 1

