# MOL2 file generated by ConQuest
# Please check atom types

@<TRIPOS>MOLECULE
MOVCAC
    38    40     1
SMALL
NO_CHARGES
****
Generated from CSD

@<TRIPOS>ATOM
      1 O1        -0.3984    4.6227   18.0871 O.3       1 RES1    0.0000
      2 N1         4.5021    2.4768   14.6564 N.pl3     1 RES1    0.0000
      3 O2         4.6290    1.4414   14.0287 O.2       1 RES1    0.0000
      4 O3         5.4039    3.2992   14.7844 O.2       1 RES1    0.0000
      5 C1         0.8077    3.2386   16.5660 C.ar      1 RES1    0.0000
      6 C2         3.2144    2.7387   15.3193 C.ar      1 RES1    0.0000
      7 C3        -0.5270    3.5061   17.2123 C.3       1 RES1    0.0000
      8 H1        -0.7785    2.7220   17.7445 H         1 RES1    0.0000
      9 C4         3.0592    3.8998   16.0283 C.ar      1 RES1    0.0000
     10 H2         3.7560    4.5131   16.0918 H         1 RES1    0.0000
     11 C5         2.2015    1.8195   15.2032 C.ar      1 RES1    0.0000
     12 H3         2.3207    1.0410   14.7090 H         1 RES1    0.0000
     13 C6         1.8433    4.1445   16.6512 C.ar      1 RES1    0.0000
     14 H4         1.7244    4.9313   17.1339 H         1 RES1    0.0000
     15 C7         1.0071    2.0736   15.8339 C.ar      1 RES1    0.0000
     16 H5         0.3165    1.4530   15.7705 H         1 RES1    0.0000
     17 C8        -1.6182    3.7580   16.1735 C.3       1 RES1    0.0000
     18 H6        -1.7211    2.9684   15.6196 H         1 RES1    0.0000
     19 H7        -1.3509    4.4931   15.6001 H         1 RES1    0.0000
     20 C9        -2.9639    4.0922   16.8351 C.3       1 RES1    0.0000
     21 H8        -3.2345    3.3042   17.3522 H         1 RES1    0.0000
     22 C10       -4.0560    4.3569   15.8282 C.ar      1 RES1    0.0000
     23 C11       -2.7515    5.2283   17.8310 C.3       1 RES1    0.0000
     24 H9        -2.5466    6.0451   17.3504 H         1 RES1    0.0000
     25 H10       -3.5681    5.3734   18.3339 H         1 RES1    0.0000
     26 C12       -1.6208    4.9074   18.7856 C.3       1 RES1    0.0000
     27 H11       -1.4814    5.6603   19.3812 H         1 RES1    0.0000
     28 H12       -1.8666    4.1406   19.3262 H         1 RES1    0.0000
     29 C13       -5.1075    3.4733   15.6748 C.ar      1 RES1    0.0000
     30 H13       -5.1261    2.6942   16.1824 H         1 RES1    0.0000
     31 C14       -6.1174    4.8596   14.0115 C.ar      1 RES1    0.0000
     32 H14       -6.8071    5.0320   13.4131 H         1 RES1    0.0000
     33 C15       -4.0545    5.4907   15.0269 C.ar      1 RES1    0.0000
     34 H15       -3.3501    6.0935   15.0942 H         1 RES1    0.0000
     35 C16       -6.1335    3.7263   14.7786 C.ar      1 RES1    0.0000
     36 H16       -6.8361    3.1229   14.6983 H         1 RES1    0.0000
     37 C17       -5.0690    5.7421   14.1367 C.ar      1 RES1    0.0000
     38 H17       -5.0481    6.5123   13.6155 H         1 RES1    0.0000
@<TRIPOS>BOND
     1    1    7 1
     2    2    3 2
     3    4    2 2
     4    5    7 1
     5    6    2 1
     6    7    8 1
     7    9    6 ar
     8   10    9 1
     9   11    6 ar
    10   12   11 1
    11   13    5 ar
    12   14   13 1
    13   15    5 ar
    14   16   15 1
    15   17    7 1
    16   18   17 1
    17   19   17 1
    18   20   17 1
    19   21   20 1
    20   22   20 1
    21   23   20 1
    22   24   23 1
    23   25   23 1
    24   26    1 1
    25   27   26 1
    26   28   26 1
    27   29   22 ar
    28   30   29 1
    29   31   32 1
    30   33   22 ar
    31   34   33 1
    32   35   29 ar
    33   36   35 1
    34   37   31 ar
    35   38   37 1
    36    9   13 ar
    37   11   15 ar
    38   23   26 1
    39   31   35 ar
    40   33   37 ar
@<TRIPOS>SUBSTRUCTURE
     1 RES1 1

@<TRIPOS>CRYSIN
  15.0086    5.5608   18.4430  90.0000 105.7380  90.0000  14 1

