# MOL2 file generated by ConQuest
# Please check atom types

@<TRIPOS>MOLECULE
MOVREU
    29    29     1
SMALL
NO_CHARGES
****
Generated from CSD

@<TRIPOS>ATOM
      1 O1        -5.9285    5.5786   11.5080 O.2       1 RES1    0.0000
      2 O2        -1.9540    0.4770    9.2726 O.2       1 RES1    0.0000
      3 O3        -0.1446    1.6913    9.7245 O.3       1 RES1    0.0000
      4 H1         0.3119    0.8575    9.4942 H         1 RES1    0.0000
      5 N1        -4.6827    5.6683   11.7869 N.pl3     1 RES1    0.0000
      6 C1        -4.2634    6.7766   12.7279 C.3       1 RES1    0.0000
      7 C2        -3.8247    4.6850   11.2431 C.ar      1 RES1    0.0000
      8 C3        -4.4121    3.4990   10.7877 C.ar      1 RES1    0.0000
      9 H2        -5.3440    3.3848   10.8437 H         1 RES1    0.0000
     10 C4        -3.6292    2.4994   10.2578 C.ar      1 RES1    0.0000
     11 H3        -4.0314    1.7055    9.9551 H         1 RES1    0.0000
     12 C5        -2.2531    2.6475   10.1633 C.ar      1 RES1    0.0000
     13 C6        -1.6756    3.8423   10.5773 C.ar      1 RES1    0.0000
     14 H4        -0.7480    3.9652   10.4894 H         1 RES1    0.0000
     15 C7        -2.4513    4.8497   11.1149 C.ar      1 RES1    0.0000
     16 H5        -2.0481    5.6515   11.3945 H         1 RES1    0.0000
     17 C8        -1.4353    1.5251    9.6738 C.2       1 RES1    0.0000
     18 C9        -3.3409    6.2136   13.8025 C.3       1 RES1    0.0000
     19 H6        -3.1771    6.8925   14.4754 H         1 RES1    0.0000
     20 H7        -2.4999    5.9478   13.3995 H         1 RES1    0.0000
     21 H8        -3.7590    5.4423   14.2165 H         1 RES1    0.0000
     22 C10       -3.5901    7.8790   11.9233 C.3       1 RES1    0.0000
     23 H9        -2.7210    7.5731   11.6204 H         1 RES1    0.0000
     24 H10       -3.4793    8.6650   12.4815 H         1 RES1    0.0000
     25 H11       -4.1402    8.1021   11.1558 H         1 RES1    0.0000
     26 C11       -5.5298    7.3090   13.3738 C.3       1 RES1    0.0000
     27 H12       -5.2995    7.9923   14.0238 H         1 RES1    0.0000
     28 H13       -5.9954    6.5840   13.8181 H         1 RES1    0.0000
     29 H14       -6.1035    7.6925   12.6926 H         1 RES1    0.0000
@<TRIPOS>BOND
     1    1    5 1
     2    2   17 2
     3    3    4 1
     4    5    6 1
     5    6   18 1
     6    7    5 1
     7    8    7 ar
     8    9    8 1
     9   10    8 ar
    10   11   10 1
    11   12   10 ar
    12   13   12 ar
    13   14   13 1
    14   15    7 ar
    15   16   15 1
    16   17    3 1
    17   18   19 1
    18   20   18 1
    19   21   18 1
    20   22    6 1
    21   23   22 1
    22   24   22 1
    23   25   22 1
    24   26    6 1
    25   27   26 1
    26   28   26 1
    27   29   26 1
    28   12   17 1
    29   13   15 ar
@<TRIPOS>SUBSTRUCTURE
     1 RES1 1

@<TRIPOS>CRYSIN
   6.8949    8.7147   18.3770  90.0000  92.4270  90.0000 231 1

