# MOL2 file generated by ConQuest
# Please check atom types

@<TRIPOS>MOLECULE
MOVTAS
    36    37     1
SMALL
NO_CHARGES
****
Generated from CSD

@<TRIPOS>ATOM
      1 N1        10.1337    8.7256    5.5853 N.am      1 RES1    0.0000
      2 H1        10.7379    8.1261    5.9543 H         1 RES1    0.0000
      3 C1         9.9190    9.8569    6.3586 C.2       1 RES1    0.0000
      4 O1        10.5833   10.0729    7.3605 O.2       1 RES1    0.0000
      5 N2         8.9430   10.7199    5.9360 N.2       1 RES1    0.0000
      6 C2         8.3743   10.5209    4.7649 C.2       1 RES1    0.0000
      7 C3         8.6858    9.4630    3.8971 C.2       1 RES1    0.0000
      8 C4         9.5809    8.5125    4.3740 C.2       1 RES1    0.0000
      9 C5         7.4529   11.6262    4.3585 C.2       1 RES1    0.0000
     10 N3         7.7906   12.7430    3.8682 N.2       1 RES1    0.0000
     11 O2         9.1445   12.8295    3.7292 O.3       1 RES1    0.0000
     12 H2         9.2770   13.6673    3.2735 H         1 RES1    0.0000
     13 N4         6.0172   11.4350    4.5680 N.pl3     1 RES1    0.0000
     14 O3         5.2474   12.3034    4.2054 O.2       1 RES1    0.0000
     15 O4         5.6975   10.3788    5.1063 O.2       1 RES1    0.0000
     16 C6         8.2247    9.4713    2.4777 C.2       1 RES1    0.0000
     17 O5         8.9092    9.1750    1.5427 O.2       1 RES1    0.0000
     18 O6         6.9587    9.9028    2.4019 O.3       1 RES1    0.0000
     19 C7         6.4471   10.1362    1.0547 C.3       1 RES1    0.0000
     20 H3         6.7087    9.3918    0.4557 H         1 RES1    0.0000
     21 H4         6.8168   10.9792    0.6893 H         1 RES1    0.0000
     22 C8         4.9491   10.2240    1.1499 C.3       1 RES1    0.0000
     23 H5         4.5734   10.3842    0.2589 H         1 RES1    0.0000
     24 H6         4.7018   10.9620    1.7461 H         1 RES1    0.0000
     25 H7         4.5945    9.3832    1.5076 H         1 RES1    0.0000
     26 C9         9.9538    7.2758    3.6742 C.ar      1 RES1    0.0000
     27 C10        8.9794    6.5296    3.0167 C.ar      1 RES1    0.0000
     28 H8         8.0755    6.8242    3.0167 H         1 RES1    0.0000
     29 C11        9.3254    5.3604    2.3634 C.ar      1 RES1    0.0000
     30 H9         8.6583    4.8516    1.9189 H         1 RES1    0.0000
     31 C12       10.6424    4.9288    2.3556 C.ar      1 RES1    0.0000
     32 H10       10.8777    4.1292    1.9020 H         1 RES1    0.0000
     33 C13       11.6119    5.6657    3.0110 C.ar      1 RES1    0.0000
     34 H11       12.5155    5.3727    2.9983 H         1 RES1    0.0000
     35 C14       11.2759    6.8281    3.6848 C.ar      1 RES1    0.0000
     36 H12       11.9424    7.3177    4.1518 H         1 RES1    0.0000
@<TRIPOS>BOND
     1    1    2 1
     2    3    1 1
     3    4    3 2
     4    5    3 1
     5    6    5 2
     6    7    6 1
     7    8    1 1
     8    9    6 1
     9   10    9 2
    10   11   10 1
    11   12   11 1
    12   13    9 1
    13   14   13 2
    14   15   13 2
    15   16    7 1
    16   17   16 2
    17   18   16 1
    18   19   18 1
    19   20   19 1
    20   21   19 1
    21   22   19 1
    22   23   22 1
    23   24   22 1
    24   25   22 1
    25   26    8 1
    26   27   26 ar
    27   28   27 1
    28   29   27 ar
    29   30   29 1
    30   31   29 ar
    31   32   31 1
    32   33   31 ar
    33   34   33 1
    34   35   26 ar
    35   36   35 1
    36    7    8 2
    37   33   35 ar
@<TRIPOS>SUBSTRUCTURE
     1 RES1 1

@<TRIPOS>CRYSIN
  12.4390   17.1980    7.1450  90.0000  99.1100  90.0000  14 1

