# MOL2 file generated by ConQuest
# Please check atom types

@<TRIPOS>MOLECULE
MOVVAV
    19    17     2
SMALL
NO_CHARGES
****
Generated from CSD

@<TRIPOS>ATOM
      1 O1         1.8744    2.2073    0.2171 O.2       1 RES1    0.0000
      2 O2         2.4044    4.2868   -0.0482 O.2       1 RES1    0.0000
      3 N1         2.6732    3.1387    0.3015 N.pl3     1 RES1    0.0000
      4 C1         4.0080    2.8680    0.8441 C.ar      1 RES1    0.0000
      5 C2         4.8569    3.9124    1.1057 C.ar      1 RES1    0.0000
      6 H1         4.5725    4.7849    0.9557 H         1 RES1    0.0000
      7 C3         6.1232    3.6830    1.5858 C.ar      1 RES1    0.0000
      8 C4         6.5123    2.3582    1.8036 C.ar      1 RES1    0.0000
      9 H2         7.3666    2.1736    2.1209 H         1 RES1    0.0000
     10 C5         5.6374    1.3260    1.5519 C.ar      1 RES1    0.0000
     11 H3         5.9076    0.4505    1.7094 H         1 RES1    0.0000
     12 C6         4.3876    1.5628    1.0763 C.ar      1 RES1    0.0000
     13 H4         3.8012    0.8604    0.9105 H         1 RES1    0.0000
     14 C7         7.0833    4.8209    1.8646 C.3       1 RES1    0.0000
     15 H5         6.5949    5.5756    2.2008 H         1 RES1    0.0000
     16 H6         7.5334    5.0659    1.0529 H         1 RES1    0.0000
     17 H7         7.7300    4.5411    2.5166 H         1 RES1    0.0000
     18 O3         2.0411    2.2061   -0.1929 Du        2 SUP2    0.0000
     19 O4         2.2369    4.2868    0.3610 Du        2 SUP2    0.0000
@<TRIPOS>BOND
     1    1    3 2
     2    2    3 2
     3    3    4 1
     4    4    5 ar
     5    5    6 1
     6    7    5 ar
     7    8    7 ar
     8    9    8 1
     9   10    8 ar
    10   11   10 1
    11   12    4 ar
    12   13   12 1
    13   14    7 1
    14   15   14 1
    15   16   14 1
    16   17   14 1
    17   10   12 ar
@<TRIPOS>SUBSTRUCTURE
     1 RES1 1
     2 SUP2 18

@<TRIPOS>CRYSIN
   7.8880   11.6110    7.5370  90.0000  90.1500  90.0000  14 1

