# MOL2 file generated by ConQuest
# Please check atom types

@<TRIPOS>MOLECULE
MOWBUX
    27    25     2
SMALL
NO_CHARGES
****
Generated from CSD

@<TRIPOS>ATOM
      1 O1        -0.7717    4.1565    7.4762 O.3       1 RES1    0.0000
      2 O2        -3.0604    1.5055    1.3229 O.2       1 RES1    0.0000
      3 N1        -1.4453    3.2702    6.6127 N.2       1 RES1    0.0000
      4 N2        -3.1080    3.5096    4.9759 N.pl3     1 RES1    0.0000
      5 N3        -3.9153    4.2872    4.2616 N.2       1 RES1    0.0000
      6 N4        -4.5750    3.4837    3.4629 N.2       1 RES1    0.0000
      7 N5        -3.2076    2.1992    4.6888 N.2       1 RES1    0.0000
      8 C1        -1.2366    5.4266    7.2761 C.2       1 RES1    0.0000
      9 C2        -2.1808    5.4053    6.3170 C.2       1 RES1    0.0000
     10 H1        -2.6759    6.1361    5.9657 H         1 RES1    0.0000
     11 C3        -2.2621    4.0540    5.9580 C.2       1 RES1    0.0000
     12 C4        -4.1402    2.2275    3.7413 C.2       1 RES1    0.0000
     13 C5        -0.6518    6.4877    8.1190 C.3       1 RES1    0.0000
     14 H2         0.0240    6.0985    8.7123 H         1 RES1    0.0000
     15 H3        -1.3573    6.9044    8.6557 H         1 RES1    0.0000
     16 H4        -0.2329    7.1652    7.5469 H         1 RES1    0.0000
     17 C6        -4.6531    1.0302    3.0174 C.3       1 RES1    0.0000
     18 H5        -5.6301    1.1264    2.8897 H         1 RES1    0.0000
     19 H6        -4.4986    0.2272    3.5752 H         1 RES1    0.0000
     20 C7        -4.0025    0.8263    1.6753 C.2       1 RES1    0.0000
     21 C8        -4.5645   -0.2746    0.8228 C.3       1 RES1    0.0000
     22 H7        -5.4701   -0.0350    0.5347 H         1 RES1    0.0000
     23 H8        -4.5961   -1.1056    1.3412 H         1 RES1    0.0000
     24 H9        -3.9944   -0.4017    0.0365 H         1 RES1    0.0000
     25 H10       -1.0687    7.3472    7.8982 Du        2 SUP2    0.0000
     26 H11        0.3128    6.5407    7.9549 Du        2 SUP2    0.0000
     27 H12       -0.8111    6.2807    9.0628 Du        2 SUP2    0.0000
@<TRIPOS>BOND
     1    1    3 1
     2    2   20 2
     3    3   11 2
     4    4    5 1
     5    5    6 2
     6    6   12 1
     7    7    4 1
     8    8    1 1
     9    9    8 2
    10   10    9 1
    11   11    4 1
    12   12    7 2
    13   13    8 1
    14   14   13 1
    15   15   13 1
    16   16   13 1
    17   17   12 1
    18   18   17 1
    19   19   17 1
    20   20   17 1
    21   21   20 1
    22   22   21 1
    23   23   21 1
    24   24   21 1
    25    9   11 1
@<TRIPOS>SUBSTRUCTURE
     1 RES1 1
     2 SUP2 25

@<TRIPOS>CRYSIN
   4.4770    5.7810    9.9790  97.4900 101.7100 103.4000   1 1

