# MOL2 file generated by ConQuest
# Please check atom types

@<TRIPOS>MOLECULE
MOWNER01
    87    89     1
SMALL
NO_CHARGES
****
Generated from CSD

@<TRIPOS>ATOM
      1 O1         4.0294    6.6892    7.2081 O.3       1 RES1    0.0000
      2 O2         0.2013   -3.7862   15.8234 O.3       1 RES1    0.0000
      3 O3        -1.7480   -4.8928   15.5886 O.2       1 RES1    0.0000
      4 O4        -4.5575   -1.4650   19.6105 O.2       1 RES1    0.0000
      5 N1         9.5316   15.5939    3.6984 N.1       1 RES1    0.0000
      6 N2        -3.6965   -2.0529   18.8302 N.3       1 RES1    0.0000
      7 C1         8.9356   14.6935    4.0479 C.1       1 RES1    0.0000
      8 C2         8.2210   13.5389    4.5175 C.ar      1 RES1    0.0000
      9 C3         8.7103   12.7884    5.5420 C.ar      1 RES1    0.0000
     10 C4         7.0219   13.1531    3.9702 C.ar      1 RES1    0.0000
     11 C5         8.0532   11.6752    5.9747 C.ar      1 RES1    0.0000
     12 C6         6.3600   12.0260    4.4325 C.ar      1 RES1    0.0000
     13 C7         6.8480   11.2636    5.4384 C.ar      1 RES1    0.0000
     14 C8         6.1569   10.0368    5.9155 C.ar      1 RES1    0.0000
     15 C9         6.4992    9.3844    7.0472 C.ar      1 RES1    0.0000
     16 C10        5.0933    9.5034    5.2554 C.ar      1 RES1    0.0000
     17 C11        5.8443    8.2501    7.5299 C.ar      1 RES1    0.0000
     18 C12        4.4233    8.3888    5.7066 C.ar      1 RES1    0.0000
     19 C13        4.7905    7.7719    6.8364 C.ar      1 RES1    0.0000
     20 C14        4.4089    5.9477    8.3398 C.3       1 RES1    0.0000
     21 C15        3.3959    4.8117    8.4822 C.3       1 RES1    0.0000
     22 C16        3.6669    3.9013    9.6527 C.3       1 RES1    0.0000
     23 C17        2.6642    2.7463    9.7637 C.3       1 RES1    0.0000
     24 C18        2.8751    1.8189   10.9268 C.3       1 RES1    0.0000
     25 C19        1.9069    0.6757   11.0008 C.3       1 RES1    0.0000
     26 C20        2.0938   -0.2585   12.1195 C.3       1 RES1    0.0000
     27 C21        1.1349   -1.4368   12.2175 C.3       1 RES1    0.0000
     28 C22        1.3813   -2.3390   13.4158 C.3       1 RES1    0.0000
     29 C23        0.4910   -3.6029   13.4139 C.3       1 RES1    0.0000
     30 C24        0.6869   -4.4505   14.6085 C.3       1 RES1    0.0000
     31 C25       -1.0676   -4.0901   16.1674 C.2       1 RES1    0.0000
     32 C26       -1.5629   -3.2429   17.3139 C.3       1 RES1    0.0000
     33 C27       -2.3652   -2.0693   16.7684 C.3       1 RES1    0.0000
     34 C28       -2.4485   -4.0508   18.2366 C.3       1 RES1    0.0000
     35 C29       -3.0354   -1.1695   17.8150 C.3       1 RES1    0.0000
     36 C30       -3.1112   -3.3215   19.3757 C.3       1 RES1    0.0000
     37 C31       -1.9763   -0.2728   18.5232 C.3       1 RES1    0.0000
     38 C32       -4.1064   -0.3205   17.1530 C.3       1 RES1    0.0000
     39 C33       -2.1267   -3.0519   20.4704 C.3       1 RES1    0.0000
     40 C34       -4.2413   -4.1651   19.9083 C.3       1 RES1    0.0000
     41 H1         9.5722   13.0632    5.9692 H         1 RES1    0.0000
     42 H2         6.5811   13.6965    3.1695 H         1 RES1    0.0000
     43 H3         8.5219   11.0271    6.6423 H         1 RES1    0.0000
     44 H4         5.4625   11.7764    4.0053 H         1 RES1    0.0000
     45 H5         7.3395    9.7047    7.5576 H         1 RES1    0.0000
     46 H6         4.7401    9.9371    4.4029 H         1 RES1    0.0000
     47 H7         6.1480    7.7740    8.3546 H         1 RES1    0.0000
     48 H8         3.7121    7.9579    5.1703 H         1 RES1    0.0000
     49 H9         5.2878    5.5712    8.2769 H         1 RES1    0.0000
     50 H10        4.4028    6.5116    9.1349 H         1 RES1    0.0000
     51 H11        2.4292    5.2306    8.5543 H         1 RES1    0.0000
     52 H12        3.2707    4.3308    7.6131 H         1 RES1    0.0000
     53 H13        4.5864    3.5258    9.5843 H         1 RES1    0.0000
     54 H14        3.6971    4.3907   10.5163 H         1 RES1    0.0000
     55 H15        1.7779    3.0962    9.8635 H         1 RES1    0.0000
     56 H16        2.6870    2.2149    8.9667 H         1 RES1    0.0000
     57 H17        3.7838    1.4180   10.8565 H         1 RES1    0.0000
     58 H18        2.8818    2.3040   11.7571 H         1 RES1    0.0000
     59 H19        0.9883    1.0775   11.0821 H         1 RES1    0.0000
     60 H20        1.8746    0.2069   10.1538 H         1 RES1    0.0000
     61 H21        2.9886   -0.6347   12.0067 H         1 RES1    0.0000
     62 H22        2.0998    0.2344   12.9350 H         1 RES1    0.0000
     63 H23        0.1993   -1.0634   12.3137 H         1 RES1    0.0000
     64 H24        1.1052   -1.9464   11.4150 H         1 RES1    0.0000
     65 H25        2.3280   -2.6338   13.4250 H         1 RES1    0.0000
     66 H26        1.2811   -1.8692   14.2757 H         1 RES1    0.0000
     67 H27       -0.4696   -3.3127   13.4213 H         1 RES1    0.0000
     68 H28        0.5767   -4.0759   12.5689 H         1 RES1    0.0000
     69 H29        1.7419   -4.5714   14.7250 H         1 RES1    0.0000
     70 H30        0.4226   -5.3653   14.5364 H         1 RES1    0.0000
     71 H31       -0.8193   -2.8632   17.8945 H         1 RES1    0.0000
     72 H32       -1.7864   -1.4924   16.2081 H         1 RES1    0.0000
     73 H33       -3.0439   -2.4000   16.1692 H         1 RES1    0.0000
     74 H34       -3.1029   -4.4697   17.6671 H         1 RES1    0.0000
     75 H35       -1.8985   -4.7935   18.5898 H         1 RES1    0.0000
     76 H36       -2.0502   -0.3562   19.5162 H         1 RES1    0.0000
     77 H37       -1.0691   -0.5489   18.3291 H         1 RES1    0.0000
     78 H38       -2.0421    0.6580   18.3420 H         1 RES1    0.0000
     79 H39       -4.5682    0.2137   17.6819 H         1 RES1    0.0000
     80 H40       -3.6703    0.2179   16.4170 H         1 RES1    0.0000
     81 H41       -4.7019   -0.9195   16.6315 H         1 RES1    0.0000
     82 H42       -2.4908   -3.1205   21.3377 H         1 RES1    0.0000
     83 H43       -1.4024   -3.7923   20.4593 H         1 RES1    0.0000
     84 H44       -1.6352   -2.2613   20.3706 H         1 RES1    0.0000
     85 H45       -4.2952   -4.1454   20.8902 H         1 RES1    0.0000
     86 H46       -5.1225   -3.8347   19.6142 H         1 RES1    0.0000
     87 H47       -4.2082   -5.0872   19.6605 H         1 RES1    0.0000
@<TRIPOS>BOND
     1    1   19 1
     2    2   30 1
     3    3   31 2
     4    4    6 1
     5    5    7 3
     6    6   35 1
     7    7    8 1
     8    8    9 ar
     9    9   11 ar
    10   10    8 ar
    11   11   13 ar
    12   12   10 ar
    13   13   12 ar
    14   14   13 1
    15   15   14 ar
    16   16   14 ar
    17   17   15 ar
    18   18   16 ar
    19   19   17 ar
    20   20    1 1
    21   21   20 1
    22   22   21 1
    23   23   22 1
    24   24   23 1
    25   25   24 1
    26   26   25 1
    27   27   26 1
    28   28   27 1
    29   29   28 1
    30   30   29 1
    31   31    2 1
    32   32   31 1
    33   33   32 1
    34   34   32 1
    35   35   33 1
    36   36    6 1
    37   37   35 1
    38   38   35 1
    39   39   36 1
    40   40   36 1
    41   41    9 1
    42   42   10 1
    43   43   11 1
    44   44   12 1
    45   45   15 1
    46   46   16 1
    47   47   17 1
    48   48   18 1
    49   49   20 1
    50   50   20 1
    51   51   21 1
    52   52   21 1
    53   53   22 1
    54   54   22 1
    55   55   23 1
    56   56   23 1
    57   57   24 1
    58   58   24 1
    59   59   25 1
    60   60   25 1
    61   61   26 1
    62   62   26 1
    63   63   27 1
    64   64   27 1
    65   65   28 1
    66   66   28 1
    67   67   29 1
    68   68   29 1
    69   69   30 1
    70   70   30 1
    71   71   32 1
    72   72   33 1
    73   73   33 1
    74   74   34 1
    75   75   34 1
    76   76   37 1
    77   77   37 1
    78   78   37 1
    79   79   38 1
    80   80   38 1
    81   81   38 1
    82   82   39 1
    83   83   39 1
    84   84   39 1
    85   85   40 1
    86   86   40 1
    87   87   40 1
    88   18   19 ar
    89   34   36 1
@<TRIPOS>SUBSTRUCTURE
     1 RES1 1

@<TRIPOS>CRYSIN
   5.7679   14.8910   18.6370  84.8600  84.6640  85.7370   2 1

