# MOL2 file generated by ConQuest
# Please check atom types

@<TRIPOS>MOLECULE
MOWRUM
    37    38     1
SMALL
NO_CHARGES
****
Generated from CSD

@<TRIPOS>ATOM
      1 O1         3.9451    6.6262    4.7051 O.3       1 RES1    0.0000
      2 O2         5.6232    5.9707    3.3734 O.2       1 RES1    0.0000
      3 O3         2.1380    9.0827   -1.0505 O.2       1 RES1    0.0000
      4 O4         2.9169    7.6528   -2.4831 O.2       1 RES1    0.0000
      5 O5         4.2772    3.7330    0.3519 O.3       1 RES1    0.0000
      6 N1         3.1588    4.1696    2.7545 N.2       1 RES1    0.0000
      7 N2         2.5812    7.9734   -1.3471 N.pl3     1 RES1    0.0000
      8 C1         3.8188    4.4623    3.8089 C.2       1 RES1    0.0000
      9 C2         3.9307    3.5389    4.9509 C.ar      1 RES1    0.0000
     10 C3         3.1405    2.3963    5.0204 C.ar      1 RES1    0.0000
     11 H1         2.5133    2.2509    4.3677 H         1 RES1    0.0000
     12 C4         3.2778    1.5264    6.0805 C.ar      1 RES1    0.0000
     13 H2         2.7515    0.7277    6.1043 H         1 RES1    0.0000
     14 C5         4.2052    1.7681    7.0710 C.ar      1 RES1    0.0000
     15 H3         4.3237    1.1502    7.7933 H         1 RES1    0.0000
     16 C6         4.9900    2.8955    7.0111 C.ar      1 RES1    0.0000
     17 H4         5.6506    3.0748    7.7076 H         1 RES1    0.0000
     18 C7         4.8529    3.7798    5.9619 C.ar      1 RES1    0.0000
     19 H5         5.4211    4.5487    5.9016 H         1 RES1    0.0000
     20 C8         4.5790    5.7641    3.9197 C.2       1 RES1    0.0000
     21 C9         4.5774    7.9223    4.8748 C.3       1 RES1    0.0000
     22 H6         5.5050    7.8495    5.1765 H         1 RES1    0.0000
     23 H7         3.9907    8.4195    5.5095 H         1 RES1    0.0000
     24 H8         4.6278    8.3653    4.0346 H         1 RES1    0.0000
     25 C10        3.0361    5.1481    1.7393 C.ar      1 RES1    0.0000
     26 C11        2.3227    6.3108    1.9497 C.ar      1 RES1    0.0000
     27 H9         1.9215    6.4741    2.8071 H         1 RES1    0.0000
     28 C12        2.1698    7.2488    0.9497 C.ar      1 RES1    0.0000
     29 H10        1.6999    8.0617    1.0724 H         1 RES1    0.0000
     30 C13        2.7171    6.9830   -0.2738 C.ar      1 RES1    0.0000
     31 C14        3.4191    5.8174   -0.5378 C.ar      1 RES1    0.0000
     32 H11        3.7609    5.7095   -1.4074 H         1 RES1    0.0000
     33 C15        3.5808    4.8936    0.4699 C.ar      1 RES1    0.0000
     34 C16        4.8933    3.4676   -0.9135 C.3       1 RES1    0.0000
     35 H12        5.3741    2.6270   -0.8088 H         1 RES1    0.0000
     36 H13        5.5584    4.2060   -1.1228 H         1 RES1    0.0000
     37 H14        4.2101    3.3601   -1.6081 H         1 RES1    0.0000
@<TRIPOS>BOND
     1    1   20 1
     2    2   20 2
     3    3    7 2
     4    4    7 2
     5    5   33 1
     6    6    8 2
     7    7   30 1
     8    8    9 1
     9    9   10 ar
    10   10   11 1
    11   12   10 ar
    12   13   12 1
    13   14   12 ar
    14   15   14 1
    15   16   14 ar
    16   17   16 1
    17   18    9 ar
    18   19   18 1
    19   20    8 1
    20   21    1 1
    21   22   21 1
    22   23   21 1
    23   24   21 1
    24   25    6 1
    25   26   25 ar
    26   27   26 1
    27   28   26 ar
    28   29   28 1
    29   30   28 ar
    30   31   30 ar
    31   32   31 1
    32   33   25 ar
    33   34    5 1
    34   35   34 1
    35   36   34 1
    36   37   34 1
    37   16   18 ar
    38   31   33 ar
@<TRIPOS>SUBSTRUCTURE
     1 RES1 1

@<TRIPOS>CRYSIN
   8.5950    9.7990   10.0140  71.9280  85.0270  68.5330   2 1

