# MOL2 file generated by ConQuest
# Please check atom types

@<TRIPOS>MOLECULE
MOYRID
    43    45     1
SMALL
NO_CHARGES
****
Generated from CSD

@<TRIPOS>ATOM
      1 C1         2.2540    5.3183   11.0287 C.3       1 RES1    0.0000
      2 C2         1.0741    4.8198   10.2215 C.3       1 RES1    0.0000
      3 H1         1.4000    4.3414    9.4435 H         1 RES1    0.0000
      4 H2         0.5621    4.1964   10.7597 H         1 RES1    0.0000
      5 C3         0.1749    5.9296    9.7677 C.3       1 RES1    0.0000
      6 H3        -0.5412    5.5599    9.2295 H         1 RES1    0.0000
      7 H4        -0.2257    6.3517   10.5457 H         1 RES1    0.0000
      8 C4         0.9042    6.9489    8.9799 C.3       1 RES1    0.0000
      9 H5         0.3087    7.6883    8.7789 H         1 RES1    0.0000
     10 H6         1.1938    6.5604    8.1403 H         1 RES1    0.0000
     11 C5         2.1010    7.4615    9.7320 C.3       1 RES1    0.0000
     12 H7         2.6023    8.0674    9.1647 H         1 RES1    0.0000
     13 H8         1.8039    7.9567   10.5133 H         1 RES1    0.0000
     14 C6         2.9899    6.3316   10.1664 C.3       1 RES1    0.0000
     15 H9         3.2684    5.8619    9.3527 H         1 RES1    0.0000
     16 C7         4.2679    6.8153   10.8569 C.3       1 RES1    0.0000
     17 H10        4.7481    7.4045   10.2539 H         1 RES1    0.0000
     18 H11        4.0295    7.3273   11.6447 H         1 RES1    0.0000
     19 C8         5.1488    5.7109   11.2492 C.3       1 RES1    0.0000
     20 H12        5.9008    6.0665   11.7484 H         1 RES1    0.0000
     21 H13        5.4961    5.2808   10.4517 H         1 RES1    0.0000
     22 C9         4.4399    4.6889   12.0921 C.3       1 RES1    0.0000
     23 H14        4.1988    5.0828   12.9447 H         1 RES1    0.0000
     24 H15        5.0347    3.9415   12.2606 H         1 RES1    0.0000
     25 C10        3.2037    4.1971   11.3983 C.3       1 RES1    0.0000
     26 H16        2.7425    3.5717   11.9786 H         1 RES1    0.0000
     27 H17        3.4590    3.7200   10.5943 H         1 RES1    0.0000
     28 C11        1.0439    5.4814   13.1684 C.2       1 RES1    0.0000
     29 C12        0.6478    6.4154   14.2706 C.ar      1 RES1    0.0000
     30 C13        0.3976    5.8820   15.5090 C.ar      1 RES1    0.0000
     31 H18        0.4685    4.9627   15.6354 H         1 RES1    0.0000
     32 C14        0.0504    6.6691   16.5528 C.ar      1 RES1    0.0000
     33 H19       -0.1091    6.3074   17.3925 H         1 RES1    0.0000
     34 C15       -0.0579    7.9903   16.3356 C.ar      1 RES1    0.0000
     35 C16        0.1459    8.5311   15.1167 C.ar      1 RES1    0.0000
     36 H20        0.0266    9.4443   14.9903 H         1 RES1    0.0000
     37 C17        0.5194    7.7554   14.0858 C.ar      1 RES1    0.0000
     38 H21        0.6865    8.1325   13.2527 H         1 RES1    0.0000
     39 N1         1.7877    6.0269   12.2185 N.am      1 RES1    0.0000
     40 N2        -0.3760    8.8740   17.4703 N.pl3     1 RES1    0.0000
     41 O1         0.6841    4.3306   13.1969 O.2       1 RES1    0.0000
     42 O2        -0.4582    8.3519   18.5336 O.2       1 RES1    0.0000
     43 O3        -0.4968   10.0254   17.2661 O.2       1 RES1    0.0000
@<TRIPOS>BOND
     1    1    2 1
     2    2    3 1
     3    4    2 1
     4    5    2 1
     5    6    5 1
     6    7    5 1
     7    8    5 1
     8    9    8 1
     9   10    8 1
    10   11    8 1
    11   12   11 1
    12   13   11 1
    13   14    1 1
    14   15   14 1
    15   16   14 1
    16   17   16 1
    17   18   16 1
    18   19   16 1
    19   20   19 1
    20   21   19 1
    21   22   19 1
    22   23   22 1
    23   24   22 1
    24   25    1 1
    25   26   25 1
    26   27   25 1
    27   28   29 1
    28   29   30 ar
    29   30   31 1
    30   32   30 ar
    31   33   32 1
    32   34   32 ar
    33   35   34 ar
    34   36   35 1
    35   37   29 ar
    36   38   37 1
    37   39    1 1
    38   40   34 1
    39   41   28 2
    40   42   40 2
    41   43   40 2
    42   11   14 1
    43   22   25 1
    44   28   39 1
    45   35   37 ar
@<TRIPOS>SUBSTRUCTURE
     1 RES1 1

@<TRIPOS>CRYSIN
  13.8300    6.7100   32.6000  90.0000  96.0500  90.0000  15 1

