# MOL2 file generated by ConQuest
# Please check atom types

@<TRIPOS>MOLECULE
MOZLAO
    36    39     1
SMALL
NO_CHARGES
****
Generated from CSD

@<TRIPOS>ATOM
      1 C1         3.0276    0.4140    4.1091 C.3       1 RES1    0.0000
      2 H1         2.9032    0.6993    5.0384 H         1 RES1    0.0000
      3 C2         2.0745   -0.7255    3.7598 C.2       1 RES1    0.0000
      4 C3         0.3020   -1.1953    2.0717 C.3       1 RES1    0.0000
      5 H2         0.2022   -0.9620    1.1468 H         1 RES1    0.0000
      6 H3        -0.5367   -1.0761    2.5238 H         1 RES1    0.0000
      7 H4         0.5756   -2.1131    2.1435 H         1 RES1    0.0000
      8 C4         1.5570    0.9691    2.2782 C.2       1 RES1    0.0000
      9 C5         2.6636    1.5434    3.1401 C.3       1 RES1    0.0000
     10 H5         2.3721    2.3490    3.6158 H         1 RES1    0.0000
     11 C6         3.9677    1.7811    2.3721 C.3       1 RES1    0.0000
     12 H6         3.7585    2.0010    1.4404 H         1 RES1    0.0000
     13 C7         4.8068    2.9130    2.9833 C.3       1 RES1    0.0000
     14 H7         4.4779    3.7610    2.6473 H         1 RES1    0.0000
     15 H8         4.6814    2.9092    3.9452 H         1 RES1    0.0000
     16 C8         6.3057    2.8137    2.6828 C.3       1 RES1    0.0000
     17 H9         6.7686    3.4726    3.2415 H         1 RES1    0.0000
     18 C9         6.7115    3.0662    1.2246 C.3       1 RES1    0.0000
     19 H10        6.3589    3.9257    0.9465 H         1 RES1    0.0000
     20 H11        7.6793    3.1143    1.1733 H         1 RES1    0.0000
     21 C10        6.2202    1.9959    0.2535 C.3       1 RES1    0.0000
     22 H12        5.2805    2.1478    0.0677 H         1 RES1    0.0000
     23 H13        6.7047    2.0837   -0.5824 H         1 RES1    0.0000
     24 C11        6.3964    0.5813    0.7772 C.3       1 RES1    0.0000
     25 H14        7.3189    0.3147    0.6430 H         1 RES1    0.0000
     26 H15        5.8403   -0.0141    0.2498 H         1 RES1    0.0000
     27 C12        6.0443    0.3916    2.2566 C.3       1 RES1    0.0000
     28 H16        6.3594   -0.4961    2.5279 H         1 RES1    0.0000
     29 C13        6.7785    1.4267    3.1064 C.3       1 RES1    0.0000
     30 H17        6.5864    1.2825    4.0461 H         1 RES1    0.0000
     31 H18        7.7361    1.3472    2.9741 H         1 RES1    0.0000
     32 N1         4.5775    0.4237    2.4313 N.3       1 RES1    0.0000
     33 N2         1.3097   -0.3391    2.6839 N.am      1 RES1    0.0000
     34 O1         4.3778    0.0699    3.8660 O.3       1 RES1    0.0000
     35 O2         1.9950   -1.7984    4.3148 O.2       1 RES1    0.0000
     36 O3         0.9651    1.5209    1.3828 O.2       1 RES1    0.0000
@<TRIPOS>BOND
     1    1    2 1
     2    3    1 1
     3    4    5 1
     4    6    4 1
     5    7    4 1
     6    8    9 1
     7    9    1 1
     8   10    9 1
     9   11    9 1
    10   12   11 1
    11   13   11 1
    12   14   13 1
    13   15   13 1
    14   16   13 1
    15   17   16 1
    16   18   16 1
    17   19   18 1
    18   20   18 1
    19   21   18 1
    20   22   21 1
    21   23   21 1
    22   24   21 1
    23   25   24 1
    24   26   24 1
    25   27   24 1
    26   28   27 1
    27   29   16 1
    28   30   29 1
    29   31   29 1
    30   32   11 1
    31   33    3 1
    32   34    1 1
    33   35    3 2
    34   36    8 2
    35    4   33 1
    36    8   33 1
    37   27   29 1
    38   27   32 1
    39   32   34 1
@<TRIPOS>SUBSTRUCTURE
     1 RES1 1

@<TRIPOS>CRYSIN
   9.3342    6.4093   20.0230  90.0000 103.0760  90.0000 231 1

