# MOL2 file generated by ConQuest
# Please check atom types

@<TRIPOS>MOLECULE
MOZQIC
    38    40     1
SMALL
NO_CHARGES
****
Generated from CSD

@<TRIPOS>ATOM
      1 O1         1.0712    8.6642    6.5929 O.3       1 RES1    0.0000
      2 O2         3.5584    6.4772    4.2721 O.3       1 RES1    0.0000
      3 N1         3.6084    8.2860    8.3471 N.3       1 RES1    0.0000
      4 N2         2.7938    8.0676   10.4287 N.2       1 RES1    0.0000
      5 N3         4.1335    7.2940    5.2461 N.2       1 RES1    0.0000
      6 C1         2.7390    8.7288    9.2981 C.2       1 RES1    0.0000
      7 H1         2.1527    9.4766    9.1322 H         1 RES1    0.0000
      8 C2         3.7744    7.1031   10.2109 C.ar      1 RES1    0.0000
      9 C3         4.2532    6.1093   11.0658 C.ar      1 RES1    0.0000
     10 H2         3.8715    5.9941   11.9690 H         1 RES1    0.0000
     11 C4         5.2564    5.2848   10.5986 C.ar      1 RES1    0.0000
     12 H3         5.6178    4.5631   11.1406 H         1 RES1    0.0000
     13 C5         5.7856    5.4356    9.3041 C.ar      1 RES1    0.0000
     14 H4         6.5099    4.8460    9.0094 H         1 RES1    0.0000
     15 C6         5.3129    6.4020    8.4314 C.ar      1 RES1    0.0000
     16 H5         5.6763    6.5216    7.5315 H         1 RES1    0.0000
     17 C7         4.2997    7.2281    8.9132 C.ar      1 RES1    0.0000
     18 C8         3.7950    8.8307    7.0007 C.3       1 RES1    0.0000
     19 H6         4.7709    8.9327    6.8335 H         1 RES1    0.0000
     20 H7         3.3643    9.7176    6.9696 H         1 RES1    0.0000
     21 C9         3.2356    7.9274    5.9270 C.2       1 RES1    0.0000
     22 C10        1.7933    7.8456    5.7506 C.2       1 RES1    0.0000
     23 C11        0.9342    7.1422    4.9594 C.2       1 RES1    0.0000
     24 H8         1.1994    6.5179    4.2642 H         1 RES1    0.0000
     25 C12       -0.3846    7.5452    5.3213 C.2       1 RES1    0.0000
     26 H9        -1.2524    7.2225    4.9470 H         1 RES1    0.0000
     27 C13       -0.2474    8.4596    6.3047 C.2       1 RES1    0.0000
     28 H10       -0.8616    8.9711    6.8363 H         1 RES1    0.0000
     29 C14        4.6046    5.7811    3.5595 C.3       1 RES1    0.0000
     30 H11        5.1891    5.3388    4.2290 H         1 RES1    0.0000
     31 H12        5.1214    6.4449    3.0244 H         1 RES1    0.0000
     32 C15        3.9242    4.7560    2.6781 C.3       1 RES1    0.0000
     33 H13        4.6304    4.2875    2.1493 H         1 RES1    0.0000
     34 H14        3.3626    5.2311    2.0121 H         1 RES1    0.0000
     35 C16        3.0921    3.7604    3.4638 C.3       1 RES1    0.0000
     36 H15        3.6330    3.2745    4.1405 H         1 RES1    0.0000
     37 H16        2.3733    4.2291    4.0043 H         1 RES1    0.0000
     38 H17        2.6565    3.0792    2.8711 H         1 RES1    0.0000
@<TRIPOS>BOND
     1    1   22 1
     2    2    5 1
     3    3    6 1
     4    4    6 2
     5    5   21 2
     6    6    7 1
     7    8    4 1
     8    9    8 ar
     9   10    9 1
    10   11    9 ar
    11   12   11 1
    12   13   11 ar
    13   14   13 1
    14   15   13 ar
    15   16   15 1
    16   17    3 1
    17   18    3 1
    18   19   18 1
    19   20   18 1
    20   21   18 1
    21   22   21 1
    22   23   22 2
    23   24   23 1
    24   25   23 1
    25   26   25 1
    26   27    1 1
    27   28   27 1
    28   29    2 1
    29   30   29 1
    30   31   29 1
    31   32   29 1
    32   33   32 1
    33   34   32 1
    34   35   32 1
    35   36   35 1
    36   37   35 1
    37   38   35 1
    38    8   17 ar
    39   15   17 ar
    40   25   27 2
@<TRIPOS>SUBSTRUCTURE
     1 RES1 1

@<TRIPOS>CRYSIN
   8.4164   18.2524   10.2246  90.0000 111.3540  90.0000  14 1

