# MOL2 file generated by ConQuest
# Please check atom types

@<TRIPOS>MOLECULE
MOZYOQ
    39    42     1
SMALL
NO_CHARGES
****
Generated from CSD

@<TRIPOS>ATOM
      1 C1         7.4251    4.4293    2.7837 C.3       1 RES1    0.0000
      2 H1         7.8088    3.5458    2.5546 H         1 RES1    0.0000
      3 H2         8.0686    4.9064    3.3667 H         1 RES1    0.0000
      4 C2         6.0937    4.2411    3.5249 C.3       1 RES1    0.0000
      5 H3         6.2513    3.7166    4.3611 H         1 RES1    0.0000
      6 C3         5.1019    3.4807    2.6240 C.3       1 RES1    0.0000
      7 H4         4.2480    3.3426    3.1053 H         1 RES1    0.0000
      8 H5         5.4734    2.5946    2.3885 H         1 RES1    0.0000
      9 C4         4.8536    4.3018    1.3426 C.3       1 RES1    0.0000
     10 C5         6.1944    4.4912    0.5918 C.3       1 RES1    0.0000
     11 H6         6.5682    3.6076    0.3451 H         1 RES1    0.0000
     12 H7         6.0430    5.0065   -0.2396 H         1 RES1    0.0000
     13 C6         7.1858    5.2427    1.4987 C.3       1 RES1    0.0000
     14 H8         8.0534    5.3629    1.0149 H         1 RES1    0.0000
     15 C7         6.6129    6.6195    1.8628 C.3       1 RES1    0.0000
     16 H9         7.2565    7.1093    2.4328 H         1 RES1    0.0000
     17 H10        6.4627    7.1476    1.0394 H         1 RES1    0.0000
     18 C8         5.2906    6.4387    2.6111 C.3       1 RES1    0.0000
     19 H11        4.9173    7.3360    2.8507 H         1 RES1    0.0000
     20 C9         5.5143    5.6194    3.8894 C.3       1 RES1    0.0000
     21 H12        4.6552    5.5042    4.3679 H         1 RES1    0.0000
     22 H13        6.1413    6.0991    4.4877 H         1 RES1    0.0000
     23 C10        4.2910    5.6904    1.7121 C.3       1 RES1    0.0000
     24 H14        4.1276    6.2140    0.8876 H         1 RES1    0.0000
     25 H15        3.4290    5.5867    2.1877 H         1 RES1    0.0000
     26 C11        3.9004    3.6336    0.3762 C.2       1 RES1    0.0000
     27 C12        1.8921    1.2537   -0.2134 C.2       1 RES1    0.0000
     28 C13        1.3508    0.6685   -1.4983 C.3       1 RES1    0.0000
     29 H16        0.6070    1.2222   -1.8460 H         1 RES1    0.0000
     30 H17        1.0185   -0.2533   -1.3484 H         1 RES1    0.0000
     31 C14        2.5285    0.6623   -2.4876 C.3       1 RES1    0.0000
     32 H18        2.7978   -0.2651   -2.7030 H         1 RES1    0.0000
     33 H19        2.2808    1.1250   -3.3272 H         1 RES1    0.0000
     34 C15        3.6523    1.3939   -1.7888 C.2       1 RES1    0.0000
     35 N1         3.2133    1.5979   -0.4808 N.am      1 RES1    0.0000
     36 O1         3.1666    4.1522   -0.4124 O.2       1 RES1    0.0000
     37 O2         4.0055    2.2328    0.4612 O.3       1 RES1    0.0000
     38 O3         4.7351    1.7393   -2.1991 O.2       1 RES1    0.0000
     39 O4         1.3521    1.4136    0.8575 O.2       1 RES1    0.0000
@<TRIPOS>BOND
     1    1    2 1
     2    3    1 1
     3    4    1 1
     4    5    4 1
     5    6    4 1
     6    7    6 1
     7    8    6 1
     8    9    6 1
     9   10    9 1
    10   11   10 1
    11   12   10 1
    12   13    1 1
    13   14   13 1
    14   15   13 1
    15   16   15 1
    16   17   15 1
    17   18   15 1
    18   19   18 1
    19   20    4 1
    20   21   20 1
    21   22   20 1
    22   23    9 1
    23   24   23 1
    24   25   23 1
    25   26    9 1
    26   27   28 1
    27   28   29 1
    28   30   28 1
    29   31   28 1
    30   32   31 1
    31   33   31 1
    32   34   31 1
    33   35   27 1
    34   36   26 2
    35   37   26 1
    36   38   34 2
    37   39   27 2
    38   10   13 1
    39   18   20 1
    40   18   23 1
    41   34   35 1
    42   35   37 1
@<TRIPOS>SUBSTRUCTURE
     1 RES1 1

@<TRIPOS>CRYSIN
   6.6711   29.4502    7.0291  90.0000 104.4470  90.0000 231 1

