# MOL2 file generated by ConQuest
# Please check atom types

@<TRIPOS>MOLECULE
MOZYUV
    53    55     1
SMALL
NO_CHARGES
****
Generated from CSD

@<TRIPOS>ATOM
      1 O1         8.0364    1.5719    7.2595 O.3       1 RES1    0.0000
      2 O2         6.4511    1.9065    8.7983 O.2       1 RES1    0.0000
      3 O3         2.6095   -0.5838    7.0366 O.3       1 RES1    0.0000
      4 O4         1.2134    1.0651    6.4996 O.2       1 RES1    0.0000
      5 O5         4.0671    5.7761    8.8796 O.2       1 RES1    0.0000
      6 O6         3.5562    5.8364    6.7837 O.2       1 RES1    0.0000
      7 N1         5.1100   -0.0518    6.1975 N.pl3     1 RES1    0.0000
      8 H1         4.5371   -0.6925    6.1995 H         1 RES1    0.0000
      9 H2         5.9290   -0.2081    5.9857 H         1 RES1    0.0000
     10 N2         3.9649    5.2566    7.7795 N.pl3     1 RES1    0.0000
     11 N3         7.1066    1.8875    4.1838 N.1       1 RES1    0.0000
     12 C1         5.8894    2.2076    6.4856 C.3       1 RES1    0.0000
     13 C2         5.4072    3.6957    6.5327 C.3       1 RES1    0.0000
     14 H3         4.9485    3.8758    5.6865 H         1 RES1    0.0000
     15 C3         4.3648    3.8068    7.6379 C.3       1 RES1    0.0000
     16 H4         4.7510    3.4931    8.4821 H         1 RES1    0.0000
     17 C4         3.1095    2.9959    7.3267 C.3       1 RES1    0.0000
     18 H5         2.6388    3.4342    6.5879 H         1 RES1    0.0000
     19 C5         3.4848    1.5909    6.8811 C.2       1 RES1    0.0000
     20 C6         4.7226    1.2080    6.5317 C.2       1 RES1    0.0000
     21 C7         6.5619    4.6803    6.6301 C.ar      1 RES1    0.0000
     22 C8         7.1665    5.0073    7.8467 C.ar      1 RES1    0.0000
     23 H6         6.8632    4.6180    8.6347 H         1 RES1    0.0000
     24 C9         8.2133    5.9080    7.8808 C.ar      1 RES1    0.0000
     25 H7         8.6136    6.1206    8.6919 H         1 RES1    0.0000
     26 C10        8.6667    6.4916    6.7194 C.ar      1 RES1    0.0000
     27 H8         9.3763    7.0925    6.7476 H         1 RES1    0.0000
     28 C11        8.0706    6.1863    5.5169 C.ar      1 RES1    0.0000
     29 H9         8.3707    6.5858    4.7329 H         1 RES1    0.0000
     30 C12        7.0226    5.2843    5.4757 C.ar      1 RES1    0.0000
     31 H10        6.6223    5.0817    4.6606 H         1 RES1    0.0000
     32 C13        2.1936    2.9937    8.5343 C.ar      1 RES1    0.0000
     33 C14        2.4942    2.2392    9.6646 C.ar      1 RES1    0.0000
     34 H11        3.2534    1.7020    9.6726 H         1 RES1    0.0000
     35 C15        1.6688    2.2788   10.7848 C.ar      1 RES1    0.0000
     36 H12        1.8779    1.7721   11.5357 H         1 RES1    0.0000
     37 C16        0.5469    3.0671   10.7798 C.ar      1 RES1    0.0000
     38 H13       -0.0070    3.0946   11.5267 H         1 RES1    0.0000
     39 C17        0.2436    3.8102    9.6746 C.ar      1 RES1    0.0000
     40 H14       -0.5163    4.3456    9.6746 H         1 RES1    0.0000
     41 C18        1.0550    3.7757    8.5604 C.ar      1 RES1    0.0000
     42 H15        0.8324    4.2858    7.8156 H         1 RES1    0.0000
     43 C19        6.8321    1.8826    7.6650 C.2       1 RES1    0.0000
     44 C20        9.0019    1.2156    8.3034 C.3       1 RES1    0.0000
     45 H16        9.8458    1.0001    7.8989 H         1 RES1    0.0000
     46 H17        8.6788    0.4561    8.7933 H         1 RES1    0.0000
     47 H18        9.1146    1.9582    8.9017 H         1 RES1    0.0000
     48 C21        2.3186    0.6901    6.7767 C.2       1 RES1    0.0000
     49 C22        1.5145   -1.5296    7.0055 C.3       1 RES1    0.0000
     50 H19        1.8450   -2.4092    7.2023 H         1 RES1    0.0000
     51 H20        1.1133   -1.5264    6.1342 H         1 RES1    0.0000
     52 H21        0.8582   -1.2812    7.6610 H         1 RES1    0.0000
     53 C23        6.5975    2.0293    5.1987 C.1       1 RES1    0.0000
@<TRIPOS>BOND
     1    1   43 1
     2    2   43 2
     3    3   48 1
     4    4   48 2
     5    5   10 2
     6    6   10 2
     7    7    8 1
     8    9    7 1
     9   10   15 1
    10   11   53 3
    11   12   13 1
    12   13   14 1
    13   15   13 1
    14   16   15 1
    15   17   15 1
    16   18   17 1
    17   19   17 1
    18   20    7 1
    19   21   13 1
    20   22   21 ar
    21   23   22 1
    22   24   22 ar
    23   25   24 1
    24   26   24 ar
    25   27   26 1
    26   28   26 ar
    27   29   28 1
    28   30   21 ar
    29   31   30 1
    30   32   17 1
    31   33   32 ar
    32   34   33 1
    33   35   33 ar
    34   36   35 1
    35   37   35 ar
    36   38   37 1
    37   39   37 ar
    38   40   39 1
    39   41   32 ar
    40   42   41 1
    41   43   12 1
    42   44    1 1
    43   45   44 1
    44   46   44 1
    45   47   44 1
    46   48   19 1
    47   49    3 1
    48   50   49 1
    49   51   49 1
    50   52   49 1
    51   53   12 1
    52   12   20 1
    53   19   20 2
    54   28   30 ar
    55   39   41 ar
@<TRIPOS>SUBSTRUCTURE
     1 RES1 1

@<TRIPOS>CRYSIN
  10.8020   10.8070   10.8810  80.7400  67.3600  69.4700   2 1

