# MOL2 file generated by ConQuest
# Please check atom types

@<TRIPOS>MOLECULE
MPCAZO
    42    43     1
SMALL
NO_CHARGES
****
Generated from CSD

@<TRIPOS>ATOM
      1 C1         3.0369    2.8460    2.9889 C.ar      1 RES1    0.0000
      2 C2         3.2813    2.3979    4.2766 C.ar      1 RES1    0.0000
      3 C3         4.5593    2.1001    4.7241 C.ar      1 RES1    0.0000
      4 C4         5.6581    2.2586    3.8598 C.ar      1 RES1    0.0000
      5 C5         5.4255    2.6792    2.5370 C.ar      1 RES1    0.0000
      6 C6         4.1309    2.9591    2.1290 C.ar      1 RES1    0.0000
      7 C7         1.6635    3.2266    2.5633 C.3       1 RES1    0.0000
      8 C8         1.5393    4.3918    1.6080 C.2       1 RES1    0.0000
      9 N1         0.9165    3.7010    0.6811 N.pl3     1 RES1    0.0000
     10 O1         0.3578    4.0154   -0.4223 O.2       1 RES1    0.0000
     11 C9         1.7400    1.3306    0.7689 C.2       1 RES1    0.0000
     12 C10        1.5061   -0.1186    2.7915 C.3       1 RES1    0.0000
     13 C11        0.5877   -1.3251    2.8342 C.3       1 RES1    0.0000
     14 C12        2.8825   -0.7970    0.8106 C.3       1 RES1    0.0000
     15 C13        4.2536   -0.7942    1.4709 C.3       1 RES1    0.0000
     16 C14        1.8459    5.8341    1.6102 C.3       1 RES1    0.0000
     17 N2         1.9578    0.1765    1.4072 N.am      1 RES1    0.0000
     18 C15        0.8909    2.4076    1.4500 C.3       1 RES1    0.0000
     19 C16       -0.5805    2.0091    1.7133 C.3       1 RES1    0.0000
     20 O2         2.2471    1.5788   -0.3411 O.2       1 RES1    0.0000
     21 H1         1.2120    3.3907    3.1765 H         1 RES1    0.0000
     22 H2         2.4636    2.3524    4.7570 H         1 RES1    0.0000
     23 H3         4.6283    1.9305    5.7036 H         1 RES1    0.0000
     24 H4         6.7323    2.2062    4.0583 H         1 RES1    0.0000
     25 H5         6.0933    2.4820    1.7549 H         1 RES1    0.0000
     26 H6         3.9307    3.2349    1.2636 H         1 RES1    0.0000
     27 H7         1.7172    6.2119    2.5370 H         1 RES1    0.0000
     28 H8         2.7994    6.0313    1.4380 H         1 RES1    0.0000
     29 H9         1.2241    6.2188    1.1034 H         1 RES1    0.0000
     30 H10       -1.1587    2.4227    1.0343 H         1 RES1    0.0000
     31 H11       -0.5935    1.0907    1.6431 H         1 RES1    0.0000
     32 H12       -0.9048    2.4269    2.5721 H         1 RES1    0.0000
     33 H13        2.9568   -0.5529   -0.2183 H         1 RES1    0.0000
     34 H14        2.4110   -1.6726    0.9126 H         1 RES1    0.0000
     35 H15        4.9374   -1.3913    1.0168 H         1 RES1    0.0000
     36 H16        4.6615    0.1531    1.3798 H         1 RES1    0.0000
     37 H17        4.1460   -0.9583    2.4010 H         1 RES1    0.0000
     38 H18        0.9967    0.6412    3.0975 H         1 RES1    0.0000
     39 H19        2.3837   -0.1793    3.3772 H         1 RES1    0.0000
     40 H20       -0.3913   -1.1293    2.1739 H         1 RES1    0.0000
     41 H21        0.6974   -2.1207    2.5666 H         1 RES1    0.0000
     42 H22        0.3855   -1.4989    3.7216 H         1 RES1    0.0000
@<TRIPOS>BOND
     1    1    2 ar
     2    2    3 ar
     3    3    4 ar
     4    4    5 ar
     5    5    6 ar
     6    6    1 ar
     7    7    1 1
     8    8    7 1
     9    9    8 2
    10   10    9 1
    11   11   17 1
    12   12   13 1
    13   13   40 1
    14   14   15 1
    15   15   35 1
    16   16    8 1
    17   17   12 1
    18   18    7 1
    19   19   18 1
    20   20   11 2
    21   21    7 1
    22   22    2 1
    23   23    3 1
    24   24    4 1
    25   25    5 1
    26   26    6 1
    27   27   16 1
    28   28   16 1
    29   29   16 1
    30   30   19 1
    31   31   19 1
    32   32   19 1
    33   33   14 1
    34   34   14 1
    35   36   15 1
    36   37   15 1
    37   38   12 1
    38   39   12 1
    39   41   13 1
    40   42   13 1
    41    9   18 1
    42   11   18 1
    43   14   17 1
@<TRIPOS>SUBSTRUCTURE
     1 RES1 1

@<TRIPOS>CRYSIN
   9.9020   13.7890   11.1760  90.0000 101.0600  90.0000  14 1

