# MOL2 file generated by ConQuest
# Please check atom types

@<TRIPOS>MOLECULE
MPEINX10
    71    77     1
SMALL
NO_CHARGES
****
Generated from CSD

@<TRIPOS>ATOM
      1 C1         2.6808   -5.5710   -2.7020 C.3       1 RES1    0.0000
      2 C2         3.4090   -4.3953   -2.0590 C.3       1 RES1    0.0000
      3 C3         2.9244   -8.8871   -2.7587 C.ar      1 RES1    0.0000
      4 C4         1.7934   -8.7396   -3.5518 C.ar      1 RES1    0.0000
      5 C5         1.4799   -9.6733   -4.5210 C.ar      1 RES1    0.0000
      6 C6         2.3002  -10.7562   -4.7137 C.ar      1 RES1    0.0000
      7 C7         3.4213  -10.9182   -3.9336 C.ar      1 RES1    0.0000
      8 C8         3.7449   -9.9936   -2.9419 C.ar      1 RES1    0.0000
      9 C9         4.7133   -7.5166   -1.5732 C.2       1 RES1    0.0000
     10 C10        5.4309   -7.1799   -0.4539 C.2       1 RES1    0.0000
     11 C11        3.2365   -7.8970   -1.6347 C.3       1 RES1    0.0000
     12 C12        6.7619   -6.7340   -2.2162 C.ar      1 RES1    0.0000
     13 C13        7.8208   -6.3263   -3.0341 C.ar      1 RES1    0.0000
     14 C14        7.6493   -6.4610   -4.3922 C.ar      1 RES1    0.0000
     15 C15        6.4578   -6.9852   -4.9347 C.ar      1 RES1    0.0000
     16 C16        5.4230   -7.3710   -4.1073 C.ar      1 RES1    0.0000
     17 C17        5.5496   -7.2509   -2.7197 C.ar      1 RES1    0.0000
     18 C18        2.7764  -11.1948    1.7150 C.2       1 RES1    0.0000
     19 C19        2.6695   -8.4921   -0.3286 C.2       1 RES1    0.0000
     20 C20        2.2446  -11.4314    3.0708 C.ar      1 RES1    0.0000
     21 C21        2.0540  -10.4322    4.0022 C.ar      1 RES1    0.0000
     22 C22        1.5869  -10.7799    5.2751 C.ar      1 RES1    0.0000
     23 C23        1.3062  -12.1267    5.5576 C.ar      1 RES1    0.0000
     24 C24        1.4893  -13.0858    4.6239 C.ar      1 RES1    0.0000
     25 C25        1.9589  -12.7673    3.3911 C.ar      1 RES1    0.0000
     26 C26        5.1472   -7.2509    0.9893 C.ar      1 RES1    0.0000
     27 C27        5.7691   -8.2064    1.7860 C.ar      1 RES1    0.0000
     28 C28        5.5767   -8.2537    3.1370 C.ar      1 RES1    0.0000
     29 C29        1.5302   -7.6840    0.0946 C.ar      1 RES1    0.0000
     30 C30        4.7539   -7.3492    3.7409 C.ar      1 RES1    0.0000
     31 C31        4.1258   -6.3973    3.0081 C.ar      1 RES1    0.0000
     32 C32        4.3044   -6.3372    1.6500 C.ar      1 RES1    0.0000
     33 C33        7.7179   -6.1698    0.0355 C.3       1 RES1    0.0000
     34 C34        0.5902   -7.8260    1.1181 C.ar      1 RES1    0.0000
     35 C35       -0.4001   -6.8669    1.2446 C.ar      1 RES1    0.0000
     36 C36       -0.4396   -5.7712    0.3747 C.ar      1 RES1    0.0000
     37 C37        0.4664   -5.6129   -0.6418 C.ar      1 RES1    0.0000
     38 C38        1.4511   -6.6030   -0.8014 C.ar      1 RES1    0.0000
     39 H1         3.2548   -5.9332   -3.5105 H         1 RES1    0.0000
     40 H2         1.7578   -5.2416   -3.1322 H         1 RES1    0.0000
     41 H3         1.1517   -7.9170   -3.3923 H         1 RES1    0.0000
     42 H4         0.6043   -9.5368   -5.1416 H         1 RES1    0.0000
     43 H5         2.0581  -11.4842   -5.4843 H         1 RES1    0.0000
     44 H6         4.0452  -11.7572   -4.0778 H         1 RES1    0.0000
     45 H7         4.6026  -10.1010   -2.3521 H         1 RES1    0.0000
     46 H8         8.7167   -5.8968   -2.6358 H         1 RES1    0.0000
     47 H9         8.4235   -6.1334   -5.0470 H         1 RES1    0.0000
     48 H10        6.3573   -7.0798   -6.0044 H         1 RES1    0.0000
     49 H11        4.5280   -7.7896   -4.5506 H         1 RES1    0.0000
     50 H12        2.2824   -9.3912    3.7468 H         1 RES1    0.0000
     51 H13        1.4500  -10.0100    6.0281 H         1 RES1    0.0000
     52 H14        0.9430  -12.4306    6.5245 H         1 RES1    0.0000
     53 H15        1.2090  -14.1050    4.8461 H         1 RES1    0.0000
     54 H16        2.1236  -13.5408    2.6358 H         1 RES1    0.0000
     55 H17        6.4322   -8.9180    1.3356 H         1 RES1    0.0000
     56 H18        6.0836   -9.0272    3.7350 H         1 RES1    0.0000
     57 H19        4.6176   -7.4074    4.7988 H         1 RES1    0.0000
     58 H20        3.4860   -5.6784    3.4632 H         1 RES1    0.0000
     59 H21        3.8147   -5.5874    0.9456 H         1 RES1    0.0000
     60 H22        8.5504   -5.7876   -0.5319 H         1 RES1    0.0000
     61 H23        7.9778   -6.9160    0.7446 H         1 RES1    0.0000
     62 H24        8.5978   -6.6976   -0.0827 H         1 RES1    0.0000
     63 H25        0.6487   -8.6632    1.8084 H         1 RES1    0.0000
     64 H26       -1.1383   -6.9524    2.0094 H         1 RES1    0.0000
     65 H27       -1.2010   -5.0050    0.5082 H         1 RES1    0.0000
     66 H28        0.4050   -4.7502   -1.3120 H         1 RES1    0.0000
     67 N1         2.4012   -6.6667   -1.7730 N.pl3     1 RES1    0.0000
     68 N2         6.6820   -6.7067   -0.8487 N.3       1 RES1    0.0000
     69 N3         3.2331   -9.5441    0.1170 N.2       1 RES1    0.0000
     70 O1         2.5749   -9.8899    1.3569 O.3       1 RES1    0.0000
     71 O2         3.3004  -12.0120    1.0141 O.2       1 RES1    0.0000
@<TRIPOS>BOND
     1    1    2 1
     2    3    4 ar
     3    4    5 ar
     4    5    6 ar
     5    6    7 ar
     6    7    8 ar
     7    8    3 ar
     8    9   10 2
     9   10   26 1
    10   11    3 1
    11   12   13 ar
    12   13   14 ar
    13   14   15 ar
    14   15   16 ar
    15   16   17 ar
    16   17    9 1
    17   18   20 1
    18   19   11 1
    19   20   21 ar
    20   21   22 ar
    21   22   23 ar
    22   23   24 ar
    23   24   25 ar
    24   25   20 ar
    25   26   27 ar
    26   27   28 ar
    27   28   30 ar
    28   29   19 1
    29   30   31 ar
    30   31   32 ar
    31   32   26 ar
    32   33   60 1
    33   34   29 ar
    34   35   34 ar
    35   36   35 ar
    36   37   36 ar
    37   38   29 ar
    38   39    1 1
    39   40    1 1
    40   41    4 1
    41   42    5 1
    42   43    6 1
    43   44    7 1
    44   45    8 1
    45   46   13 1
    46   47   14 1
    47   48   15 1
    48   49   16 1
    49   50   21 1
    50   51   22 1
    51   52   23 1
    52   53   24 1
    53   54   25 1
    54   55   27 1
    55   56   28 1
    56   57   30 1
    57   58   31 1
    58   59   32 1
    59   61   33 1
    60   62   33 1
    61   63   34 1
    62   64   35 1
    63   65   36 1
    64   66   37 1
    65   67    1 1
    66   68   10 1
    67   69   19 2
    68   70   18 1
    69   71   18 2
    70    9   11 1
    71   11   67 1
    72   12   17 ar
    73   12   68 1
    74   33   68 1
    75   37   38 ar
    76   38   67 1
    77   69   70 1
@<TRIPOS>SUBSTRUCTURE
     1 RES1 1

@<TRIPOS>CRYSIN
  14.0600   18.2000   12.8500  90.0000 113.1000  90.0000  14 1

