# MOL2 file generated by ConQuest
# Please check atom types

@<TRIPOS>MOLECULE
MPIMZR02
    34    35     1
SMALL
USER_CHARGES
****
Generated from CSD

@<TRIPOS>ATOM
      1 C1         4.7329    5.5481    2.6133 C.ar      1 RES1    0.0000
      2 H1         4.7329    6.4783    2.6133 H         1 RES1    0.0000
      3 C2         4.4078    4.8491    1.5481 C.ar      1 RES1    0.0000
      4 H2         4.1839    5.3210    0.7788 H         1 RES1    0.0000
      5 C3         4.3737    3.4772    1.4812 C.ar      1 RES1    0.0000
      6 H3         4.1163    3.0449    0.6983 H         1 RES1    0.0000
      7 C4         4.7329    2.7470    2.6133 C.ar      1 RES1    0.0000
      8 C5         4.7329    1.2844    2.6133 C.2       1 RES1    0.0000
      9 C6         4.1589   -0.9594    2.0854 C.3       1 RES1    0.0000
     10 C7         4.4825   -1.6667    0.7913 C.3       1 RES1    0.0000
     11 H4         3.7525   -1.5573    0.1767 H         1 RES1    0.0000
     12 H5         4.6188   -2.6011    0.9628 H         1 RES1    0.0000
     13 H6         5.2798   -1.2907    0.4119 H         1 RES1    0.0000
     14 C8         2.8150   -1.4250    2.5998 C.3       1 RES1    0.0000
     15 H7         2.6030   -0.9573    3.4109 H         1 RES1    0.0000
     16 H8         2.8478   -2.3678    2.7733 H         1 RES1    0.0000
     17 H9         2.1409   -1.2438    1.9401 H         1 RES1    0.0000
     18 N1         4.0301    0.5094    1.7917 N.pl3     1 RES1    1.0000
     19 O1         3.2375    0.9032    0.8687 O.2       1 RES1   -1.0000
     20 C2A        5.0580    4.8491    3.6785 C.ar      1 RES1    0.0000
     21 H2A        5.2819    5.3210    4.4479 H         1 RES1    0.0000
     22 C3A        5.0921    3.4772    3.7454 C.ar      1 RES1    0.0000
     23 H3A        5.3495    3.0449    4.5284 H         1 RES1    0.0000
     24 C6A        5.3069   -0.9594    3.1412 C.3       1 RES1    0.0000
     25 C7A        4.9833   -1.6667    4.4354 C.3       1 RES1    0.0000
     26 H4A        5.7133   -1.5573    5.0500 H         1 RES1    0.0000
     27 H5A        4.8470   -2.6011    4.2639 H         1 RES1    0.0000
     28 H6A        4.1860   -1.2907    4.8148 H         1 RES1    0.0000
     29 C8A        6.6508   -1.4250    2.6269 C.3       1 RES1    0.0000
     30 H7A        6.8628   -0.9573    1.8157 H         1 RES1    0.0000
     31 H8A        6.6180   -2.3678    2.4534 H         1 RES1    0.0000
     32 H9A        7.3249   -1.2438    3.2865 H         1 RES1    0.0000
     33 N1A        5.4357    0.5094    3.4350 N.3       1 RES1    1.0000
     34 O1A        6.2283    0.9032    4.3580 O.2       1 RES1   -1.0000
@<TRIPOS>BOND
     1    1    2 1
     2    3    1 ar
     3    4    3 1
     4    5    3 ar
     5    6    5 1
     6    7    5 ar
     7    8    7 1
     8    9   10 1
     9   10   11 1
    10   12   10 1
    11   13   10 1
    12   14    9 1
    13   15   14 1
    14   16   14 1
    15   17   14 1
    16   18    8 2
    17   19   18 1
    18   20    1 ar
    19   21   20 1
    20   22    7 ar
    21   23   22 1
    22   24    9 1
    23   25   24 1
    24   26   25 1
    25   27   25 1
    26   28   25 1
    27   29   24 1
    28   30   29 1
    29   31   29 1
    30   32   29 1
    31   33    8 1
    32   34   33 1
    33    9   18 1
    34   20   22 ar
    35   24   33 1
@<TRIPOS>SUBSTRUCTURE
     1 RES1 1

@<TRIPOS>CRYSIN
  11.1700   10.4170   10.9950  90.0000 108.0590  90.0000  15 1

