# MOL2 file generated by ConQuest
# Please check atom types

@<TRIPOS>MOLECULE
MPIPXY01
    27    27     1
SMALL
NO_CHARGES
****
Generated from CSD

@<TRIPOS>ATOM
      1 C1         2.9137   -2.1133    4.9022 C.2       1 RES1    0.0000
      2 C2         2.5270   -3.0300    6.0291 C.3       1 RES1    0.0000
      3 C3         4.3891   -1.8773    4.7184 C.3       1 RES1    0.0000
      4 C4         3.6015   -4.0332    6.4414 C.3       1 RES1    0.0000
      5 C5         3.8360   -5.0887    5.3644 C.3       1 RES1    0.0000
      6 C6         3.1950   -4.6867    7.7396 C.3       1 RES1    0.0000
      7 C7         5.2227   -2.0338    5.9927 C.3       1 RES1    0.0000
      8 C8         6.7045   -2.0611    5.6209 C.3       1 RES1    0.0000
      9 C9         4.9596   -0.8894    6.9711 C.3       1 RES1    0.0000
     10 H1         2.3614   -2.2769    6.8444 H         1 RES1    0.0000
     11 H2         1.6799   -3.5696    5.8162 H         1 RES1    0.0000
     12 H3         4.5721   -0.9250    4.4452 H         1 RES1    0.0000
     13 H4         4.8574   -2.6208    4.0609 H         1 RES1    0.0000
     14 H5         4.6989   -5.6212    5.7954 H         1 RES1    0.0000
     15 H6         4.1680   -4.7080    4.4141 H         1 RES1    0.0000
     16 H7         3.1617   -5.6686    5.2761 H         1 RES1    0.0000
     17 H8         4.0888   -5.2417    8.0492 H         1 RES1    0.0000
     18 H9         3.1300   -4.1506    8.3503 H         1 RES1    0.0000
     19 H10        6.9018   -2.7631    5.1099 H         1 RES1    0.0000
     20 H11        7.3376   -2.2888    6.4913 H         1 RES1    0.0000
     21 H12        6.9177   -1.0436    5.0788 H         1 RES1    0.0000
     22 H13        4.0888   -0.7590    7.1352 H         1 RES1    0.0000
     23 H14        5.6419   -0.8657    7.6441 H         1 RES1    0.0000
     24 H15        5.1981    0.0237    6.5640 H         1 RES1    0.0000
     25 N1         4.8836   -3.3087    6.6585 N.3       1 RES1    0.0000
     26 O1         2.0880   -1.5903    4.1959 O.2       1 RES1    0.0000
     27 O2         5.7370   -3.8115    7.4634 O.2       1 RES1    0.0000
@<TRIPOS>BOND
     1    1    2 1
     2    2    4 1
     3    3    1 1
     4    4    5 1
     5    5   14 1
     6    6    4 1
     7    7    3 1
     8    8    7 1
     9    9    7 1
    10   10    2 1
    11   11    2 1
    12   12    3 1
    13   13    3 1
    14   15    5 1
    15   16    5 1
    16   17    6 1
    17   18    6 1
    18   19    8 1
    19   20    8 1
    20   21    8 1
    21   22    9 1
    22   23    9 1
    23   24    9 1
    24   25    4 1
    25   26    1 2
    26   27   25 1
    27    7   25 1
@<TRIPOS>SUBSTRUCTURE
     1 RES1 1

@<TRIPOS>CRYSIN
   7.9240   11.8590   10.3860  90.0000  90.0000  90.0000  29 1

