# MOL2 file generated by ConQuest
# Please check atom types

@<TRIPOS>MOLECULE
MPNPZH01
    59    61     1
SMALL
NO_CHARGES
****
Generated from CSD

@<TRIPOS>ATOM
      1 O1         1.9571    1.4077   -0.7050 O.2       1 RES1    0.0000
      2 O2         4.0466    1.3559   -1.1823 O.2       1 RES1    0.0000
      3 O3         5.2277   -3.2747    0.5521 O.2       1 RES1    0.0000
      4 O4         5.5156   -3.2971    2.6907 O.2       1 RES1    0.0000
      5 O5         1.7644    0.5417    4.7444 O.2       1 RES1    0.0000
      6 O6         3.7959    0.8871    5.1878 O.2       1 RES1    0.0000
      7 N1         3.1077    1.1139   -0.4654 N.pl3     1 RES1    0.0000
      8 N2         0.2141    3.3817    2.3646 N.2       1 RES1    0.0000
      9 N3         5.0941   -2.8035    1.6647 N.pl3     1 RES1    0.0000
     10 N4         2.9168    0.5546    4.4455 N.pl3     1 RES1    0.0000
     11 N5         2.5888    4.5567    2.5531 N.3       1 RES1    0.0000
     12 C1        -1.2342    3.3840    2.4852 C.3       1 RES1    0.0000
     13 C2         0.0938    0.9635    1.9382 C.3       1 RES1    0.0000
     14 C3         0.8417    2.2631    2.1607 C.2       1 RES1    0.0000
     15 C4         2.2852    2.2302    2.1573 C.2       1 RES1    0.0000
     16 C5         3.1064    3.3394    2.3527 C.2       1 RES1    0.0000
     17 C6         4.5962    3.2230    2.3425 C.3       1 RES1    0.0000
     18 C7         3.3871    5.7681    2.7060 C.3       1 RES1    0.0000
     19 C8         2.9600    0.9024    2.0078 C.ar      1 RES1    0.0000
     20 C9         3.3836    0.3725    0.7831 C.ar      1 RES1    0.0000
     21 C10        4.0785   -0.8108    0.6404 C.ar      1 RES1    0.0000
     22 C11        4.3557   -1.5228    1.7802 C.ar      1 RES1    0.0000
     23 C12        3.9785   -1.0963    3.0271 C.ar      1 RES1    0.0000
     24 C13        3.2972    0.1058    3.0950 C.ar      1 RES1    0.0000
     25 C14       -1.9091    4.6342    1.9756 C.ar      1 RES1    0.0000
     26 C15       -1.2267    5.7552    1.5492 C.ar      1 RES1    0.0000
     27 C16       -1.9139    6.8456    1.0447 C.ar      1 RES1    0.0000
     28 C17       -3.2788    6.8256    0.9666 C.ar      1 RES1    0.0000
     29 C18       -3.9718    5.7199    1.3946 C.ar      1 RES1    0.0000
     30 C19       -3.2840    4.6354    1.8940 C.ar      1 RES1    0.0000
     31 C20        2.4946    6.9854    2.7740 C.ar      1 RES1    0.0000
     32 C21        2.0119    7.5647    1.6358 C.ar      1 RES1    0.0000
     33 C22        1.1752    8.6680    1.7055 C.ar      1 RES1    0.0000
     34 C23        0.8361    9.1838    2.9166 C.ar      1 RES1    0.0000
     35 C24        1.3340    8.6292    4.0548 C.ar      1 RES1    0.0000
     36 C25        2.1556    7.5318    3.9936 C.ar      1 RES1    0.0000
     37 H1        -1.6915    2.6320    2.0384 H         1 RES1    0.0000
     38 H2        -1.4408    3.3135    3.4483 H         1 RES1    0.0000
     39 H3         0.7135    0.3055    1.7327 H         1 RES1    0.0000
     40 H4        -0.3732    0.7755    2.7179 H         1 RES1    0.0000
     41 H5        -0.5339    1.0927    1.2400 H         1 RES1    0.0000
     42 H6         1.6675    4.5708    2.5310 H         1 RES1    0.0000
     43 H7         4.9585    2.4088    2.3272 H         1 RES1    0.0000
     44 H8         5.0243    3.6895    1.6817 H         1 RES1    0.0000
     45 H9         5.0046    3.5837    3.1086 H         1 RES1    0.0000
     46 H10        3.9884    5.8632    1.9535 H         1 RES1    0.0000
     47 H11        3.9442    5.7340    3.5842 H         1 RES1    0.0000
     48 H12        4.3567   -1.0927   -0.2378 H         1 RES1    0.0000
     49 H13        4.1606   -1.5745    3.8220 H         1 RES1    0.0000
     50 H14       -0.2659    5.7692    1.6307 H         1 RES1    0.0000
     51 H15       -1.3984    7.6375    0.7644 H         1 RES1    0.0000
     52 H16       -3.7873    7.6023    0.6455 H         1 RES1    0.0000
     53 H17       -4.9189    5.6987    1.3250 H         1 RES1    0.0000
     54 H18       -3.7164    3.8775    2.1913 H         1 RES1    0.0000
     55 H19        2.2606    7.2263    0.7984 H         1 RES1    0.0000
     56 H20        0.8464    9.0240    0.9173 H         1 RES1    0.0000
     57 H21        0.2338    9.9170    3.0067 H         1 RES1    0.0000
     58 H22        1.0572    8.9770    4.8922 H         1 RES1    0.0000
     59 H23        2.5120    7.1440    4.8243 H         1 RES1    0.0000
@<TRIPOS>BOND
     1    1    7 2
     2    2    7 2
     3    3    9 2
     4    4    9 2
     5    5   10 2
     6    6   10 2
     7    7   20 1
     8    8   12 1
     9    9   22 1
    10   10   24 1
    11   11   16 1
    12   12   25 1
    13   13   14 1
    14   14    8 2
    15   15   14 1
    16   16   15 2
    17   17   16 1
    18   18   11 1
    19   19   15 1
    20   20   19 ar
    21   21   20 ar
    22   22   21 ar
    23   23   22 ar
    24   24   19 ar
    25   25   26 ar
    26   26   27 ar
    27   27   28 ar
    28   28   29 ar
    29   29   30 ar
    30   30   25 ar
    31   31   18 1
    32   32   31 ar
    33   33   32 ar
    34   34   33 ar
    35   35   34 ar
    36   36   31 ar
    37   37   12 1
    38   38   12 1
    39   39   13 1
    40   40   13 1
    41   41   13 1
    42   42   11 1
    43   43   17 1
    44   44   17 1
    45   45   17 1
    46   46   18 1
    47   47   18 1
    48   48   21 1
    49   49   23 1
    50   50   26 1
    51   51   27 1
    52   52   28 1
    53   53   29 1
    54   54   30 1
    55   55   32 1
    56   56   33 1
    57   57   34 1
    58   58   35 1
    59   59   36 1
    60   23   24 ar
    61   35   36 ar
@<TRIPOS>SUBSTRUCTURE
     1 RES1 1

@<TRIPOS>CRYSIN
  11.6660   11.7500   17.1090  90.0000  96.8500  90.0000  13 1

