# MOL2 file generated by ConQuest
# Please check atom types

@<TRIPOS>MOLECULE
MPOSUB
    74    75     1
SMALL
USER_CHARGES
****
Generated from CSD

@<TRIPOS>ATOM
      1 C1         0.6823    0.1291    0.2007 C.3       1 RES1    0.0000
      2 C2         4.4722    1.9841    5.4798 C.3       1 RES1    0.0000
      3 C3         6.0464    1.6829    7.3016 C.3       1 RES1    0.0000
      4 C4         3.8769    2.7911    7.8270 C.3       1 RES1    0.0000
      5 C5         4.0412    5.7006    6.0940 C.3       1 RES1    0.0000
      6 C6         6.2495    5.7717    5.0004 C.3       1 RES1    0.0000
      7 C7         0.7779    0.9964    1.4478 C.3       1 RES1    0.0000
      8 C8         2.1486    1.1750    1.8712 C.3       1 RES1    0.0000
      9 C9         2.3018    1.8378    3.1918 C.2       1 RES1    0.0000
     10 C10        3.7410    2.9396    4.6440 C.3       1 RES1    0.0000
     11 C11        4.6168    4.1082    4.2634 C.3       1 RES1    0.0000
     12 C12        5.1269    4.8786    5.4381 C.3       1 RES1    0.0000
     13 C13        4.9834    2.5867    6.7598 C.3       1 RES1    0.0000
     14 H1         5.1963    1.5925    4.9138 H         1 RES1    0.0000
     15 H2         4.0009    1.2051    5.6267 H         1 RES1    0.0000
     16 H3         1.1849    0.6886   -0.4936 H         1 RES1    0.0000
     17 H4         6.8263    1.4418    6.6468 H         1 RES1    0.0000
     18 H5         5.6588    0.8608    7.4694 H         1 RES1    0.0000
     19 H6         1.1914   -0.7317    0.3839 H         1 RES1    0.0000
     20 H7         3.5372    2.0229    8.1604 H         1 RES1    0.0000
     21 H8         4.2273    3.4217    8.4785 H         1 RES1    0.0000
     22 H9         3.0893    3.4432    7.5133 H         1 RES1    0.0000
     23 H10        3.8723    6.5636    5.5061 H         1 RES1    0.0000
     24 H11        4.2162    5.9395    6.8442 H         1 RES1    0.0000
     25 H12        3.1501    5.3585    6.2081 H         1 RES1    0.0000
     26 H13        5.8557    6.5206    4.4531 H         1 RES1    0.0000
     27 H14        6.6467    6.2408    5.7254 H         1 RES1    0.0000
     28 H15        6.8324    5.1648    4.3983 H         1 RES1    0.0000
     29 H16        0.3559    1.7646    1.4039 H         1 RES1    0.0000
     30 H17        2.6155    1.6570    1.2394 H         1 RES1    0.0000
     31 H18        2.8076    3.3141    5.1880 H         1 RES1    0.0000
     32 H19        5.3254    3.8090    3.6963 H         1 RES1    0.0000
     33 H20        4.2098    4.6483    3.7183 H         1 RES1    0.0000
     34 N1         5.6311    3.8994    6.4329 N.3       1 RES1    1.0000
     35 O1         6.4010    4.3664    7.3016 O.2       1 RES1   -1.0000
     36 O2         1.5107    1.7840    4.0506 O.2       1 RES1    0.0000
     37 O3         3.4392    2.3091    3.3815 O.3       1 RES1    0.0000
     38 C1B       -0.6823   -0.1291   -0.2007 C.3       1 RES1    0.0000
     39 C7B       -0.7779   -0.9964   -1.4478 C.3       1 RES1    0.0000
     40 H3B       -1.1849   -0.6886    0.4936 H         1 RES1    0.0000
     41 H6B       -1.1914    0.7317   -0.3839 H         1 RES1    0.0000
     42 C8B       -2.1486   -1.1750   -1.8712 C.3       1 RES1    0.0000
     43 H16B      -0.3559   -1.7646   -1.4039 H         1 RES1    0.0000
     44 C9B       -2.3018   -1.8378   -3.1918 C.2       1 RES1    0.0000
     45 H17B      -2.6155   -1.6570   -1.2394 H         1 RES1    0.0000
     46 O2B       -1.5107   -1.7840   -4.0506 O.2       1 RES1    0.0000
     47 O3B       -3.4392   -2.3091   -3.3815 O.3       1 RES1    0.0000
     48 C10B      -3.7410   -2.9396   -4.6440 C.3       1 RES1    0.0000
     49 C2B       -4.4722   -1.9841   -5.4798 C.3       1 RES1    0.0000
     50 C11B      -4.6168   -4.1082   -4.2634 C.3       1 RES1    0.0000
     51 H18B      -2.8076   -3.3141   -5.1880 H         1 RES1    0.0000
     52 C13B      -4.9834   -2.5867   -6.7598 C.3       1 RES1    0.0000
     53 H1B       -5.1963   -1.5925   -4.9138 H         1 RES1    0.0000
     54 H2B       -4.0009   -1.2051   -5.6267 H         1 RES1    0.0000
     55 C12B      -5.1269   -4.8786   -5.4381 C.3       1 RES1    0.0000
     56 H19B      -5.3254   -3.8090   -3.6963 H         1 RES1    0.0000
     57 H20B      -4.2098   -4.6483   -3.7183 H         1 RES1    0.0000
     58 C3B       -6.0464   -1.6829   -7.3016 C.3       1 RES1    0.0000
     59 C4B       -3.8769   -2.7911   -7.8270 C.3       1 RES1    0.0000
     60 N1B       -5.6311   -3.8994   -6.4329 N.3       1 RES1    1.0000
     61 C5B       -4.0412   -5.7006   -6.0940 C.3       1 RES1    0.0000
     62 C6B       -6.2495   -5.7717   -5.0004 C.3       1 RES1    0.0000
     63 H4B       -6.8263   -1.4418   -6.6468 H         1 RES1    0.0000
     64 H5B       -5.6588   -0.8608   -7.4694 H         1 RES1    0.0000
     65 H7B       -3.5372   -2.0229   -8.1604 H         1 RES1    0.0000
     66 H8B       -4.2273   -3.4217   -8.4785 H         1 RES1    0.0000
     67 H9B       -3.0893   -3.4432   -7.5133 H         1 RES1    0.0000
     68 O1B       -6.4010   -4.3664   -7.3016 O.2       1 RES1   -1.0000
     69 H10B      -3.8723   -6.5636   -5.5061 H         1 RES1    0.0000
     70 H11B      -4.2162   -5.9395   -6.8442 H         1 RES1    0.0000
     71 H12B      -3.1501   -5.3585   -6.2081 H         1 RES1    0.0000
     72 H13B      -5.8557   -6.5206   -4.4531 H         1 RES1    0.0000
     73 H14B      -6.6467   -6.2408   -5.7254 H         1 RES1    0.0000
     74 H15B      -6.8324   -5.1648   -4.3983 H         1 RES1    0.0000
@<TRIPOS>BOND
     1    1    7 1
     2    2   10 1
     3    3   13 1
     4    4   13 1
     5    5   12 1
     6    6   12 1
     7    7    8 1
     8    8    9 1
     9    9   36 2
    10   10   11 1
    11   11   12 1
    12   12   34 1
    13   13    2 1
    14   14    2 1
    15   15    2 1
    16   16    1 1
    17   17    3 1
    18   18    3 1
    19   19    1 1
    20   20    4 1
    21   21    4 1
    22   22    4 1
    23   23    5 1
    24   24    5 1
    25   25    5 1
    26   26    6 1
    27   27    6 1
    28   28    6 1
    29   29    7 1
    30   30    8 1
    31   31   10 1
    32   32   11 1
    33   33   11 1
    34   34   13 1
    35   35   34 1
    36   37    9 1
    37   38    1 1
    38   39   38 1
    39   40   38 1
    40   41   38 1
    41   42   39 1
    42   43   39 1
    43   44   42 1
    44   45   42 1
    45   46   44 2
    46   47   44 1
    47   48   47 1
    48   49   48 1
    49   50   48 1
    50   51   48 1
    51   52   49 1
    52   53   49 1
    53   54   49 1
    54   55   50 1
    55   56   50 1
    56   57   50 1
    57   58   52 1
    58   59   52 1
    59   60   52 1
    60   61   55 1
    61   62   55 1
    62   63   58 1
    63   64   58 1
    64   65   59 1
    65   66   59 1
    66   67   59 1
    67   68   60 1
    68   69   61 1
    69   70   61 1
    70   71   61 1
    71   72   62 1
    72   73   62 1
    73   74   62 1
    74   10   37 1
    75   55   60 1
@<TRIPOS>SUBSTRUCTURE
     1 RES1 1

@<TRIPOS>CRYSIN
   6.0410   21.5200   13.6200  90.0000 126.3600  90.0000  14 1

