# MOL2 file generated by ConQuest
# Please check atom types

@<TRIPOS>MOLECULE
MQAZOX
    20    21     1
SMALL
NO_CHARGES
****
Generated from CSD

@<TRIPOS>ATOM
      1 C1        -1.1674    0.4730    2.1672 C.ar      1 RES1    0.0000
      2 C2        -1.4916    1.8132    4.0890 C.ar      1 RES1    0.0000
      3 C3        -0.7595    2.8389    3.4773 C.ar      1 RES1    0.0000
      4 C4        -0.4848    4.0807    4.0901 C.ar      1 RES1    0.0000
      5 C5         0.1754    5.0427    3.3981 C.ar      1 RES1    0.0000
      6 C6         0.5947    4.8194    2.0858 C.ar      1 RES1    0.0000
      7 C7         0.3795    3.6295    1.4762 C.ar      1 RES1    0.0000
      8 C8        -0.3033    2.6110    2.1650 C.ar      1 RES1    0.0000
      9 C9        -1.3929   -0.8543    1.5705 C.3       1 RES1    0.0000
     10 H1        -0.9298   -0.9192    0.7413 H         1 RES1    0.0000
     11 H2        -1.1268   -1.5612    2.2068 H         1 RES1    0.0000
     12 H3        -2.3646   -0.9960    1.4044 H         1 RES1    0.0000
     13 H4        -1.8347    1.8988    4.9332 H         1 RES1    0.0000
     14 H5        -0.7533    4.1962    4.9975 H         1 RES1    0.0000
     15 H6         0.3482    5.8668    3.7559 H         1 RES1    0.0000
     16 H7         0.9594    5.5259    1.6176 H         1 RES1    0.0000
     17 H8         0.6864    3.4498    0.5731 H         1 RES1    0.0000
     18 N1        -0.5136    1.4026    1.5469 N.ar      1 RES1    0.0000
     19 N2        -1.7105    0.6749    3.4549 N.pl3     1 RES1    0.0000
     20 O1        -2.4118   -0.2953    3.9819 O.2       1 RES1    0.0000
@<TRIPOS>BOND
     1    1    9 1
     2    2    3 ar
     3    3    4 ar
     4    4    5 ar
     5    5    6 ar
     6    6    7 ar
     7    7    8 ar
     8    8    3 ar
     9    9   10 1
    10   11    9 1
    11   12    9 1
    12   13    2 1
    13   14    4 1
    14   15    5 1
    15   16    6 1
    16   17    7 1
    17   18    1 ar
    18   19    1 ar
    19   20   19 1
    20    2   19 ar
    21    8   18 ar
@<TRIPOS>SUBSTRUCTURE
     1 RES1 1

@<TRIPOS>CRYSIN
   3.9400    9.0200   11.0300  79.8000  99.6000  92.5000   2 1

