# MOL2 file generated by ConQuest
# Please check atom types

@<TRIPOS>MOLECULE
MTNOAN10
    28    28     1
SMALL
NO_CHARGES
****
Generated from CSD

@<TRIPOS>ATOM
      1 C1         1.1327    4.3662    3.6675 C.ar      1 RES1    0.0000
      2 C2        -0.1636    4.8024    3.9560 C.ar      1 RES1    0.0000
      3 C3        -0.6104    5.1022    5.2208 C.ar      1 RES1    0.0000
      4 C4         0.2749    4.9111    6.2552 C.ar      1 RES1    0.0000
      5 C5         1.5644    4.4625    6.0606 C.ar      1 RES1    0.0000
      6 C6         1.9776    4.2311    4.7702 C.ar      1 RES1    0.0000
      7 C7         1.5817    5.2240    1.3885 C.3       1 RES1    0.0000
      8 C8         2.0524    2.8626    2.0679 C.2       1 RES1    0.0000
      9 C9         2.5944    2.6504    0.6914 C.3       1 RES1    0.0000
     10 H1        -1.5058    5.4067    5.3735 H         1 RES1    0.0000
     11 H2         2.1816    4.2975    6.7637 H         1 RES1    0.0000
     12 H3         2.7708    1.8008    0.6085 H         1 RES1    0.0000
     13 H4         3.3981    3.1440    0.5165 H         1 RES1    0.0000
     14 H5         2.0590    3.0114    0.0195 H         1 RES1    0.0000
     15 H6         2.4513    5.4942    1.2434 H         1 RES1    0.0000
     16 H7         1.2492    4.9102    0.5094 H         1 RES1    0.0000
     17 H8         1.0493    6.0541    1.7458 H         1 RES1    0.0000
     18 N1         1.5351    4.1069    2.3376 N.am      1 RES1    0.0000
     19 N2        -1.1255    4.9557    2.8433 N.pl3     1 RES1    0.0000
     20 N3        -0.1582    5.1893    7.6362 N.pl3     1 RES1    0.0000
     21 N4         3.3978    3.8619    4.6007 N.pl3     1 RES1    0.0000
     22 O1         2.0561    1.9965    2.9199 O.2       1 RES1    0.0000
     23 O2        -1.3143    4.0041    2.1110 O.2       1 RES1    0.0000
     24 O3        -1.6702    6.0430    2.7343 O.2       1 RES1    0.0000
     25 O4        -1.3149    5.5278    7.8152 O.2       1 RES1    0.0000
     26 O5         0.6666    5.0857    8.5330 O.2       1 RES1    0.0000
     27 O6         3.8936    3.1635    5.4557 O.2       1 RES1    0.0000
     28 O7         3.9847    4.2994    3.6282 O.2       1 RES1    0.0000
@<TRIPOS>BOND
     1    1    2 ar
     2    2    3 ar
     3    3    4 ar
     4    4    5 ar
     5    5    6 ar
     6    6    1 ar
     7    7   15 1
     8    8    9 1
     9    9   12 1
    10   10    3 1
    11   11    5 1
    12   13    9 1
    13   14    9 1
    14   16    7 1
    15   17    7 1
    16   18    1 1
    17   19    2 1
    18   20    4 1
    19   21    6 1
    20   22    8 2
    21   23   19 2
    22   24   19 2
    23   25   20 2
    24   26   20 2
    25   27   21 2
    26   28   21 2
    27    7   18 1
    28    8   18 1
@<TRIPOS>SUBSTRUCTURE
     1 RES1 1

@<TRIPOS>CRYSIN
   7.8130    8.6660   17.9900  90.0000 100.5210  90.0000  14 1

