# MOL2 file generated by ConQuest
# Please check atom types

@<TRIPOS>MOLECULE
MUBGUM
    37    38     1
SMALL
USER_CHARGES
****
Generated from CSD

@<TRIPOS>ATOM
      1 C1        -0.4326    6.5653    6.3464 C.2       1 RES1    0.0000
      2 C2         0.1630    7.7632    6.7566 C.2       1 RES1    0.0000
      3 H1         0.9471    8.0589    6.3531 H         1 RES1    0.0000
      4 C3        -0.4189    8.5006    7.7604 C.2       1 RES1   -1.0000
      5 C4        -1.5962    8.0741    8.3978 C.2       1 RES1    0.0000
      6 H2        -1.9693    8.5831    9.0808 H         1 RES1    0.0000
      7 C5        -2.1850    6.9168    8.0125 C.2       1 RES1    0.0000
      8 H3        -2.9576    6.6408    8.4496 H         1 RES1    0.0000
      9 C6        -1.6613    6.0997    6.9547 C.2       1 RES1    0.0000
     10 C7         0.2048    5.8270    5.3086 C.2       1 RES1    0.0000
     11 H4         0.9859    6.1773    4.9462 H         1 RES1    0.0000
     12 C8         0.4754    3.9645    3.7920 C.3       1 RES1    0.0000
     13 H5         0.5469    3.0340    4.0557 H         1 RES1    0.0000
     14 H6         1.3735    4.3177    3.6971 H         1 RES1    0.0000
     15 C9        -0.2364    4.0511    2.4611 C.3       1 RES1    0.0000
     16 H7        -1.1017    3.6169    2.5257 H         1 RES1    0.0000
     17 H8        -0.3816    4.9815    2.2293 H         1 RES1    0.0000
     18 C10        0.1172    3.7920    0.0812 C.3       1 RES1    0.0000
     19 H9         0.1532    4.7573   -0.0108 H         1 RES1    0.0000
     20 H10       -0.8002    3.5087   -0.0562 H         1 RES1    0.0000
     21 C11        1.0092    3.1477   -0.9458 C.3       1 RES1    0.0000
     22 H11        0.7281    3.4211   -1.8336 H         1 RES1    0.0000
     23 H12        1.9216    3.4486   -0.8140 H         1 RES1    0.0000
     24 C12        1.3784    1.3254    0.4459 C.3       1 RES1    0.0000
     25 H13        2.3030    1.5854    0.5821 H         1 RES1    0.0000
     26 H14        1.3257    0.3590    0.5128 H         1 RES1    0.0000
     27 C13        0.5218    1.9468    1.5210 C.3       1 RES1    0.0000
     28 H15       -0.3927    1.6375    1.4272 H         1 RES1    0.0000
     29 H16        0.8453    1.6727    2.3930 H         1 RES1    0.0000
     30 N1         0.1616    9.7648    8.1318 N.pl3     1 RES1    0.0000
     31 N2        -0.2266    4.7071    4.8371 N.pl3     1 RES1    1.0000
     32 N3         0.5588    3.4061    1.4210 N.3       1 RES1    0.0000
     33 O1        -2.2311    5.0419    6.5778 O.2       1 RES1    0.0000
     34 O2        -0.4422   10.4756    8.9327 O.2       1 RES1    0.0000
     35 O3         1.2294   10.1063    7.6226 O.2       1 RES1    0.0000
     36 O4         0.9614    1.7309   -0.8505 O.3       1 RES1    0.0000
     37 H17       -0.9756    4.3818    5.1817 H         1 RES1    0.0000
@<TRIPOS>BOND
     1    1    2 un
     2    2    3 1
     3    4    2 un
     4    5    4 un
     5    6    5 1
     6    7    5 un
     7    8    7 1
     8    9    1 1
     9   10    1 1
    10   11   10 1
    11   12   13 1
    12   14   12 1
    13   15   12 1
    14   16   15 1
    15   17   15 1
    16   18   19 1
    17   20   18 1
    18   21   18 1
    19   22   21 1
    20   23   21 1
    21   24   25 1
    22   26   24 1
    23   27   24 1
    24   28   27 1
    25   29   27 1
    26   30    4 1
    27   31   10 2
    28   32   15 1
    29   33    9 2
    30   34   30 2
    31   35   30 2
    32   36   21 1
    33   37   31 1
    34    7    9 1
    35   12   31 1
    36   18   32 1
    37   24   36 1
    38   27   32 1
@<TRIPOS>SUBSTRUCTURE
     1 RES1 1

@<TRIPOS>CRYSIN
   5.3520   10.8972   12.4537 102.3290  97.1430 104.1730   2 1

