# MOL2 file generated by ConQuest
# Please check atom types

@<TRIPOS>MOLECULE
MUBHAT
    57    58     1
SMALL
NO_CHARGES
****
Generated from CSD

@<TRIPOS>ATOM
      1 N1        10.6131    1.2886    2.4767 N.ar      1 RES1    0.0000
      2 O1         7.7041   -2.0558   -4.6083 O.2       1 RES1    0.0000
      3 O2         9.0667   -3.6237   -5.2164 O.2       1 RES1    0.0000
      4 N2        11.9408   -0.6006    2.2118 N.3       1 RES1    0.0000
      5 N3        11.1138    2.7368    4.3312 N.ar      1 RES1    0.0000
      6 N4        12.3264    0.6824    4.0461 N.ar      1 RES1    0.0000
      7 N5        12.7450    2.1004    5.8239 N.3       1 RES1    0.0000
      8 N6        11.2678   -0.9193    1.0785 N.2       1 RES1    0.0000
      9 C1         9.4437   -2.5966   -3.1715 C.ar      1 RES1    0.0000
     10 N7         8.6885   -2.7757   -4.4107 N.pl3     1 RES1    0.0000
     11 N8         9.4513    3.2460    2.8164 N.3       1 RES1    0.0000
     12 C2         9.7939   -1.3840   -1.1510 C.ar      1 RES1    0.0000
     13 H1         9.5392   -0.7156   -0.5566 H         1 RES1    0.0000
     14 C3        11.5938    0.5162    2.9335 C.ar      1 RES1    0.0000
     15 C4        10.9274   -2.1681   -0.8670 C.ar      1 RES1    0.0000
     16 C5        11.2674   -3.1919   -1.7611 C.ar      1 RES1    0.0000
     17 H2        11.9991   -3.7352   -1.5743 H         1 RES1    0.0000
     18 C6        12.0376    1.8281    4.6974 C.ar      1 RES1    0.0000
     19 C7        10.5346   -3.4118   -2.9212 C.ar      1 RES1    0.0000
     20 H3        10.7710   -4.0887   -3.5138 H         1 RES1    0.0000
     21 C8        11.7336   -1.8738    0.3460 C.2       1 RES1    0.0000
     22 C9         9.0535   -1.5914   -2.2982 C.ar      1 RES1    0.0000
     23 H4         8.3081   -1.0672   -2.4823 H         1 RES1    0.0000
     24 C10       10.4223    2.3948    3.2270 C.ar      1 RES1    0.0000
     25 C11       13.7849    1.1841    6.2928 C.3       1 RES1    0.0000
     26 H5        14.4721    1.6961    6.7476 H         1 RES1    0.0000
     27 H6        14.1955    0.7556    5.5247 H         1 RES1    0.0000
     28 C12       13.0071   -2.6128    0.6447 C.3       1 RES1    0.0000
     29 C13       12.4226    3.2818    6.6261 C.3       1 RES1    0.0000
     30 H7        12.3107    4.0411    6.0326 H         1 RES1    0.0000
     31 H8        13.1711    3.4741    7.2120 H         1 RES1    0.0000
     32 C14        8.5499    2.8817    1.7221 C.3       1 RES1    0.0000
     33 H9         9.0470    2.3926    1.0472 H         1 RES1    0.0000
     34 H10        8.2047    3.6895    1.3116 H         1 RES1    0.0000
     35 C15        9.2019    4.5084    3.5121 C.3       1 RES1    0.0000
     36 H11        9.3968    4.3974    4.4566 H         1 RES1    0.0000
     37 H12        8.2645    4.7405    3.4268 H         1 RES1    0.0000
     38 C16       11.1595    3.1286    7.4733 C.3       1 RES1    0.0000
     39 H13       11.0081    3.9353    7.9704 H         1 RES1    0.0000
     40 H14       11.2692    2.3936    8.0818 H         1 RES1    0.0000
     41 H15       10.4077    2.9605    6.9006 H         1 RES1    0.0000
     42 C17        7.3900    2.0302    2.2027 C.3       1 RES1    0.0000
     43 H16        6.8241    1.8114    1.4594 H         1 RES1    0.0000
     44 H17        6.8845    2.5175    2.8580 H         1 RES1    0.0000
     45 H18        7.7280    1.2225    2.5953 H         1 RES1    0.0000
     46 C18       10.0510    5.6390    2.9558 C.3       1 RES1    0.0000
     47 H19        9.8613    6.4480    3.4373 H         1 RES1    0.0000
     48 H20        9.8469    5.7648    2.0265 H         1 RES1    0.0000
     49 H21       10.9805    5.4189    3.0528 H         1 RES1    0.0000
     50 C19       13.2667    0.1123    7.2350 C.3       1 RES1    0.0000
     51 H22       13.9927   -0.4555    7.5042 H         1 RES1    0.0000
     52 H23       12.5998   -0.4126    6.7858 H         1 RES1    0.0000
     53 H24       12.8800    0.5269    8.0104 H         1 RES1    0.0000
     54 H25       13.3050   -3.2178   -0.0365 H         1 RES1    0.0000
     55 H26       12.9705   -3.0968    1.4699 H         1 RES1    0.0000
     56 H27       13.7498   -1.9781    0.7741 H         1 RES1    0.0000
     57 H28       12.6227   -1.0520    2.5014 H         1 RES1    0.0000
@<TRIPOS>BOND
     1    1   14 ar
     2    2   10 2
     3    3   10 2
     4    4    8 1
     5    5   18 ar
     6    6   14 ar
     7    7   18 1
     8    8   21 2
     9    9   10 1
    10   11   24 1
    11   12   13 1
    12   14    4 1
    13   15   12 ar
    14   16   15 ar
    15   17   16 1
    16   18    6 ar
    17   19    9 ar
    18   20   19 1
    19   21   15 1
    20   22    9 ar
    21   23   22 1
    22   24    1 ar
    23   25    7 1
    24   26   25 1
    25   27   25 1
    26   28   21 1
    27   29    7 1
    28   30   29 1
    29   31   29 1
    30   32   11 1
    31   33   32 1
    32   34   32 1
    33   35   11 1
    34   36   35 1
    35   37   35 1
    36   38   29 1
    37   39   38 1
    38   40   38 1
    39   41   38 1
    40   42   32 1
    41   43   42 1
    42   44   42 1
    43   45   42 1
    44   46   35 1
    45   47   46 1
    46   48   46 1
    47   49   46 1
    48   50   25 1
    49   51   50 1
    50   52   50 1
    51   53   50 1
    52   54   28 1
    53   55   28 1
    54   56   28 1
    55   57    4 1
    56    5   24 ar
    57   12   22 ar
    58   16   19 ar
@<TRIPOS>SUBSTRUCTURE
     1 RES1 1

@<TRIPOS>CRYSIN
  12.3330    9.5286   17.4070  90.0000  92.1200  90.0000 231 1

