# MOL2 file generated by ConQuest
# Please check atom types

@<TRIPOS>MOLECULE
MUBKAW
    36    34     2
SMALL
NO_CHARGES
****
Generated from CSD

@<TRIPOS>ATOM
      1 O1         5.1152   15.2343    1.1880 O.2       1 RES1    0.0000
      2 O2         3.5897    7.4004    3.5980 O.3       1 RES1    0.0000
      3 H1         3.0739    7.6867    4.1677 H         1 RES1    0.0000
      4 O3         4.6602    6.7669    1.2738 O.3       1 RES1    0.0000
      5 H2         4.4298    6.3103    1.9153 H         1 RES1    0.0000
      6 O4         8.3902   18.9488   -4.0496 O.2       1 RES1    0.0000
      7 O5         7.6538   20.3232   -2.5817 O.2       1 RES1    0.0000
      8 N1         7.7936   19.1909   -3.0185 N.pl3     1 RES1    0.0000
      9 N2         5.8675   13.6617   -0.2365 N.am      1 RES1    0.0000
     10 H3         6.1481   13.3148   -1.0206 H         1 RES1    0.0000
     11 N3         5.3714   12.6866    0.6147 N.2       1 RES1    0.0000
     12 C1         7.2427   18.0746   -2.2367 C.ar      1 RES1    0.0000
     13 C2         6.6593   18.3609   -1.0272 C.ar      1 RES1    0.0000
     14 H4         6.5971   19.2384   -0.7241 H         1 RES1    0.0000
     15 C3         6.1685   17.3171   -0.2742 C.ar      1 RES1    0.0000
     16 H5         5.7738   17.4913    0.5497 H         1 RES1    0.0000
     17 C4         6.2567   16.0120   -0.7320 C.ar      1 RES1    0.0000
     18 C5         6.8464   15.7666   -1.9678 C.ar      1 RES1    0.0000
     19 H6         6.9019   14.8956   -2.2892 H         1 RES1    0.0000
     20 C6         7.3474   16.8064   -2.7155 C.ar      1 RES1    0.0000
     21 H7         7.7518   16.6441   -3.5367 H         1 RES1    0.0000
     22 C7         5.6953   14.9445    0.1364 C.2       1 RES1    0.0000
     23 C8         5.5134   11.4739    0.2611 C.2       1 RES1    0.0000
     24 H8         5.9198   11.2641   -0.5483 H         1 RES1    0.0000
     25 C9         5.0308   10.4156    1.1400 C.ar      1 RES1    0.0000
     26 C10        4.4734   10.7349    2.3744 C.ar      1 RES1    0.0000
     27 H9         4.4245   11.6270    2.6342 H         1 RES1    0.0000
     28 C11        3.9925    9.7690    3.2101 C.ar      1 RES1    0.0000
     29 H10        3.6322   10.0052    4.0352 H         1 RES1    0.0000
     30 C12        4.0405    8.4388    2.8296 C.ar      1 RES1    0.0000
     31 C13        4.5961    8.1023    1.6136 C.ar      1 RES1    0.0000
     32 C14        5.0819    9.0841    0.7753 C.ar      1 RES1    0.0000
     33 H11        5.4493    8.8479   -0.0446 H         1 RES1    0.0000
     34 H12        4.6440    7.2103    1.3564 Du        2 SUP2    0.0000
     35 H13        2.8155   10.0012    4.5114 Du        2 SUP2    0.0000
     36 O6         3.5545   10.3074    4.3317 Du        2 SUP2    0.0000
@<TRIPOS>BOND
     1    1   22 2
     2    2    3 1
     3    4    5 1
     4    6    8 2
     5    7    8 2
     6    8   12 1
     7    9   10 1
     8   11    9 1
     9   12   13 ar
    10   13   14 1
    11   15   13 ar
    12   16   15 1
    13   17   15 ar
    14   18   17 ar
    15   19   18 1
    16   20   12 ar
    17   21   20 1
    18   22    9 1
    19   23   11 2
    20   24   23 1
    21   25   23 1
    22   26   25 ar
    23   27   26 1
    24   28   26 ar
    25   29   28 1
    26   30    2 1
    27   31    4 1
    28   32   25 ar
    29   33   32 1
    30   17   22 1
    31   18   20 ar
    32   28   30 ar
    33   30   31 ar
    34   31   32 ar
@<TRIPOS>SUBSTRUCTURE
     1 RES1 1
     2 SUP2 34

@<TRIPOS>CRYSIN
   7.6660   13.1960   13.1760  90.0000  95.3610  90.0000  14 1

