# MOL2 file generated by ConQuest
# Please check atom types

@<TRIPOS>MOLECULE
MUBKEA
    33    35     1
SMALL
NO_CHARGES
****
Generated from CSD

@<TRIPOS>ATOM
      1 O1         2.8263    1.2008   10.3587 O.2       1 RES1    0.0000
      2 O2         4.1553    6.5267    5.4750 O.3       1 RES1    0.0000
      3 N1         4.4354    4.2971    3.8300 N.am      1 RES1    0.0000
      4 O3         1.1080    1.3920    9.0532 O.2       1 RES1    0.0000
      5 N2         2.2349    1.7220    9.4141 N.pl3     1 RES1    0.0000
      6 C1         4.1527    4.8234    7.3059 C.ar      1 RES1    0.0000
      7 C2         4.1144    3.2745    9.1400 C.ar      1 RES1    0.0000
      8 H1         4.5027    2.9129    9.9037 H         1 RES1    0.0000
      9 C3         4.3021    3.2231    2.9172 C.ar      1 RES1    0.0000
     10 C4         4.7320    4.2799    8.4481 C.ar      1 RES1    0.0000
     11 H2         5.5518    4.6042    8.7448 H         1 RES1    0.0000
     12 O4         6.6371    4.1313    4.3846 O.2       1 RES1    0.0000
     13 C5         2.9061    2.8136    8.6790 C.ar      1 RES1    0.0000
     14 C6         2.9286    4.3283    6.8699 C.ar      1 RES1    0.0000
     15 H3         2.5300    4.6806    6.1064 H         1 RES1    0.0000
     16 C7         5.4280    5.9338    5.2839 C.3       1 RES1    0.0000
     17 H4         6.1548    6.5781    5.1528 H         1 RES1    0.0000
     18 C8         2.3102    3.3228    7.5635 C.ar      1 RES1    0.0000
     19 H5         1.4906    2.9903    7.2760 H         1 RES1    0.0000
     20 C9         4.8176    5.9785    6.6245 C.3       1 RES1    0.0000
     21 H6         5.2060    6.6436    7.2311 H         1 RES1    0.0000
     22 C10        5.3167    2.8583    2.0861 C.ar      1 RES1    0.0000
     23 H7         6.1344    3.2984    2.1296 H         1 RES1    0.0000
     24 C11        5.5586    4.6884    4.4601 C.2       1 RES1    0.0000
     25 C12        5.1285    1.8337    1.1790 C.ar      1 RES1    0.0000
     26 H8         5.8233    1.5921    0.6094 H         1 RES1    0.0000
     27 C13        3.0869    2.5590    2.8681 C.ar      1 RES1    0.0000
     28 H9         2.3961    2.7965    3.4445 H         1 RES1    0.0000
     29 C14        3.9320    1.1670    1.1052 C.ar      1 RES1    0.0000
     30 H10        3.8114    0.4770    0.4939 H         1 RES1    0.0000
     31 C15        2.9152    1.5375    1.9517 C.ar      1 RES1    0.0000
     32 H11        2.0983    1.0948    1.9072 H         1 RES1    0.0000
     33 H12        3.6112    4.6244    4.1436 H         1 RES1    0.0000
@<TRIPOS>BOND
     1    1    5 2
     2    2   16 1
     3    3    9 1
     4    4    5 2
     5    5   13 1
     6    6   10 ar
     7    7    8 1
     8    9   22 ar
     9   10    7 ar
    10   11   10 1
    11   12   24 2
    12   13    7 ar
    13   14    6 ar
    14   15   14 1
    15   16   17 1
    16   18   13 ar
    17   19   18 1
    18   20    2 1
    19   21   20 1
    20   22   23 1
    21   24    3 1
    22   25   22 ar
    23   26   25 1
    24   27    9 ar
    25   28   27 1
    26   29   25 ar
    27   30   29 1
    28   31   27 ar
    29   32   31 1
    30   33    3 1
    31    6   20 1
    32   14   18 ar
    33   16   20 1
    34   16   24 1
    35   29   31 ar
@<TRIPOS>SUBSTRUCTURE
     1 RES1 1

@<TRIPOS>CRYSIN
   5.9800    5.1960   21.5030  90.0000  96.1050  90.0000   4 1

