# MOL2 file generated by ConQuest
# Please check atom types

@<TRIPOS>MOLECULE
MUBLUR
    18    18     1
SMALL
NO_CHARGES
****
Generated from CSD

@<TRIPOS>ATOM
      1 O1        -0.1774    6.1283    3.7322 O.3       1 RES1    0.0000
      2 O2         0.7023    1.1861    4.3364 O.2       1 RES1    0.0000
      3 O3        -0.6158    1.0099    2.6319 O.2       1 RES1    0.0000
      4 N1        -0.0290    1.6838    3.4788 N.pl3     1 RES1    0.0000
      5 C1         0.4331    5.2529    4.5974 C.2       1 RES1    0.0000
      6 C2         1.0694    5.9461    5.5799 C.2       1 RES1    0.0000
      7 H1         1.5676    5.5796    6.3008 H         1 RES1    0.0000
      8 C3         0.8443    7.3258    5.3189 C.2       1 RES1    0.0000
      9 H2         1.1634    8.0603    5.8298 H         1 RES1    0.0000
     10 C4         0.0926    7.3869    4.2082 C.2       1 RES1    0.0000
     11 H3        -0.2109    8.1925    3.8059 H         1 RES1    0.0000
     12 C5         0.3942    3.8349    4.4062 C.2       1 RES1    0.0000
     13 H4         0.8648    3.3170    5.0487 H         1 RES1    0.0000
     14 C6        -0.2233    3.1441    3.4336 C.2       1 RES1    0.0000
     15 C7        -1.0792    3.6271    2.3205 C.3       1 RES1    0.0000
     16 H5        -1.4166    4.5224    2.5327 H         1 RES1    0.0000
     17 H6        -1.8348    3.0140    2.1995 H         1 RES1    0.0000
     18 H7        -0.5527    3.6634    1.4950 H         1 RES1    0.0000
@<TRIPOS>BOND
     1    1    5 1
     2    2    4 2
     3    3    4 2
     4    4   14 1
     5    5    6 2
     6    6    7 1
     7    8    6 1
     8    9    8 1
     9   10    1 1
    10   11   10 1
    11   12    5 1
    12   13   12 1
    13   14   12 2
    14   15   14 1
    15   16   15 1
    16   17   15 1
    17   18   15 1
    18    8   10 2
@<TRIPOS>SUBSTRUCTURE
     1 RES1 1

@<TRIPOS>CRYSIN
   7.1061    9.4394   10.7430  90.0000 101.8600  90.0000 231 1

