# MOL2 file generated by ConQuest
# Please check atom types

@<TRIPOS>MOLECULE
MUBROR
    33    35     1
SMALL
NO_CHARGES
****
Generated from CSD

@<TRIPOS>ATOM
      1 C1         5.8086    3.0434   -2.4453 C.ar      1 RES1    0.0000
      2 H1         5.8535    3.4223   -3.2940 H         1 RES1    0.0000
      3 C2         6.8449    3.3234   -1.5636 C.ar      1 RES1    0.0000
      4 H2         7.5540    3.8654   -1.8236 H         1 RES1    0.0000
      5 C3         6.8020    2.7921   -0.3152 C.ar      1 RES1    0.0000
      6 H3         7.4901    2.9605    0.2882 H         1 RES1    0.0000
      7 C4         5.7169    1.9880    0.0564 C.ar      1 RES1    0.0000
      8 C5         5.6024    1.4085    1.3367 C.ar      1 RES1    0.0000
      9 H4         6.2548    1.5601    1.9818 H         1 RES1    0.0000
     10 C6         4.5281    0.6285    1.6176 C.ar      1 RES1    0.0000
     11 C7         3.5320    0.4047    0.6610 C.ar      1 RES1    0.0000
     12 H5         2.8017   -0.1310    0.8719 H         1 RES1    0.0000
     13 C8         3.6229    0.9574   -0.5641 C.ar      1 RES1    0.0000
     14 H6         2.9484    0.8041   -1.1859 H         1 RES1    0.0000
     15 C9         4.7148    1.7580   -0.9161 C.ar      1 RES1    0.0000
     16 C10        5.2793    0.1462    3.8311 C.3       1 RES1    0.0000
     17 H7         5.3884    1.0804    4.0690 H         1 RES1    0.0000
     18 H8         6.1311   -0.1881    3.5086 H         1 RES1    0.0000
     19 C11        4.8403   -0.6401    5.0305 C.ar      1 RES1    0.0000
     20 C12        5.3046   -0.2879    6.2777 C.ar      1 RES1    0.0000
     21 H9         5.8654    0.4493    6.3635 H         1 RES1    0.0000
     22 C13        4.9585   -1.0020    7.3973 C.ar      1 RES1    0.0000
     23 H10        5.2840   -0.7622    8.2349 H         1 RES1    0.0000
     24 C14        4.1268   -2.0691    7.2551 C.ar      1 RES1    0.0000
     25 C15        3.6349   -2.4506    6.0324 C.ar      1 RES1    0.0000
     26 H11        3.0634   -3.1807    5.9588 H         1 RES1    0.0000
     27 C16        4.0044   -1.7339    4.9152 C.ar      1 RES1    0.0000
     28 H12        3.6900   -1.9888    4.0776 H         1 RES1    0.0000
     29 N1         4.7733    2.2884   -2.1743 N.ar      1 RES1    0.0000
     30 N2         3.7470   -2.8340    8.4410 N.pl3     1 RES1    0.0000
     31 O1         4.2889    0.0143    2.8162 O.3       1 RES1    0.0000
     32 O2         4.2611   -2.5558    9.5045 O.2       1 RES1    0.0000
     33 O3         2.9356   -3.7299    8.3182 O.2       1 RES1    0.0000
@<TRIPOS>BOND
     1    1    2 1
     2    3    1 ar
     3    4    3 1
     4    5    3 ar
     5    6    5 1
     6    7    5 ar
     7    8    7 ar
     8    9    8 1
     9   10    8 ar
    10   11   10 ar
    11   12   11 1
    12   13   11 ar
    13   14   13 1
    14   15    7 ar
    15   16   17 1
    16   18   16 1
    17   19   16 1
    18   20   19 ar
    19   21   20 1
    20   22   20 ar
    21   23   22 1
    22   24   22 ar
    23   25   24 ar
    24   26   25 1
    25   27   19 ar
    26   28   27 1
    27   29    1 ar
    28   30   24 1
    29   31   10 1
    30   32   30 2
    31   33   30 2
    32   13   15 ar
    33   15   29 ar
    34   16   31 1
    35   25   27 ar
@<TRIPOS>SUBSTRUCTURE
     1 RES1 1

@<TRIPOS>CRYSIN
  12.2960    8.9146   13.5590  90.0000 115.2500  90.0000 231 1

