# MOL2 file generated by ConQuest
# Please check atom types

@<TRIPOS>MOLECULE
MUCDOE
    24    24     1
SMALL
NO_CHARGES
****
Generated from CSD

@<TRIPOS>ATOM
      1 O1         4.1957    2.9159    4.6038 O.3       1 RES1    0.0000
      2 H1         4.8814    3.3041    4.2203 H         1 RES1    0.0000
      3 O2         2.0273    2.0620    5.6777 O.3       1 RES1    0.0000
      4 O3        -0.5760    6.1925    7.1075 O.2       1 RES1    0.0000
      5 O4         5.5896    4.9793    3.8773 O.2       1 RES1    0.0000
      6 O5         4.9288    6.9981    4.2919 O.2       1 RES1    0.0000
      7 N1         4.7690    5.7845    4.3517 N.pl3     1 RES1    0.0000
      8 C1         1.5022    5.7043    6.1034 C.ar      1 RES1    0.0000
      9 C2         1.2556    4.3152    6.1647 C.ar      1 RES1    0.0000
     10 H2         0.4706    3.9818    6.5876 H         1 RES1    0.0000
     11 C3         2.1666    3.4124    5.6603 C.ar      1 RES1    0.0000
     12 C4         3.3760    3.8639    5.0581 C.ar      1 RES1    0.0000
     13 C5         3.5826    5.2513    4.9924 C.ar      1 RES1    0.0000
     14 C6         2.6633    6.1693    5.5165 C.ar      1 RES1    0.0000
     15 H3         2.8615    7.0942    5.4504 H         1 RES1    0.0000
     16 C7         0.7973    1.5551    6.2164 C.3       1 RES1    0.0000
     17 H4         0.7339    1.7925    7.1650 H         1 RES1    0.0000
     18 H5         0.7767    0.5801    6.1214 H         1 RES1    0.0000
     19 H6         0.0419    1.9472    5.7303 H         1 RES1    0.0000
     20 C8         0.4887    6.6318    6.6933 C.2       1 RES1    0.0000
     21 C9         0.7958    8.1016    6.7466 C.3       1 RES1    0.0000
     22 H7         0.7375    8.4798    5.8446 H         1 RES1    0.0000
     23 H8         1.7012    8.2343    7.0987 H         1 RES1    0.0000
     24 H9         0.1496    8.5487    7.3314 H         1 RES1    0.0000
@<TRIPOS>BOND
     1    1    2 1
     2    3   11 1
     3    4   20 2
     4    5    7 2
     5    6    7 2
     6    7   13 1
     7    8    9 ar
     8    9   10 1
     9   11    9 ar
    10   12    1 1
    11   13   12 ar
    12   14    8 ar
    13   15   14 1
    14   16    3 1
    15   17   16 1
    16   18   16 1
    17   19   16 1
    18   20    8 1
    19   21   20 1
    20   22   21 1
    21   23   21 1
    22   24   21 1
    23   11   12 ar
    24   13   14 ar
@<TRIPOS>SUBSTRUCTURE
     1 RES1 1

@<TRIPOS>CRYSIN
   6.6598   16.8150    8.0491  90.0000  96.4850  90.0000  14 1

