# MOL2 file generated by ConQuest
# Please check atom types

@<TRIPOS>MOLECULE
MUCKEA
    29    30     1
SMALL
NO_CHARGES
****
Generated from CSD

@<TRIPOS>ATOM
      1 N1         2.0021    5.5433   11.4251 N.3       1 RES1    0.0000
      2 C1         1.2907    4.5119   11.9296 C.2       1 RES1    0.0000
      3 N2         1.5838    3.3373   11.4000 N.2       1 RES1    0.0000
      4 C2         2.5539    3.6379   10.4537 C.ar      1 RES1    0.0000
      5 C3         3.2329    2.8000    9.5763 C.ar      1 RES1    0.0000
      6 C4         4.1493    3.3630    8.7302 C.ar      1 RES1    0.0000
      7 C5         4.4101    4.7342    8.7396 C.ar      1 RES1    0.0000
      8 C6         3.7551    5.5845    9.6014 C.ar      1 RES1    0.0000
      9 C7         2.8242    5.0111   10.4506 C.ar      1 RES1    0.0000
     10 N3         0.3461    4.7661   12.9198 N.3       1 RES1    0.0000
     11 O1         0.3440    5.9551   13.4024 O.2       1 RES1    0.0000
     12 C8        -0.6233    3.7460   13.4525 C.3       1 RES1    0.0000
     13 C9        -1.2790    3.0089   12.2931 C.3       1 RES1    0.0000
     14 C10       -1.6815    4.4964   14.2359 C.3       1 RES1    0.0000
     15 C11        0.1493    2.7979   14.3582 C.3       1 RES1    0.0000
     16 H1         1.8507    6.4029   11.6789 H         1 RES1    0.0000
     17 H2         3.0692    1.8848    9.5637 H         1 RES1    0.0000
     18 H3         4.6096    2.8185    8.1317 H         1 RES1    0.0000
     19 H4         5.0417    5.0811    8.1536 H         1 RES1    0.0000
     20 H5         3.9292    6.4976    9.6108 H         1 RES1    0.0000
     21 H6        -0.6082    2.5344   11.7949 H         1 RES1    0.0000
     22 H7        -1.7145    3.6420   11.7165 H         1 RES1    0.0000
     23 H8        -1.9257    2.3872   12.6315 H         1 RES1    0.0000
     24 H9        -2.1603    5.0832   13.6468 H         1 RES1    0.0000
     25 H10       -1.2618    5.0111   14.9285 H         1 RES1    0.0000
     26 H11       -2.2938    3.8695   14.6308 H         1 RES1    0.0000
     27 H12        0.8050    2.3254   13.8380 H         1 RES1    0.0000
     28 H13       -0.4575    2.1700   14.7561 H         1 RES1    0.0000
     29 H14        0.5882    3.3003   15.0475 H         1 RES1    0.0000
@<TRIPOS>BOND
     1    1    2 1
     2    2    3 2
     3    3    4 1
     4    4    5 ar
     5    5    6 ar
     6    6    7 ar
     7    7    8 ar
     8    8    9 ar
     9    9    1 1
    10   10    2 1
    11   11   10 1
    12   12   10 1
    13   13   12 1
    14   14   12 1
    15   15   12 1
    16   16    1 1
    17   17    5 1
    18   18    6 1
    19   19    7 1
    20   20    8 1
    21   21   13 1
    22   22   13 1
    23   23   13 1
    24   24   14 1
    25   25   14 1
    26   26   14 1
    27   27   15 1
    28   28   15 1
    29   29   15 1
    30    4    9 ar
@<TRIPOS>SUBSTRUCTURE
     1 RES1 1

@<TRIPOS>CRYSIN
   6.8800   10.2940   31.3360  90.0000  90.0000  90.0000  61 1

