# MOL2 file generated by ConQuest
# Please check atom types

@<TRIPOS>MOLECULE
MUDQIM
    43    45     1
SMALL
NO_CHARGES
****
Generated from CSD

@<TRIPOS>ATOM
      1 C1         5.8867    8.9586    5.4328 C.ar      1 RES1    0.0000
      2 C2         6.2816   10.2870    5.2975 C.ar      1 RES1    0.0000
      3 H1         5.6374   10.9690    5.1473 H         1 RES1    0.0000
      4 C3         7.6112   10.5964    5.3834 C.ar      1 RES1    0.0000
      5 H2         7.8905   11.4988    5.2691 H         1 RES1    0.0000
      6 C4         8.5829    9.5920    5.6418 C.ar      1 RES1    0.0000
      7 C5         8.1453    8.2750    5.7757 C.ar      1 RES1    0.0000
      8 H3         8.7783    7.5881    5.9502 H         1 RES1    0.0000
      9 C6         6.8064    7.9526    5.6600 C.ar      1 RES1    0.0000
     10 H4         6.5226    7.0502    5.7358 H         1 RES1    0.0000
     11 C7        10.0379    9.9112    5.7223 C.2       1 RES1    0.0000
     12 C8        10.9152    9.1595    5.0547 C.2       1 RES1    0.0000
     13 H5        10.5575    8.4451    4.5406 H         1 RES1    0.0000
     14 C9        12.4165    9.3280    5.0303 C.3       1 RES1    0.0000
     15 H6        12.7097    9.4397    4.0915 H         1 RES1    0.0000
     16 H7        12.8358    8.5018    5.3800 H         1 RES1    0.0000
     17 C10       12.9250   10.5381    5.8623 C.3       1 RES1    0.0000
     18 C11       11.9573   10.7762    7.0142 C.2       1 RES1    0.0000
     19 C12       10.5222   11.1116    6.5725 C.3       1 RES1    0.0000
     20 C13        9.6578   11.3675    7.8022 C.3       1 RES1    0.0000
     21 H8         9.5938   10.5446    8.3325 H         1 RES1    0.0000
     22 H9         8.7621   11.6446    7.5194 H         1 RES1    0.0000
     23 H10       10.0645   12.0739    8.3453 H         1 RES1    0.0000
     24 C14       10.6391   12.4108    5.7108 C.3       1 RES1    0.0000
     25 H11        9.7393   12.6554    5.3746 H         1 RES1    0.0000
     26 H12       10.9578   13.1512    6.2857 H         1 RES1    0.0000
     27 C15       11.5781   12.2618    4.5372 C.3       1 RES1    0.0000
     28 H13       11.6450   13.1236    4.0536 H         1 RES1    0.0000
     29 H14       11.2200   11.5846    3.9102 H         1 RES1    0.0000
     30 C16       12.9722   11.8325    5.0141 C.3       1 RES1    0.0000
     31 H15       13.3701   12.5599    5.5538 H         1 RES1    0.0000
     32 H16       13.5532   11.6834    4.2268 H         1 RES1    0.0000
     33 C17       14.3051   10.2983    6.4886 C.2       1 RES1    0.0000
     34 C18       15.7620    8.7642    7.5289 C.3       1 RES1    0.0000
     35 H17       15.8096    7.8165    7.7704 H         1 RES1    0.0000
     36 H18       15.8207    9.3118    8.3406 H         1 RES1    0.0000
     37 H19       16.5044    8.9878    6.9296 H         1 RES1    0.0000
     38 N1         4.4647    8.6233    5.3354 N.pl3     1 RES1    0.0000
     39 O1         3.6515    9.5467    5.1751 O.2       1 RES1    0.0000
     40 O2         4.1352    7.4666    5.4105 O.2       1 RES1    0.0000
     41 O3        12.2985   10.7471    8.1688 O.2       1 RES1    0.0000
     42 O4        15.1224   11.1699    6.6550 O.2       1 RES1    0.0000
     43 O5        14.4927    9.0315    6.8525 O.3       1 RES1    0.0000
@<TRIPOS>BOND
     1    1    2 ar
     2    2    3 1
     3    4    2 ar
     4    5    4 1
     5    6    4 ar
     6    7    6 ar
     7    8    7 1
     8    9    1 ar
     9   10    9 1
    10   11    6 1
    11   12   11 2
    12   13   12 1
    13   14   12 1
    14   15   14 1
    15   16   14 1
    16   17   14 1
    17   18   17 1
    18   19   11 1
    19   20   19 1
    20   21   20 1
    21   22   20 1
    22   23   20 1
    23   24   19 1
    24   25   24 1
    25   26   24 1
    26   27   24 1
    27   28   27 1
    28   29   27 1
    29   30   17 1
    30   31   30 1
    31   32   30 1
    32   33   17 1
    33   34   35 1
    34   36   34 1
    35   37   34 1
    36   38    1 1
    37   39   38 2
    38   40   38 2
    39   41   18 2
    40   42   33 2
    41   43   33 1
    42    7    9 ar
    43   18   19 1
    44   27   30 1
    45   34   43 1
@<TRIPOS>SUBSTRUCTURE
     1 RES1 1

@<TRIPOS>CRYSIN
  14.7250   16.2000    6.7680  90.0000  91.9910  90.0000   9 1

