# MOL2 file generated by ConQuest
# Please check atom types

@<TRIPOS>MOLECULE
MUDWEO
    40    42     1
SMALL
NO_CHARGES
****
Generated from CSD

@<TRIPOS>ATOM
      1 C1        -1.3329    9.3231   11.1650 C.ar      1 RES1    0.0000
      2 C2        -1.2777   10.5387   10.5136 C.ar      1 RES1    0.0000
      3 H1        -0.5905   11.1380   10.6955 H         1 RES1    0.0000
      4 C3        -2.2512   10.8563    9.5891 C.ar      1 RES1    0.0000
      5 H2        -2.2189   11.6751    9.1492 H         1 RES1    0.0000
      6 C4        -3.2629    9.9767    9.3131 C.ar      1 RES1    0.0000
      7 H3        -3.9065   10.1914    8.6767 H         1 RES1    0.0000
      8 C5        -3.3262    8.7770    9.9776 C.ar      1 RES1    0.0000
      9 H4        -4.0193    8.1837    9.7963 H         1 RES1    0.0000
     10 C6        -2.3667    8.4451   10.9131 C.ar      1 RES1    0.0000
     11 H5        -2.4168    7.6367   11.3689 H         1 RES1    0.0000
     12 N1        -0.3437    9.0636   12.1539 N.pl3     1 RES1    0.0000
     13 H6        -0.1819    9.6994   12.7102 H         1 RES1    0.0000
     14 C7         0.3722    7.9245   12.3139 C.ar      1 RES1    0.0000
     15 C8         0.3158    6.8805   11.3857 C.ar      1 RES1    0.0000
     16 H7        -0.2271    6.9894   10.6387 H         1 RES1    0.0000
     17 C9         1.0235    5.6842   11.5114 C.ar      1 RES1    0.0000
     18 C10        1.8707    5.5545   12.6589 C.ar      1 RES1    0.0000
     19 C11        1.9509    6.5692   13.5827 C.ar      1 RES1    0.0000
     20 H8         2.5061    6.4655   14.3217 H         1 RES1    0.0000
     21 C12        1.2316    7.7325   13.4441 C.ar      1 RES1    0.0000
     22 N2         1.3808    8.6961   14.5051 N.pl3     1 RES1    0.0000
     23 O1         0.8233    9.7928   14.4101 O.2       1 RES1    0.0000
     24 O2         2.0523    8.3989   15.4887 O.2       1 RES1    0.0000
     25 N3         2.6485    4.3731   12.9462 N.pl3     1 RES1    0.0000
     26 O3         2.4588    3.3545   12.2712 O.2       1 RES1    0.0000
     27 O4         3.4653    4.4015   13.8594 O.2       1 RES1    0.0000
     28 N4         0.9198    4.6822   10.5960 N.pl3     1 RES1    0.0000
     29 H9         1.3545    3.9614   10.7745 H         1 RES1    0.0000
     30 C13        0.1828    4.6795    9.3828 C.ar      1 RES1    0.0000
     31 C14        0.2856    5.6983    8.4597 C.ar      1 RES1    0.0000
     32 H10        0.8138    6.4413    8.6434 H         1 RES1    0.0000
     33 C15       -0.3953    5.6149    7.2641 C.ar      1 RES1    0.0000
     34 H11       -0.3393    6.3125    6.6523 H         1 RES1    0.0000
     35 C16       -1.1571    4.5107    6.9692 C.ar      1 RES1    0.0000
     36 H12       -1.6123    4.4578    6.1604 H         1 RES1    0.0000
     37 C17       -1.2414    3.4870    7.8768 C.ar      1 RES1    0.0000
     38 H13       -1.7477    2.7330    7.6749 H         1 RES1    0.0000
     39 C18       -0.5818    3.5630    9.0846 C.ar      1 RES1    0.0000
     40 H14       -0.6499    2.8673    9.6979 H         1 RES1    0.0000
@<TRIPOS>BOND
     1    1    2 ar
     2    2    3 1
     3    4    2 ar
     4    5    4 1
     5    6    4 ar
     6    7    6 1
     7    8    6 ar
     8    9    8 1
     9   10    1 ar
    10   11   10 1
    11   12    1 1
    12   13   12 1
    13   14   12 1
    14   15   14 ar
    15   16   15 1
    16   17   15 ar
    17   18   17 ar
    18   19   18 ar
    19   20   19 1
    20   21   14 ar
    21   22   21 1
    22   23   22 2
    23   24   22 2
    24   25   18 1
    25   26   25 2
    26   27   25 2
    27   28   17 1
    28   29   28 1
    29   30   28 1
    30   31   30 ar
    31   32   31 1
    32   33   31 ar
    33   34   33 1
    34   35   33 ar
    35   36   35 1
    36   37   35 ar
    37   38   37 1
    38   39   30 ar
    39   40   39 1
    40    8   10 ar
    41   19   21 ar
    42   37   39 ar
@<TRIPOS>SUBSTRUCTURE
     1 RES1 1

@<TRIPOS>CRYSIN
  10.9520   11.0070   14.7360  90.0000 109.9000  90.0000  14 1

