# MOL2 file generated by ConQuest
# Please check atom types

@<TRIPOS>MOLECULE
MUDWEO02
    40    42     1
SMALL
NO_CHARGES
****
Generated from CSD

@<TRIPOS>ATOM
      1 C1         5.2896    1.5730    0.5215 C.ar      1 RES1    0.0000
      2 C2         4.9069    2.2016   -0.6997 C.ar      1 RES1    0.0000
      3 C3         2.9986    1.3562    1.1886 C.ar      1 RES1    0.0000
      4 N1         6.6549    1.3150    0.8767 N.pl3     1 RES1    0.0000
      5 C4         3.5467    2.3834   -0.9096 C.ar      1 RES1    0.0000
      6 H1         3.2799    2.7987   -1.6971 H         1 RES1    0.0000
      7 C5         2.5551    1.9825   -0.0139 C.ar      1 RES1    0.0000
      8 N2         5.8028    2.6113   -1.6347 N.3       1 RES1    0.0000
      9 C6         4.3337    1.1655    1.4222 C.ar      1 RES1    0.0000
     10 H2         4.6012    0.7502    2.2098 H         1 RES1    0.0000
     11 N3         2.0873    0.9136    2.2164 N.pl3     1 RES1    0.0000
     12 N4         1.2553    2.1861   -0.3088 N.3       1 RES1    0.0000
     13 C7         0.8125    2.8669   -1.4838 C.ar      1 RES1    0.0000
     14 O1         6.9135    0.8320    1.9634 O.2       1 RES1    0.0000
     15 C8         5.4294    3.2919   -2.8314 C.ar      1 RES1    0.0000
     16 O2         7.5444    1.5829    0.0562 O.2       1 RES1    0.0000
     17 O3         0.8803    1.0153    2.0343 O.2       1 RES1    0.0000
     18 O4         2.5429    0.4454    3.2421 O.2       1 RES1    0.0000
     19 C9         0.3004    2.1658   -2.5335 C.ar      1 RES1    0.0000
     20 H3         0.2491    1.2380   -2.4971 H         1 RES1    0.0000
     21 C10        0.8879    4.2405   -1.5374 C.ar      1 RES1    0.0000
     22 H4         1.2324    4.7183   -0.8165 H         1 RES1    0.0000
     23 C11        0.4533    4.9005   -2.6588 C.ar      1 RES1    0.0000
     24 H5         0.5083    5.8283   -2.6997 H         1 RES1    0.0000
     25 C12       -0.1429    2.8438   -3.6533 C.ar      1 RES1    0.0000
     26 H6        -0.4993    2.3704   -4.3700 H         1 RES1    0.0000
     27 C13        5.1429    4.5966   -2.8060 C.ar      1 RES1    0.0000
     28 H7         5.1761    5.0610   -2.0010 H         1 RES1    0.0000
     29 C14        5.3733    2.6256   -4.0084 C.ar      1 RES1    0.0000
     30 H8         5.5615    1.7149   -4.0392 H         1 RES1    0.0000
     31 C15       -0.0601    4.2053   -3.7114 C.ar      1 RES1    0.0000
     32 H9        -0.3531    4.6570   -4.4692 H         1 RES1    0.0000
     33 C16        5.0361    3.3000   -5.1586 C.ar      1 RES1    0.0000
     34 H10        4.9947    2.8366   -5.9638 H         1 RES1    0.0000
     35 C17        4.7968    5.2584   -3.9659 C.ar      1 RES1    0.0000
     36 H11        4.5822    6.1628   -3.9318 H         1 RES1    0.0000
     37 C18        4.7664    4.6173   -5.1417 C.ar      1 RES1    0.0000
     38 H12        4.5621    5.0718   -5.9266 H         1 RES1    0.0000
     39 H13        0.6793    1.8303    0.2171 H         1 RES1    0.0000
     40 H14        6.6174    2.4435   -1.4532 H         1 RES1    0.0000
@<TRIPOS>BOND
     1    1    2 ar
     2    2    5 ar
     3    3    7 ar
     4    4    1 1
     5    5    6 1
     6    7    5 ar
     7    8    2 1
     8    9    1 ar
     9   10    9 1
    10   11    3 1
    11   12    7 1
    12   13   12 1
    13   14    4 2
    14   15    8 1
    15   16    4 2
    16   17   11 2
    17   18   11 2
    18   19   13 ar
    19   20   19 1
    20   21   13 ar
    21   22   21 1
    22   23   21 ar
    23   24   23 1
    24   25   19 ar
    25   26   25 1
    26   27   15 ar
    27   28   27 1
    28   29   15 ar
    29   30   29 1
    30   31   23 ar
    31   32   31 1
    32   33   29 ar
    33   34   33 1
    34   35   27 ar
    35   36   35 1
    36   37   33 ar
    37   38   37 1
    38   39   12 1
    39   40    8 1
    40    3    9 ar
    41   25   31 ar
    42   35   37 ar
@<TRIPOS>SUBSTRUCTURE
     1 RES1 1

@<TRIPOS>CRYSIN
   9.2057    9.0165   21.1691  90.0000 102.4450  90.0000 231 1

