# MOL2 file generated by ConQuest
# Please check atom types

@<TRIPOS>MOLECULE
MUDYOA
    31    32     1
SMALL
NO_CHARGES
****
Generated from CSD

@<TRIPOS>ATOM
      1 O1         7.9516    1.1187   -1.7888 O.3       1 RES1    0.0000
      2 H1         7.3353    0.9576   -1.2718 H         1 RES1    0.0000
      3 O2        12.2838    2.9512   -1.8953 O.3       1 RES1    0.0000
      4 H2        12.9292    3.0859   -1.4079 H         1 RES1    0.0000
      5 O3        -0.0701   -1.5964    0.6555 O.2       1 RES1    0.0000
      6 O4         0.6027   -1.6365   -1.3820 O.2       1 RES1    0.0000
      7 N1         0.7946   -1.3796   -0.1957 N.pl3     1 RES1    0.0000
      8 N2         5.7022    0.6486    1.4276 N.pl3     1 RES1    0.0000
      9 H3         5.8263    0.7476    2.2724 H         1 RES1    0.0000
     10 N3         6.7242    0.9450    0.5721 N.2       1 RES1    0.0000
     11 C1         2.0573   -0.8226    0.2020 C.ar      1 RES1    0.0000
     12 C2         2.9876   -0.4730   -0.7462 C.ar      1 RES1    0.0000
     13 H4         2.7961   -0.5896   -1.6483 H         1 RES1    0.0000
     14 C3         4.1986    0.0478   -0.3665 C.ar      1 RES1    0.0000
     15 H5         4.8211    0.2969   -1.0113 H         1 RES1    0.0000
     16 C4         4.4957    0.2027    0.9888 C.ar      1 RES1    0.0000
     17 C5         3.5234   -0.1323    1.9414 C.ar      1 RES1    0.0000
     18 H6         3.6996   -0.0053    2.8455 H         1 RES1    0.0000
     19 C6         2.3115   -0.6462    1.5509 C.ar      1 RES1    0.0000
     20 H7         1.6703   -0.8728    2.1847 H         1 RES1    0.0000
     21 C7         7.8164    1.3558    1.1014 C.2       1 RES1    0.0000
     22 H8         7.8687    1.4146    2.0284 H         1 RES1    0.0000
     23 C8         8.9742    1.7326    0.3121 C.ar      1 RES1    0.0000
     24 C9        10.0967    2.2591    0.9475 C.ar      1 RES1    0.0000
     25 H9        10.0950    2.3330    1.8745 H         1 RES1    0.0000
     26 C10       11.2055    2.6732    0.2499 C.ar      1 RES1    0.0000
     27 H10       11.9407    3.0276    0.6963 H         1 RES1    0.0000
     28 C11       11.2095    2.5531   -1.1351 C.ar      1 RES1    0.0000
     29 C12       10.1258    2.0318   -1.8051 C.ar      1 RES1    0.0000
     30 H11       10.1431    1.9523   -2.7318 H         1 RES1    0.0000
     31 C13        9.0083    1.6251   -1.0912 C.ar      1 RES1    0.0000
@<TRIPOS>BOND
     1    1    2 1
     2    3    4 1
     3    5    7 2
     4    6    7 2
     5    7   11 1
     6    8    9 1
     7   10    8 1
     8   11   12 ar
     9   12   13 1
    10   14   12 ar
    11   15   14 1
    12   16    8 1
    13   17   16 ar
    14   18   17 1
    15   19   11 ar
    16   20   19 1
    17   21   10 2
    18   22   21 1
    19   23   21 1
    20   24   23 ar
    21   25   24 1
    22   26   24 ar
    23   27   26 1
    24   28    3 1
    25   29   28 ar
    26   30   29 1
    27   31    1 1
    28   14   16 ar
    29   17   19 ar
    30   23   31 ar
    31   26   28 ar
    32   29   31 ar
@<TRIPOS>SUBSTRUCTURE
     1 RES1 1

@<TRIPOS>CRYSIN
   9.6044   10.6045   12.3815  90.0000 106.9863  90.0000   9 1

