# MOL2 file generated by ConQuest
# Please check atom types

@<TRIPOS>MOLECULE
MUDZER
    19    19     1
SMALL
USER_CHARGES
****
Generated from CSD

@<TRIPOS>ATOM
      1 C1         7.6676    0.3813    9.0023 C.2       1 RES1    0.0000
      2 C2         6.5865    1.1108    8.2647 C.3       1 RES1    0.0000
      3 H1         6.2805    0.5520    7.5069 H         1 RES1    0.0000
      4 H2         6.9599    1.9480    7.8915 H         1 RES1    0.0000
      5 C3         5.3847    1.4521    9.1494 C.3       1 RES1    0.0000
      6 H3         5.6109    2.2127    9.7416 H         1 RES1    0.0000
      7 H4         4.6179    1.7188    8.5826 H         1 RES1    0.0000
      8 C4         5.0058    0.2452    9.9887 C.3       1 RES1    0.0000
      9 H5         4.2162    0.4761   10.5567 H         1 RES1    0.0000
     10 C5         6.1674   -0.1437   10.8860 C.3       1 RES1    0.0000
     11 H6         6.2271    0.4995   11.6366 H         1 RES1    0.0000
     12 H7         5.9960   -1.0410   11.2686 H         1 RES1    0.0000
     13 N1         8.8737    0.2889    8.4441 N.3       1 RES1    0.0000
     14 H8         9.5197   -0.1396    8.8609 H         1 RES1    0.0000
     15 H9         9.0242    0.6561    7.6590 H         1 RES1    0.0000
     16 N2         7.4481   -0.1641   10.1659 N.pl3     1 RES1    1.0000
     17 O1         8.4649   -0.7991   10.8104 O.2       1 RES1   -1.0000
     18 O2         4.6458   -0.8044    9.0943 O.3       1 RES1    0.0000
     19 H10        4.6457   -1.5365    9.5071 H         1 RES1    0.0000
@<TRIPOS>BOND
     1    1    2 1
     2    2    3 1
     3    4    2 1
     4    5    2 1
     5    6    5 1
     6    7    5 1
     7    8    5 1
     8    9    8 1
     9   10    8 1
    10   11   10 1
    11   12   10 1
    12   13    1 1
    13   14   13 1
    14   15   13 1
    15   16    1 2
    16   17   16 1
    17   18    8 1
    18   19   18 1
    19   10   16 1
@<TRIPOS>SUBSTRUCTURE
     1 RES1 1

@<TRIPOS>CRYSIN
   6.9390    8.0697   10.4233  90.0000  90.0000  90.0000  19 1

