# MOL2 file generated by ConQuest
# Please check atom types

@<TRIPOS>MOLECULE
MUFBAS
    32    35     1
SMALL
NO_CHARGES
****
Generated from CSD

@<TRIPOS>ATOM
      1 O1         5.2089    0.2334    4.6312 O.2       1 RES1    0.0000
      2 O2         3.1692    0.4525    3.9194 O.2       1 RES1    0.0000
      3 N1         2.5952    2.2031    7.6603 N.pl3     1 RES1    0.0000
      4 N2         4.0484    0.6491    4.7696 N.pl3     1 RES1    0.0000
      5 C1         1.1797    2.5088    4.3023 C.ar      1 RES1    0.0000
      6 H1         1.9658    2.4651    3.7693 H         1 RES1    0.0000
      7 C2        -0.0190    2.9106    3.7328 C.ar      1 RES1    0.0000
      8 H2        -0.0483    3.1541    2.8152 H         1 RES1    0.0000
      9 C3        -1.1821    2.9589    4.4998 C.ar      1 RES1    0.0000
     10 H3        -2.0079    3.2076    4.1020 H         1 RES1    0.0000
     11 C4        -1.1242    2.6392    5.8524 C.ar      1 RES1    0.0000
     12 H4        -1.9169    2.6701    6.3743 H         1 RES1    0.0000
     13 C5         0.0742    2.2766    6.4487 C.ar      1 RES1    0.0000
     14 C6         0.1897    2.0686    7.9404 C.3       1 RES1    0.0000
     15 H5         0.1992    1.0999    8.1429 H         1 RES1    0.0000
     16 H6        -0.5912    2.4726    8.3955 H         1 RES1    0.0000
     17 C7         1.4711    2.7124    8.4468 C.3       1 RES1    0.0000
     18 H7         1.4132    3.6969    8.3547 H         1 RES1    0.0000
     19 H8         1.6023    2.4960    9.4045 H         1 RES1    0.0000
     20 C8         3.8775    2.0000    8.1229 C.ar      1 RES1    0.0000
     21 C9         4.4174    2.2947    9.3799 C.ar      1 RES1    0.0000
     22 H9         3.8925    2.6958   10.0621 H         1 RES1    0.0000
     23 C10        5.7412    1.9781    9.5842 C.ar      1 RES1    0.0000
     24 H10        6.1420    2.1681   10.4246 H         1 RES1    0.0000
     25 C11        6.5116    1.3780    8.5706 C.ar      1 RES1    0.0000
     26 H11        7.4169    1.1541    8.7486 H         1 RES1    0.0000
     27 C12        5.9822    1.1044    7.3156 C.ar      1 RES1    0.0000
     28 H12        6.5146    0.7071    6.6364 H         1 RES1    0.0000
     29 C13        4.6390    1.4331    7.0797 C.ar      1 RES1    0.0000
     30 C14        3.7393    1.3328    5.9687 C.2       1 RES1    0.0000
     31 C15        2.4951    1.8537    6.3443 C.2       1 RES1    0.0000
     32 C16        1.2368    2.1662    5.6605 C.ar      1 RES1    0.0000
@<TRIPOS>BOND
     1    1    4 2
     2    2    4 2
     3    3   17 1
     4    4   30 1
     5    5    6 1
     6    7    5 ar
     7    8    7 1
     8    9    7 ar
     9   10    9 1
    10   11    9 ar
    11   12   11 1
    12   13   11 ar
    13   14   13 1
    14   15   14 1
    15   16   14 1
    16   17   14 1
    17   18   17 1
    18   19   17 1
    19   20    3 1
    20   21   20 ar
    21   22   21 1
    22   23   21 ar
    23   24   23 1
    24   25   23 ar
    25   26   25 1
    26   27   25 ar
    27   28   27 1
    28   29   20 ar
    29   30   29 1
    30   31    3 1
    31   32    5 ar
    32   13   32 ar
    33   27   29 ar
    34   30   31 2
    35   31   32 1
@<TRIPOS>SUBSTRUCTURE
     1 RES1 1

@<TRIPOS>CRYSIN
  10.3158    7.5385   15.8728  90.0000  98.6430  90.0000  14 1

