# MOL2 file generated by ConQuest
# Please check atom types

@<TRIPOS>MOLECULE
MUFCIA
    30    32     1
SMALL
NO_CHARGES
****
Generated from CSD

@<TRIPOS>ATOM
      1 O1         6.0482    7.3386   15.1094 O.3       1 RES1    0.0000
      2 O2         4.5497    8.8699   15.7691 O.2       1 RES1    0.0000
      3 O3         8.3371   13.7430   12.7623 O.2       1 RES1    0.0000
      4 N1         8.8385   12.6338   12.8898 N.pl3     1 RES1    0.0000
      5 C1         5.5563    8.5839   15.1847 C.2       1 RES1    0.0000
      6 C2         7.6969    9.2859   14.0597 C.ar      1 RES1    0.0000
      7 C3         7.9795   11.5516   13.4108 C.ar      1 RES1    0.0000
      8 C4         6.7004   11.8472   13.7623 C.ar      1 RES1    0.0000
      9 O4         9.9870   12.3737   12.6279 O.2       1 RES1    0.0000
     10 C5         5.9241   10.8604   14.3130 C.ar      1 RES1    0.0000
     11 C6         6.4198    9.5710   14.4791 C.ar      1 RES1    0.0000
     12 O5         6.1125    4.2714   17.1113 O.3       1 RES1    0.0000
     13 C7         5.4202    6.3509   15.9884 C.3       1 RES1    0.0000
     14 C8         8.5019   10.2796   13.5309 C.ar      1 RES1    0.0000
     15 C9         4.1895    5.7919   15.3949 C.2       1 RES1    0.0000
     16 C10        5.2019    3.5987   14.8849 C.3       1 RES1    0.0000
     17 C11        6.4936    5.3399   16.2296 C.3       1 RES1    0.0000
     18 C12        6.3829    3.9828   15.7078 C.3       1 RES1    0.0000
     19 C13        4.0903    4.5693   14.9229 C.2       1 RES1    0.0000
     20 H1         9.3984   10.0875   13.2888 H         1 RES1    0.0000
     21 H2         7.2413    3.4043   15.5580 H         1 RES1    0.0000
     22 H3         6.3759   12.7316   13.6004 H         1 RES1    0.0000
     23 H4         7.3813    5.7505   16.3778 H         1 RES1    0.0000
     24 H5         8.0813    8.3957   14.1685 H         1 RES1    0.0000
     25 H6         3.4552    6.3371   15.4181 H         1 RES1    0.0000
     26 H7         5.2051    6.8431   16.8393 H         1 RES1    0.0000
     27 H8         5.5105    3.4618   13.9869 H         1 RES1    0.0000
     28 H9         4.8551    2.7027   15.1782 H         1 RES1    0.0000
     29 H10        5.0333   11.0065   14.5784 H         1 RES1    0.0000
     30 H11        3.1371    4.3014   14.4767 H         1 RES1    0.0000
@<TRIPOS>BOND
     1    1    5 1
     2    2    5 2
     3    3    4 2
     4    4    7 1
     5    5   11 1
     6    6   11 ar
     7    7    8 ar
     8    8   10 ar
     9    9    4 2
    10   10   11 ar
    11   12   17 1
    12   13    1 1
    13   14    6 ar
    14   15   13 1
    15   16   18 1
    16   17   13 1
    17   18   12 1
    18   19   15 2
    19   20   14 1
    20   21   18 1
    21   22    8 1
    22   23   17 1
    23   24    6 1
    24   25   15 1
    25   26   13 1
    26   27   16 1
    27   28   16 1
    28   29   10 1
    29   30   19 1
    30    7   14 ar
    31   16   19 1
    32   17   18 1
@<TRIPOS>SUBSTRUCTURE
     1 RES1 1

@<TRIPOS>CRYSIN
   6.3632   11.5010   16.6610  90.0000  90.0000  90.0000  19 1

