# MOL2 file generated by ConQuest
# Please check atom types

@<TRIPOS>MOLECULE
MUFJOO
    35    37     1
SMALL
NO_CHARGES
****
Generated from CSD

@<TRIPOS>ATOM
      1 O1         1.4579   10.5289   -0.0813 O.3       1 RES1    0.0000
      2 O2         3.3337    4.6761   -1.1275 O.2       1 RES1    0.0000
      3 O3         1.8329    4.3338    0.3813 O.2       1 RES1    0.0000
      4 O4         1.3324    9.8589    2.5979 O.2       1 RES1    0.0000
      5 O5        -0.2927    8.4924    2.3953 O.2       1 RES1    0.0000
      6 O6        -0.7361   13.1544   -1.9498 O.2       1 RES1    0.0000
      7 N1         2.4719    5.0630   -0.3518 N.pl3     1 RES1    0.0000
      8 N2         0.7654    8.9633    2.0332 N.pl3     1 RES1    0.0000
      9 C1         1.4848   12.4943   -1.3973 C.ar      1 RES1    0.0000
     10 C2         2.2153   13.5634   -2.0215 C.ar      1 RES1    0.0000
     11 C3         1.6141   14.6898   -2.6159 C.ar      1 RES1    0.0000
     12 H1         0.6874   14.7638   -2.6259 H         1 RES1    0.0000
     13 C4         2.3738   15.6715   -3.1752 C.ar      1 RES1    0.0000
     14 H2         1.9540   16.4049   -3.5629 H         1 RES1    0.0000
     15 C5         3.7617   15.6019   -3.1787 C.ar      1 RES1    0.0000
     16 H3         4.2634   16.2827   -3.5670 H         1 RES1    0.0000
     17 C6         4.3797   14.5386   -2.6141 C.ar      1 RES1    0.0000
     18 H4         5.3091   14.4939   -2.6164 H         1 RES1    0.0000
     19 C7         3.6368   13.4995   -2.0247 C.ar      1 RES1    0.0000
     20 C8         4.2820   12.4146   -1.3857 C.ar      1 RES1    0.0000
     21 H5         5.2107   12.3708   -1.3966 H         1 RES1    0.0000
     22 C9         3.5848   11.4384   -0.7591 C.ar      1 RES1    0.0000
     23 H6         4.0266   10.7486   -0.3196 H         1 RES1    0.0000
     24 C10        2.1926   11.4870   -0.7860 C.ar      1 RES1    0.0000
     25 C11        1.7727    9.2072   -0.1991 C.ar      1 RES1    0.0000
     26 C12        2.3482    8.6438   -1.3209 C.ar      1 RES1    0.0000
     27 H7         2.5765    9.1801   -2.0453 H         1 RES1    0.0000
     28 C13        2.5829    7.2867   -1.3649 C.ar      1 RES1    0.0000
     29 H8         2.9966    6.9052   -2.1065 H         1 RES1    0.0000
     30 C14        2.2025    6.5042   -0.3067 C.ar      1 RES1    0.0000
     31 C15        1.5722    7.0191    0.7974 C.ar      1 RES1    0.0000
     32 H9         1.2795    6.4687    1.4877 H         1 RES1    0.0000
     33 C16        1.3902    8.3832    0.8454 C.ar      1 RES1    0.0000
     34 C17        0.0162   12.3993   -1.4246 C.2       1 RES1    0.0000
     35 H10       -0.3623   11.6725   -0.9846 H         1 RES1    0.0000
@<TRIPOS>BOND
     1    1   24 1
     2    2    7 2
     3    3    7 2
     4    4    8 2
     5    5    8 2
     6    6   34 2
     7    7   30 1
     8    8   33 1
     9    9   10 ar
    10   10   11 ar
    11   11   12 1
    12   13   11 ar
    13   14   13 1
    14   15   13 ar
    15   16   15 1
    16   17   15 ar
    17   18   17 1
    18   19   10 ar
    19   20   19 ar
    20   21   20 1
    21   22   20 ar
    22   23   22 1
    23   24    9 ar
    24   25    1 1
    25   26   25 ar
    26   27   26 1
    27   28   26 ar
    28   29   28 1
    29   30   28 ar
    30   31   30 ar
    31   32   31 1
    32   33   25 ar
    33   34    9 1
    34   35   34 1
    35   17   19 ar
    36   22   24 ar
    37   31   33 ar
@<TRIPOS>SUBSTRUCTURE
     1 RES1 1

@<TRIPOS>CRYSIN
   8.2271   13.4290   13.8940  90.0000 101.8300  90.0000  14 1

