# MOL2 file generated by ConQuest
# Please check atom types

@<TRIPOS>MOLECULE
MUFKUV
    33    35     1
SMALL
NO_CHARGES
****
Generated from CSD

@<TRIPOS>ATOM
      1 O1        16.3757    3.1493    4.8706 O.3       1 RES1    0.0000
      2 O2        15.7966    1.2443    6.5400 O.2       1 RES1    0.0000
      3 O3        14.1971    1.7172    7.8676 O.2       1 RES1    0.0000
      4 O4        10.2390    3.5921    5.8587 O.2       1 RES1    0.0000
      5 O5        10.4999    5.2158    4.4900 O.2       1 RES1    0.0000
      6 N1        14.7990    1.8703    6.8246 N.pl3     1 RES1    0.0000
      7 N2        10.9344    4.2931    5.1433 N.pl3     1 RES1    0.0000
      8 C1        16.9235    3.0197    2.5196 C.ar      1 RES1    0.0000
      9 H1        16.2455    2.3941    2.4009 H         1 RES1    0.0000
     10 C2        17.7183    3.3862    1.4731 C.ar      1 RES1    0.0000
     11 H2        17.5827    3.0142    0.6318 H         1 RES1    0.0000
     12 C3        18.7344    4.3190    1.6690 C.ar      1 RES1    0.0000
     13 C4        19.5851    4.7202    0.5700 C.ar      1 RES1    0.0000
     14 H3        19.4452    4.3648   -0.2774 H         1 RES1    0.0000
     15 C5        20.5749    5.6031    0.7705 C.ar      1 RES1    0.0000
     16 H4        21.1250    5.8516    0.0618 H         1 RES1    0.0000
     17 C6        20.7829    6.1528    2.0438 C.ar      1 RES1    0.0000
     18 H5        21.4785    6.7585    2.1688 H         1 RES1    0.0000
     19 C7        19.9943    5.8224    3.1028 C.ar      1 RES1    0.0000
     20 H6        20.1349    6.2125    3.9351 H         1 RES1    0.0000
     21 C8        18.9753    4.8928    2.9216 C.ar      1 RES1    0.0000
     22 C9        18.1050    4.4972    4.0135 C.ar      1 RES1    0.0000
     23 H7        18.2168    4.8627    4.8609 H         1 RES1    0.0000
     24 C10       17.1436    3.6027    3.7846 C.ar      1 RES1    0.0000
     25 C11       15.0562    3.4227    4.8870 C.ar      1 RES1    0.0000
     26 C12       14.2526    2.8406    5.8712 C.ar      1 RES1    0.0000
     27 C13       12.9104    3.1271    5.9730 C.ar      1 RES1    0.0000
     28 H8        12.3866    2.7342    6.6341 H         1 RES1    0.0000
     29 C14       12.3628    4.0085    5.0728 C.ar      1 RES1    0.0000
     30 C15       13.1260    4.6041    4.0949 C.ar      1 RES1    0.0000
     31 H9        12.7360    5.1959    3.4928 H         1 RES1    0.0000
     32 C16       14.4593    4.3218    4.0118 C.ar      1 RES1    0.0000
     33 H10       14.9765    4.7373    3.3596 H         1 RES1    0.0000
@<TRIPOS>BOND
     1    1   24 1
     2    2    6 2
     3    3    6 2
     4    4    7 2
     5    5    7 2
     6    6   26 1
     7    7   29 1
     8    8    9 1
     9   10    8 ar
    10   11   10 1
    11   12   10 ar
    12   13   12 ar
    13   14   13 1
    14   15   13 ar
    15   16   15 1
    16   17   15 ar
    17   18   17 1
    18   19   17 ar
    19   20   19 1
    20   21   12 ar
    21   22   21 ar
    22   23   22 1
    23   24    8 ar
    24   25    1 1
    25   26   25 ar
    26   27   26 ar
    27   28   27 1
    28   29   27 ar
    29   30   29 ar
    30   31   30 1
    31   32   25 ar
    32   33   32 1
    33   19   21 ar
    34   22   24 ar
    35   30   32 ar
@<TRIPOS>SUBSTRUCTURE
     1 RES1 1

@<TRIPOS>CRYSIN
  21.9055    4.6272   13.7499  90.0000  92.6550  90.0000  14 1

