# MOL2 file generated by ConQuest
# Please check atom types

@<TRIPOS>MOLECULE
MUGDID
    30    30     1
SMALL
NO_CHARGES
****
Generated from CSD

@<TRIPOS>ATOM
      1 C1         5.0092    2.9198    0.8832 C.ar      1 RES1    0.0000
      2 C2         6.0304    3.5728    0.2287 C.ar      1 RES1    0.0000
      3 H1         6.7010    4.0094    0.7030 H         1 RES1    0.0000
      4 C3         6.0287    3.5605   -1.1656 C.ar      1 RES1    0.0000
      5 C4         5.0092    2.9198   -1.8673 C.ar      1 RES1    0.0000
      6 H2         5.0092    2.9198   -2.7973 H         1 RES1    0.0000
      7 C5         7.1713    4.2451   -1.8432 C.2       1 RES1    0.0000
      8 C6         8.1878    4.8286   -3.8767 C.3       1 RES1    0.0000
      9 H3         8.3668    5.7087   -3.5102 H         1 RES1    0.0000
     10 H4         8.9833    4.2850   -3.7693 H         1 RES1    0.0000
     11 C7         7.8455    4.9367   -5.2833 C.1       1 RES1    0.0000
     12 C8         7.6288    5.0732   -6.4297 C.1       1 RES1    0.0000
     13 H5         7.4578    5.1808   -7.3372 H         1 RES1    0.0000
     14 N1         5.0092    2.9198    2.3573 N.pl3     1 RES1    0.0000
     15 O1         5.7475    3.7059    2.9321 O.2       1 RES1    0.0000
     16 O2         8.0895    4.7462   -1.2615 O.2       1 RES1    0.0000
     17 O3         7.0687    4.2165   -3.1752 O.3       1 RES1    0.0000
     18 C2A        3.9881    2.2667    0.2287 C.ar      1 RES1    0.0000
     19 H1A        3.3175    1.8301    0.7030 H         1 RES1    0.0000
     20 C3A        3.9898    2.2790   -1.1656 C.ar      1 RES1    0.0000
     21 C5A        2.8472    1.5944   -1.8432 C.2       1 RES1    0.0000
     22 C6A        1.8307    1.0109   -3.8767 C.3       1 RES1    0.0000
     23 H3A        1.6517    0.1308   -3.5102 H         1 RES1    0.0000
     24 H4A        1.0352    1.5545   -3.7693 H         1 RES1    0.0000
     25 C7A        2.1730    0.9028   -5.2833 C.1       1 RES1    0.0000
     26 C8A        2.3897    0.7663   -6.4297 C.1       1 RES1    0.0000
     27 H5A        2.5607    0.6587   -7.3372 H         1 RES1    0.0000
     28 O1A        4.2710    2.1336    2.9321 O.2       1 RES1    0.0000
     29 O2A        1.9290    1.0933   -1.2615 O.2       1 RES1    0.0000
     30 O3A        2.9498    1.6230   -3.1752 O.3       1 RES1    0.0000
@<TRIPOS>BOND
     1    1    2 ar
     2    2    3 1
     3    4    2 ar
     4    5    4 ar
     5    6    5 1
     6    7    4 1
     7    8    9 1
     8   10    8 1
     9   11    8 1
    10   12   11 3
    11   13   12 1
    12   14    1 1
    13   15   14 2
    14   16    7 2
    15   17    7 1
    16   18    1 ar
    17   19   18 1
    18   20    5 ar
    19   21   20 1
    20   22   23 1
    21   24   22 1
    22   25   22 1
    23   26   25 3
    24   27   26 1
    25   28   14 2
    26   29   21 2
    27   30   21 1
    28    8   17 1
    29   18   20 ar
    30   22   30 1
@<TRIPOS>SUBSTRUCTURE
     1 RES1 1

@<TRIPOS>CRYSIN
   6.6790   11.6790   16.5030  90.0000  90.0000  90.0000  56 1

