# MOL2 file generated by ConQuest
# Please check atom types

@<TRIPOS>MOLECULE
MUGSEM
    32    34     1
SMALL
NO_CHARGES
****
Generated from CSD

@<TRIPOS>ATOM
      1 C1         0.7294   -0.2351    2.8376 C.3       1 RES1    0.0000
      2 H1         1.2412    0.4573    2.4135 H         1 RES1    0.0000
      3 N1         1.6714   -1.1891    3.4383 N.am      1 RES1    0.0000
      4 H2         1.8696   -1.0737    4.3523 H         1 RES1    0.0000
      5 O1         3.2889   -2.7438    3.1610 O.2       1 RES1    0.0000
      6 C2         2.4159   -2.0146    2.6887 C.2       1 RES1    0.0000
      7 C3         2.1172   -1.9829    1.2114 C.3       1 RES1    0.0000
      8 H3         2.4298   -2.7949    0.8051 H         1 RES1    0.0000
      9 H4         2.5897   -1.2504    0.8098 H         1 RES1    0.0000
     10 C4         0.6446   -1.8347    0.9475 C.ar      1 RES1    0.0000
     11 C5        -0.0201   -2.5523   -0.0393 C.ar      1 RES1    0.0000
     12 H5         0.4708   -3.1612   -0.5963 H         1 RES1    0.0000
     13 C6        -1.3835   -2.3968   -0.2163 C.ar      1 RES1    0.0000
     14 H6        -1.8351   -2.8940   -0.9025 H         1 RES1    0.0000
     15 C7        -2.0889   -1.5176    0.5786 C.ar      1 RES1    0.0000
     16 H7        -3.0349   -1.4166    0.4559 H         1 RES1    0.0000
     17 C8        -1.4364   -0.7959    1.5672 C.ar      1 RES1    0.0000
     18 H8        -1.9282   -0.1832    2.1186 H         1 RES1    0.0000
     19 C9        -0.0722   -0.9543    1.7596 C.ar      1 RES1    0.0000
     20 C10       -0.1354    0.4134    3.8972 C.ar      1 RES1    0.0000
     21 C11       -0.5524    1.7237    3.7092 C.ar      1 RES1    0.0000
     22 H9        -0.2735    2.2013    2.9237 H         1 RES1    0.0000
     23 C12       -1.3568    2.3548    4.6341 C.ar      1 RES1    0.0000
     24 H10       -1.6321    3.2665    4.5115 H         1 RES1    0.0000
     25 C13       -1.7559    1.6401    5.7455 C.ar      1 RES1    0.0000
     26 C14       -1.3707    0.3351    5.9626 C.ar      1 RES1    0.0000
     27 H11       -1.6644   -0.1410    6.7424 H         1 RES1    0.0000
     28 C15       -0.5465   -0.2712    5.0340 C.ar      1 RES1    0.0000
     29 H12       -0.2502   -1.1720    5.1780 H         1 RES1    0.0000
     30 N2        -2.5804    2.3115    6.7574 N.pl3     1 RES1    0.0000
     31 O2        -3.1776    1.6278    7.5653 O.2       1 RES1    0.0000
     32 O3        -2.6235    3.5173    6.7555 O.2       1 RES1    0.0000
@<TRIPOS>BOND
     1    1    2 1
     2    3    1 1
     3    4    3 1
     4    5    6 2
     5    6    3 1
     6    7    6 1
     7    8    7 1
     8    9    7 1
     9   10    7 1
    10   11   10 ar
    11   12   11 1
    12   13   11 ar
    13   14   13 1
    14   15   13 ar
    15   16   15 1
    16   17   15 ar
    17   18   17 1
    18   19    1 1
    19   20    1 1
    20   21   20 ar
    21   22   21 1
    22   23   21 ar
    23   24   23 1
    24   25   23 ar
    25   26   25 ar
    26   27   26 1
    27   28   20 ar
    28   29   28 1
    29   30   25 1
    30   31   30 2
    31   32   30 2
    32   10   19 ar
    33   17   19 ar
    34   26   28 ar
@<TRIPOS>SUBSTRUCTURE
     1 RES1 1

@<TRIPOS>CRYSIN
   8.3718    9.0672   10.3980 101.7100 104.3800 117.4000   2 1

