# MOL2 file generated by ConQuest
# Please check atom types

@<TRIPOS>MOLECULE
MUJKEH01
    30    31     1
SMALL
NO_CHARGES
****
Generated from CSD

@<TRIPOS>ATOM
      1 O1        -1.4567    3.1166    7.6252 O.2       1 RES1    0.0000
      2 O2         3.5888   10.4020    6.7911 O.2       1 RES1    0.0000
      3 O3         3.5477   11.2778    8.7687 O.2       1 RES1    0.0000
      4 N1         3.2705   10.3814    7.9774 N.pl3     1 RES1    0.0000
      5 N2        -2.2392    0.8988    3.2064 N.ar      1 RES1    0.0000
      6 N3        -0.4930    4.6144    6.2267 N.am      1 RES1    0.0000
      7 N4        -0.0410    5.3717    7.2857 N.2       1 RES1    0.0000
      8 C1        -1.6658    2.0894    2.9823 C.ar      1 RES1    0.0000
      9 C2        -1.3340    2.9900    3.9813 C.ar      1 RES1    0.0000
     10 C3        -1.6117    2.6641    5.2964 C.ar      1 RES1    0.0000
     11 C4        -2.2584    1.4600    5.5405 C.ar      1 RES1    0.0000
     12 C5        -2.5467    0.6184    4.4829 C.ar      1 RES1    0.0000
     13 C6        -1.2002    3.4807    6.4894 C.2       1 RES1    0.0000
     14 C7         1.2655    7.2490    7.9743 C.ar      1 RES1    0.0000
     15 C8         1.9903    8.3500    7.5370 C.ar      1 RES1    0.0000
     16 C9         2.5168    9.2233    8.4734 C.ar      1 RES1    0.0000
     17 C10        2.3746    9.0414    9.8327 C.ar      1 RES1    0.0000
     18 C11        1.6538    7.9306   10.2609 C.ar      1 RES1    0.0000
     19 C12        1.0976    7.0519    9.3474 C.ar      1 RES1    0.0000
     20 C13        0.7209    6.3437    6.9631 C.2       1 RES1    0.0000
     21 H1        -1.4749    2.3300    2.0833 H         1 RES1    0.0000
     22 H2        -0.9225    3.8183    3.7662 H         1 RES1    0.0000
     23 H3        -2.5002    1.2171    6.4263 H         1 RES1    0.0000
     24 H4        -2.9864   -0.2028    4.6687 H         1 RES1    0.0000
     25 H5        -0.3012    4.8879    5.4383 H         1 RES1    0.0000
     26 H6         2.1233    8.5012    6.6082 H         1 RES1    0.0000
     27 H7         2.7541    9.6521   10.4544 H         1 RES1    0.0000
     28 H8         1.5421    7.7733   11.1914 H         1 RES1    0.0000
     29 H9         0.5961    6.3067    9.6578 H         1 RES1    0.0000
     30 H10        0.9791    6.5063    6.0449 H         1 RES1    0.0000
@<TRIPOS>BOND
     1    1   13 2
     2    2    4 2
     3    3    4 2
     4    4   16 1
     5    5    8 ar
     6    6    7 1
     7    7   20 2
     8    8    9 ar
     9    9   10 ar
    10   10   11 ar
    11   11   12 ar
    12   12    5 ar
    13   13    6 1
    14   14   15 ar
    15   15   16 ar
    16   16   17 ar
    17   17   18 ar
    18   18   19 ar
    19   19   14 ar
    20   20   14 1
    21   21    8 1
    22   22    9 1
    23   23   11 1
    24   24   12 1
    25   25    6 1
    26   26   15 1
    27   27   17 1
    28   28   18 1
    29   29   19 1
    30   30   20 1
    31   10   13 1
@<TRIPOS>SUBSTRUCTURE
     1 RES1 1

@<TRIPOS>CRYSIN
   8.2161   10.8475   14.1397  90.0000 106.2920  90.0000  14 1

