# MOL2 file generated by ConQuest
# Please check atom types

@<TRIPOS>MOLECULE
MUKHEG
    38    40     1
SMALL
NO_CHARGES
****
Generated from CSD

@<TRIPOS>ATOM
      1 N1        11.2758    5.4134    5.4155 N.pl3     1 RES1    0.0000
      2 O1         8.3227    9.3977    6.4299 O.2       1 RES1    0.0000
      3 O2         8.5547    6.0341    6.0344 O.2       1 RES1    0.0000
      4 O3        12.9097    7.7456    8.2978 O.3       1 RES1    0.0000
      5 O4        11.0626    4.6835    4.4616 O.2       1 RES1    0.0000
      6 O5        11.5887    5.0043    6.5169 O.2       1 RES1    0.0000
      7 C1         9.3153    9.0568    5.8393 C.2       1 RES1    0.0000
      8 C2         9.3246    8.5839    4.4217 C.3       1 RES1    0.0000
      9 H1         8.4030    8.5978    4.0880 H         1 RES1    0.0000
     10 C3        10.1618    9.5830    3.5721 C.3       1 RES1    0.0000
     11 H2        10.2449    9.2394    2.6684 H         1 RES1    0.0000
     12 H3         9.6926   10.4309    3.5251 H         1 RES1    0.0000
     13 C4        11.5469    9.8146    4.1423 C.3       1 RES1    0.0000
     14 H4        12.0921    9.0288    3.9795 H         1 RES1    0.0000
     15 H5        11.9582   10.5620    3.6796 H         1 RES1    0.0000
     16 C5        11.5284   10.1040    5.6243 C.3       1 RES1    0.0000
     17 H6        11.1679   10.9929    5.7656 H         1 RES1    0.0000
     18 H7        12.4402   10.0987    5.9560 H         1 RES1    0.0000
     19 C6        10.6981    9.0970    6.4370 C.3       1 RES1    0.0000
     20 H8        10.6237    9.4326    7.3551 H         1 RES1    0.0000
     21 C7        11.2686    7.6564    6.4954 C.3       1 RES1    0.0000
     22 H9        10.7384    7.1669    7.1576 H         1 RES1    0.0000
     23 C8        11.1308    6.9038    5.1719 C.3       1 RES1    0.0000
     24 H10       11.8806    7.1783    4.6028 H         1 RES1    0.0000
     25 C9         9.8382    7.1250    4.3613 C.3       1 RES1    0.0000
     26 H11       10.0179    6.8986    3.4258 H         1 RES1    0.0000
     27 C10       12.6806    7.6573    6.9856 C.2       1 RES1    0.0000
     28 C11       13.7837    7.5970    6.3132 C.2       1 RES1    0.0000
     29 H12       13.8885    7.5078    5.3930 H         1 RES1    0.0000
     30 C12       14.8372    7.7010    7.3388 C.2       1 RES1    0.0000
     31 H13       15.7563    7.6931    7.1873 H         1 RES1    0.0000
     32 C13       14.2931    7.7972    8.4083 C.2       1 RES1    0.0000
     33 H14       14.7471    7.8951    9.2139 H         1 RES1    0.0000
     34 C14        8.7034    6.2299    4.8659 C.2       1 RES1    0.0000
     35 C15        7.7970    5.6634    3.8086 C.3       1 RES1    0.0000
     36 H15        6.9750    5.3750    4.2119 H         1 RES1    0.0000
     37 H16        8.2263    4.9152    3.3869 H         1 RES1    0.0000
     38 H17        7.6112    6.3374    3.1504 H         1 RES1    0.0000
@<TRIPOS>BOND
     1    1    5 2
     2    2    7 2
     3    3   34 2
     4    4   27 1
     5    6    1 2
     6    7    8 1
     7    8    9 1
     8   10    8 1
     9   11   10 1
    10   12   10 1
    11   13   10 1
    12   14   13 1
    13   15   13 1
    14   16   13 1
    15   17   16 1
    16   18   16 1
    17   19    7 1
    18   20   19 1
    19   21   19 1
    20   22   21 1
    21   23    1 1
    22   24   23 1
    23   25    8 1
    24   26   25 1
    25   27   21 1
    26   28   27 2
    27   29   28 1
    28   30   28 1
    29   31   30 1
    30   32    4 1
    31   33   32 1
    32   34   25 1
    33   35   34 1
    34   36   35 1
    35   37   35 1
    36   38   35 1
    37   16   19 1
    38   21   23 1
    39   23   25 1
    40   30   32 2
@<TRIPOS>SUBSTRUCTURE
     1 RES1 1

@<TRIPOS>CRYSIN
  16.1860    8.7412   10.4629  90.0000 101.9710  90.0000  14 1

