# MOL2 file generated by ConQuest
# Please check atom types

@<TRIPOS>MOLECULE
MUKKAG
    55    58     1
SMALL
NO_CHARGES
****
Generated from CSD

@<TRIPOS>ATOM
      1 O1         7.5843   11.0202    4.3656 O.3       1 RES1    0.0000
      2 O2         3.3324   11.8629    9.0113 O.2       1 RES1    0.0000
      3 O3         3.7826   10.0078    9.9904 O.2       1 RES1    0.0000
      4 O4         8.0355   12.5208    6.8800 O.3       1 RES1    0.0000
      5 O5         7.8747   17.1335    5.8368 O.3       1 RES1    0.0000
      6 O6         3.6355   12.5411    4.8366 O.3       1 RES1    0.0000
      7 O7         2.7748   11.5558    0.2935 O.3       1 RES1    0.0000
      8 N1         3.9267   10.8021    9.0726 N.pl3     1 RES1    0.0000
      9 C1         6.3795   11.7675    4.7190 C.3       1 RES1    0.0000
     10 C2         5.9007   10.9980    5.9496 C.ar      1 RES1    0.0000
     11 C3         5.0677   11.3812    6.9849 C.ar      1 RES1    0.0000
     12 H1         4.6718   12.2227    7.0079 H         1 RES1    0.0000
     13 C4         4.8515   10.4491    7.9874 C.ar      1 RES1    0.0000
     14 C5         5.4269    9.1952    8.0059 C.ar      1 RES1    0.0000
     15 H2         5.2492    8.6030    8.7010 H         1 RES1    0.0000
     16 C6         6.2730    8.8352    6.9726 C.ar      1 RES1    0.0000
     17 H3         6.6778    7.9979    6.9600 H         1 RES1    0.0000
     18 C7         6.5034    9.7482    5.9591 C.ar      1 RES1    0.0000
     19 C8         7.4070    9.6577    4.7708 C.3       1 RES1    0.0000
     20 H4         8.2560    9.2538    5.0106 H         1 RES1    0.0000
     21 H5         6.9976    9.1350    4.0633 H         1 RES1    0.0000
     22 C9         6.7931   13.2047    4.9856 C.ar      1 RES1    0.0000
     23 C10        7.6089   13.5479    6.0848 C.ar      1 RES1    0.0000
     24 C11        7.9576   14.8617    6.3174 C.ar      1 RES1    0.0000
     25 H6         8.5004   15.0727    7.0422 H         1 RES1    0.0000
     26 C12        7.5054   15.8679    5.4813 C.ar      1 RES1    0.0000
     27 C13        6.7224   15.5630    4.3898 C.ar      1 RES1    0.0000
     28 H7         6.4244   16.2317    3.8165 H         1 RES1    0.0000
     29 C14        6.3876   14.2345    4.1642 C.ar      1 RES1    0.0000
     30 H8         5.8641   14.0307    3.4231 H         1 RES1    0.0000
     31 C15        8.5997   12.8422    8.1451 C.3       1 RES1    0.0000
     32 H9         9.4566   13.2574    8.0169 H         1 RES1    0.0000
     33 H10        8.7067   12.0399    8.6612 H         1 RES1    0.0000
     34 H11        8.0182   13.4475    8.6105 H         1 RES1    0.0000
     35 C16        7.2973   18.2187    5.1342 C.3       1 RES1    0.0000
     36 H12        7.5631   18.1805    4.2127 H         1 RES1    0.0000
     37 H13        7.5978   19.0451    5.5192 H         1 RES1    0.0000
     38 H14        6.3410   18.1658    5.1943 H         1 RES1    0.0000
     39 C17        5.3906   11.6554    3.5429 C.ar      1 RES1    0.0000
     40 C18        4.0452   12.0534    3.6290 C.ar      1 RES1    0.0000
     41 C19        3.2075   11.9812    2.5354 C.ar      1 RES1    0.0000
     42 H15        2.3136   12.2208    2.6211 H         1 RES1    0.0000
     43 C20        3.6928   11.5507    1.3063 C.ar      1 RES1    0.0000
     44 C21        5.0117   11.1706    1.1842 C.ar      1 RES1    0.0000
     45 H16        5.3461   10.8790    0.3660 H         1 RES1    0.0000
     46 C22        5.8324   11.2289    2.3025 C.ar      1 RES1    0.0000
     47 H17        6.7206   10.9686    2.2140 H         1 RES1    0.0000
     48 C23        2.2954   13.0007    4.9572 C.3       1 RES1    0.0000
     49 H18        2.1423   13.7089    4.3265 H         1 RES1    0.0000
     50 H19        2.1487   13.3287    5.8482 H         1 RES1    0.0000
     51 H20        1.6910   12.2757    4.7789 H         1 RES1    0.0000
     52 C24        3.1920   11.0549   -0.9788 C.3       1 RES1    0.0000
     53 H21        3.9054   11.5993   -1.3188 H         1 RES1    0.0000
     54 H22        2.4519   11.0783   -1.5902 H         1 RES1    0.0000
     55 H23        3.4996   10.1514   -0.8815 H         1 RES1    0.0000
@<TRIPOS>BOND
     1    1    9 1
     2    2    8 2
     3    3    8 2
     4    4   23 1
     5    5   26 1
     6    6   40 1
     7    7   43 1
     8    8   13 1
     9    9   10 1
    10   10   11 ar
    11   11   12 1
    12   13   11 ar
    13   14   13 ar
    14   15   14 1
    15   16   14 ar
    16   17   16 1
    17   18   10 ar
    18   19    1 1
    19   20   19 1
    20   21   19 1
    21   22    9 1
    22   23   22 ar
    23   24   23 ar
    24   25   24 1
    25   26   24 ar
    26   27   26 ar
    27   28   27 1
    28   29   22 ar
    29   30   29 1
    30   31    4 1
    31   32   31 1
    32   33   31 1
    33   34   31 1
    34   35    5 1
    35   36   35 1
    36   37   35 1
    37   38   35 1
    38   39    9 1
    39   40   39 ar
    40   41   40 ar
    41   42   41 1
    42   43   41 ar
    43   44   43 ar
    44   45   44 1
    45   46   39 ar
    46   47   46 1
    47   48    6 1
    48   49   48 1
    49   50   48 1
    50   51   48 1
    51   52    7 1
    52   53   52 1
    53   54   52 1
    54   55   52 1
    55   16   18 ar
    56   18   19 1
    57   27   29 ar
    58   44   46 ar
@<TRIPOS>SUBSTRUCTURE
     1 RES1 1

@<TRIPOS>CRYSIN
   8.4948   18.2810   13.7130  90.0000  91.4190  90.0000  14 1

