# MOL2 file generated by ConQuest
# Please check atom types

@<TRIPOS>MOLECULE
MUKKEK
    54    57     1
SMALL
NO_CHARGES
****
Generated from CSD

@<TRIPOS>ATOM
      1 O1         6.6697    6.9363    8.6250 O.3       1 RES1    0.0000
      2 O2         2.0628    7.0023    4.1602 O.2       1 RES1    0.0000
      3 O3         2.5446    8.9897    3.4670 O.2       1 RES1    0.0000
      4 O4         6.9362    5.5366    6.0379 O.3       1 RES1    0.0000
      5 O5         7.3349    1.0486    7.5159 O.3       1 RES1    0.0000
      6 O6         2.7209    5.4244    8.1745 O.3       1 RES1    0.0000
      7 O7         1.6466    7.2286   12.4205 O.3       1 RES1    0.0000
      8 O8         7.9792    8.6676    8.0924 O.2       1 RES1    0.0000
      9 N1         2.7430    8.0185    4.1849 N.pl3     1 RES1    0.0000
     10 C1         5.3870    6.3259    8.2072 C.3       1 RES1    0.0000
     11 C2         5.0056    7.1818    6.9984 C.ar      1 RES1    0.0000
     12 C3         3.9632    7.0727    6.0940 C.ar      1 RES1    0.0000
     13 H1         3.3447    6.3513    6.1258 H         1 RES1    0.0000
     14 C4         3.8720    8.0768    5.1381 C.ar      1 RES1    0.0000
     15 C5         4.7550    9.1447    5.0227 C.ar      1 RES1    0.0000
     16 H2         4.6305    9.8104    4.3567 H         1 RES1    0.0000
     17 C6         5.8243    9.2108    5.9078 C.ar      1 RES1    0.0000
     18 H3         6.4710    9.9032    5.8473 H         1 RES1    0.0000
     19 C7         5.9142    8.2263    6.8853 C.ar      1 RES1    0.0000
     20 C8         6.9713    8.0385    7.8907 C.2       1 RES1    0.0000
     21 C9         5.7283    4.8682    7.9483 C.ar      1 RES1    0.0000
     22 C10        6.5968    4.5192    6.8809 C.ar      1 RES1    0.0000
     23 C11        7.0990    3.2391    6.7675 C.ar      1 RES1    0.0000
     24 H4         7.6807    3.0180    6.0499 H         1 RES1    0.0000
     25 C12        6.7531    2.2726    7.7050 C.ar      1 RES1    0.0000
     26 C13        5.8782    2.5705    8.7391 C.ar      1 RES1    0.0000
     27 H5         5.6200    1.9036    9.3632 H         1 RES1    0.0000
     28 C14        5.3866    3.8684    8.8431 C.ar      1 RES1    0.0000
     29 H6         4.7938    4.0762    9.5554 H         1 RES1    0.0000
     30 C15        7.7973    5.2401    4.9306 C.3       1 RES1    0.0000
     31 H7         8.6605    4.9178    5.2654 H         1 RES1    0.0000
     32 H8         7.9356    6.0514    4.3972 H         1 RES1    0.0000
     33 H9         7.3847    4.5482    4.3724 H         1 RES1    0.0000
     34 C16        7.3628    0.1635    8.6390 C.3       1 RES1    0.0000
     35 H10        7.7297    0.6345    9.4168 H         1 RES1    0.0000
     36 H11        7.9247   -0.6113    8.4310 H         1 RES1    0.0000
     37 H12        6.4516   -0.1374    8.8402 H         1 RES1    0.0000
     38 C17        4.4042    6.5647    9.3669 C.ar      1 RES1    0.0000
     39 C18        3.0660    6.1240    9.2907 C.ar      1 RES1    0.0000
     40 C19        2.1773    6.3908   10.3227 C.ar      1 RES1    0.0000
     41 H13        1.2706    6.1172   10.2484 H         1 RES1    0.0000
     42 C20        2.6096    7.0565   11.4659 C.ar      1 RES1    0.0000
     43 C21        3.9179    7.4884   11.5702 C.ar      1 RES1    0.0000
     44 H14        4.2154    7.9473   12.3470 H         1 RES1    0.0000
     45 C22        4.7937    7.2383   10.5119 C.ar      1 RES1    0.0000
     46 H15        5.6916    7.5411   10.5805 H         1 RES1    0.0000
     47 C23        1.3577    5.0052    8.0512 C.3       1 RES1    0.0000
     48 H16        1.1252    4.4244    8.8062 H         1 RES1    0.0000
     49 H17        1.2417    4.5134    7.2123 H         1 RES1    0.0000
     50 H18        0.7727    5.7922    8.0518 H         1 RES1    0.0000
     51 C24        2.0198    7.9346   13.6124 C.3       1 RES1    0.0000
     52 H19        2.7402    7.4501   14.0664 H         1 RES1    0.0000
     53 H20        1.2446    8.0015   14.2089 H         1 RES1    0.0000
     54 H21        2.3287    8.8334   13.3760 H         1 RES1    0.0000
@<TRIPOS>BOND
     1    1   10 1
     2    2    9 2
     3    3    9 2
     4    4   22 1
     5    5   25 1
     6    6   39 1
     7    7   42 1
     8    8   20 2
     9    9   14 1
    10   10   11 1
    11   11   12 ar
    12   12   13 1
    13   14   12 ar
    14   15   14 ar
    15   16   15 1
    16   17   15 ar
    17   18   17 1
    18   19   11 ar
    19   20    1 1
    20   21   10 1
    21   22   21 ar
    22   23   22 ar
    23   24   23 1
    24   25   23 ar
    25   26   25 ar
    26   27   26 1
    27   28   21 ar
    28   29   28 1
    29   30    4 1
    30   31   30 1
    31   32   30 1
    32   33   30 1
    33   34    5 1
    34   35   34 1
    35   36   34 1
    36   37   34 1
    37   38   10 1
    38   39   38 ar
    39   40   39 ar
    40   41   40 1
    41   42   40 ar
    42   43   42 ar
    43   44   43 1
    44   45   38 ar
    45   46   45 1
    46   47    6 1
    47   48   47 1
    48   49   47 1
    49   50   47 1
    50   51    7 1
    51   52   51 1
    52   53   51 1
    53   54   51 1
    54   17   19 ar
    55   19   20 1
    56   26   28 ar
    57   43   45 ar
@<TRIPOS>SUBSTRUCTURE
     1 RES1 1

@<TRIPOS>CRYSIN
   8.4633   19.3460   13.0840  90.0000  92.0890  90.0000  14 1

