# MOL2 file generated by ConQuest
# Please check atom types

@<TRIPOS>MOLECULE
MUKKUY02
    36    37     1
SMALL
NO_CHARGES
****
Generated from CSD

@<TRIPOS>ATOM
      1 C1         1.5989    0.5880    4.9876 C.2       1 RES1    0.0000
      2 C2         0.0688   -0.9683    4.0767 C.3       1 RES1    0.0000
      3 C3         1.0504   -0.5216    2.9753 C.3       1 RES1    0.0000
      4 C4        -1.2842   -0.2576    4.0384 C.3       1 RES1    0.0000
      5 H1        -1.8520   -0.5962    4.7627 H         1 RES1    0.0000
      6 H2        -1.7188   -0.4281    3.1762 H         1 RES1    0.0000
      7 H3        -1.1504    0.7066    4.1522 H         1 RES1    0.0000
      8 C5        -0.1067   -2.4595    4.2094 C.3       1 RES1    0.0000
      9 H4        -0.7441   -2.6510    4.9294 H         1 RES1    0.0000
     10 H5         0.7564   -2.8730    4.4198 H         1 RES1    0.0000
     11 H6        -0.4462   -2.8252    3.3653 H         1 RES1    0.0000
     12 C6         0.3995   -0.0307    1.6977 C.3       1 RES1    0.0000
     13 H7        -0.2965    0.6244    1.9166 H         1 RES1    0.0000
     14 H8        -0.0027   -0.7888    1.2243 H         1 RES1    0.0000
     15 H9         1.0749    0.3889    1.1266 H         1 RES1    0.0000
     16 C7         2.1403   -1.5454    2.6748 C.3       1 RES1    0.0000
     17 H10        2.7278   -1.1997    1.9711 H         1 RES1    0.0000
     18 H11        1.7270   -2.3823    2.3750 H         1 RES1    0.0000
     19 H12        2.6633   -1.7125    3.4855 H         1 RES1    0.0000
     20 C8         2.2126    1.5010    5.9238 C.ar      1 RES1    0.0000
     21 C9         3.3790    2.1860    5.5908 C.ar      1 RES1    0.0000
     22 H13        3.7986    2.0094    4.7563 H         1 RES1    0.0000
     23 C10        3.9318    3.1042    6.4347 C.ar      1 RES1    0.0000
     24 H14        4.7418    3.5354    6.1858 H         1 RES1    0.0000
     25 C11        3.3348    3.4243    7.6541 C.ar      1 RES1    0.0000
     26 C12        2.1806    2.7306    8.0010 C.ar      1 RES1    0.0000
     27 H15        1.7627    2.9135    8.8348 H         1 RES1    0.0000
     28 C13        1.6311    1.7870    7.1683 C.ar      1 RES1    0.0000
     29 H16        0.8470    1.3224    7.4374 H         1 RES1    0.0000
     30 N1         0.7489   -0.4170    5.2882 N.pl3     1 RES1    0.0000
     31 N2         1.7375    0.6143    3.6461 N.3       1 RES1    0.0000
     32 N3         3.9044    4.3594    8.4627 N.3       1 RES1    0.0000
     33 H17        3.5886    4.5144    9.0752 H         1 RES1    0.0000
     34 H18        4.5331    4.9069    8.1281 H         1 RES1    0.0000
     35 O1         0.4202   -0.7979    6.4653 O.2       1 RES1    0.0000
     36 O2         2.4618    1.4386    2.9801 O.2       1 RES1    0.0000
@<TRIPOS>BOND
     1    1   20 1
     2    2    3 1
     3    3   12 1
     4    4    2 1
     5    5    4 1
     6    6    4 1
     7    7    4 1
     8    8    2 1
     9    9    8 1
    10   10    8 1
    11   11    8 1
    12   12   13 1
    13   14   12 1
    14   15   12 1
    15   16    3 1
    16   17   16 1
    17   18   16 1
    18   19   16 1
    19   20   21 ar
    20   21   22 1
    21   23   21 ar
    22   24   23 1
    23   25   23 ar
    24   26   25 ar
    25   27   26 1
    26   28   20 ar
    27   29   28 1
    28   30    1 2
    29   31    1 1
    30   32   25 1
    31   33   32 1
    32   34   32 1
    33   35   30 1
    34   36   31 1
    35    2   30 1
    36    3   31 1
    37   26   28 ar
@<TRIPOS>SUBSTRUCTURE
     1 RES1 1

@<TRIPOS>CRYSIN
  13.7284   12.2673   16.0254  90.0000  90.0000  90.0000  61 1

