# MOL2 file generated by ConQuest
# Please check atom types

@<TRIPOS>MOLECULE
MUKLIO
    34    36     1
SMALL
NO_CHARGES
****
Generated from CSD

@<TRIPOS>ATOM
      1 C1         7.1752    2.7916    8.7979 C.2       1 RES1    0.0000
      2 C2         7.7589    0.6214    6.1627 C.3       1 RES1    0.0000
      3 H1         8.4246   -0.0243    6.5073 H         1 RES1    0.0000
      4 H2         6.9984    0.1051    5.7944 H         1 RES1    0.0000
      5 C3         9.7713    1.4456    5.0070 C.3       1 RES1    0.0000
      6 H3        10.0127    1.8583    4.1400 H         1 RES1    0.0000
      7 H4        10.1349    0.5244    5.0168 H         1 RES1    0.0000
      8 C4         7.5312    2.2361    4.3114 C.3       1 RES1    0.0000
      9 H5         6.5923    1.9270    4.3750 H         1 RES1    0.0000
     10 H6         7.8135    2.1503    3.3661 H         1 RES1    0.0000
     11 C5        10.7851    3.6616    7.4794 C.2       1 RES1    0.0000
     12 C6         7.5646    5.4067    5.7267 C.2       1 RES1    0.0000
     13 N1         7.5619    3.7123    9.8519 N.pl3     1 RES1    0.0000
     14 N2         5.9031    2.5767    8.4601 N.2       1 RES1    0.0000
     15 N3         5.9803    1.7087    7.4630 N.2       1 RES1    0.0000
     16 N4         7.2756    1.4609    7.2817 N.pl3     1 RES1    0.0000
     17 N5         8.0732    2.1299    8.0990 N.2       1 RES1    0.0000
     18 N6         8.3518    1.3879    5.1171 N.3       1 RES1    0.0000
     19 N7        10.3942    2.2282    6.1106 N.pl3     1 RES1    0.0000
     20 N8        11.1729    1.6543    7.0311 N.2       1 RES1    0.0000
     21 N9        11.4381    2.5882    7.9207 N.2       1 RES1    0.0000
     22 N10       10.1191    3.4971    6.3532 N.2       1 RES1    0.0000
     23 N11       10.7829    4.9244    8.1889 N.pl3     1 RES1    0.0000
     24 N12        7.5930    3.6643    4.7016 N.pl3     1 RES1    0.0000
     25 N13        8.1529    4.5605    3.9053 N.2       1 RES1    0.0000
     26 N14        8.1363    5.6994    4.5606 N.2       1 RES1    0.0000
     27 N15        7.2014    4.1484    5.8704 N.2       1 RES1    0.0000
     28 N16        7.3877    6.3876    6.7764 N.pl3     1 RES1    0.0000
     29 O1         6.7013    4.0660   10.6307 O.2       1 RES1    0.0000
     30 O2         8.7281    4.0665    9.8846 O.2       1 RES1    0.0000
     31 O3        11.4943    5.0138    9.1679 O.2       1 RES1    0.0000
     32 O4        10.0603    5.8098    7.7474 O.2       1 RES1    0.0000
     33 O5         6.8577    6.0151    7.8060 O.2       1 RES1    0.0000
     34 O6         7.8065    7.5065    6.5455 O.2       1 RES1    0.0000
@<TRIPOS>BOND
     1    1   13 1
     2    2    3 1
     3    4    2 1
     4    5    6 1
     5    7    5 1
     6    8    9 1
     7   10    8 1
     8   11   21 1
     9   12   26 1
    10   13   29 2
    11   14    1 1
    12   15   14 2
    13   16    2 1
    14   17    1 2
    15   18    2 1
    16   19    5 1
    17   20   19 1
    18   21   20 2
    19   22   11 2
    20   23   11 1
    21   24    8 1
    22   25   24 1
    23   26   25 2
    24   27   12 2
    25   28   12 1
    26   30   13 2
    27   31   23 2
    28   32   23 2
    29   33   28 2
    30   34   28 2
    31    5   18 1
    32    8   18 1
    33   15   16 1
    34   16   17 1
    35   19   22 1
    36   24   27 1
@<TRIPOS>SUBSTRUCTURE
     1 RES1 1

@<TRIPOS>CRYSIN
  11.6067   10.1048   12.7169  90.0000  92.2530  90.0000 231 1

