# MOL2 file generated by ConQuest
# Please check atom types

@<TRIPOS>MOLECULE
MULQAM
    41    43     1
SMALL
NO_CHARGES
****
Generated from CSD

@<TRIPOS>ATOM
      1 O1         4.6804    1.9059    4.0992 O.3       1 RES1    0.0000
      2 O2         5.3198    2.1348    0.6785 O.2       1 RES1    0.0000
      3 N1         5.2845    2.3309    2.9038 N.am      1 RES1    0.0000
      4 C1         3.2795    2.2227    4.0245 C.3       1 RES1    0.0000
      5 C2         2.6326    1.4165    2.8974 C.3       1 RES1    0.0000
      6 C3         3.6986    0.8366    1.9508 C.3       1 RES1    0.0000
      7 C4         4.8253    1.8177    1.7541 C.2       1 RES1    0.0000
      8 C5         3.1029    0.3514    0.6330 C.3       1 RES1    0.0000
      9 C6         2.3601    1.4661   -0.0730 C.3       1 RES1    0.0000
     10 C7         1.5107    2.2434    0.8464 C.2       1 RES1    0.0000
     11 C8         1.6239    2.2172    2.1530 C.2       1 RES1    0.0000
     12 C9         6.2715    3.3728    3.0616 C.3       1 RES1    0.0000
     13 C10        7.5747    2.8685    3.6008 C.ar      1 RES1    0.0000
     14 C11        8.2617    1.8489    2.9707 C.ar      1 RES1    0.0000
     15 C12        9.4828    1.4412    3.4234 C.ar      1 RES1    0.0000
     16 C13       10.0296    2.0045    4.5164 C.ar      1 RES1    0.0000
     17 C14        9.3763    2.9850    5.1764 C.ar      1 RES1    0.0000
     18 C15        8.1460    3.4273    4.7108 C.ar      1 RES1    0.0000
     19 C16        2.7144    1.9265    5.3911 C.3       1 RES1    0.0000
     20 C17        2.1987   -0.8624    0.8662 C.3       1 RES1    0.0000
     21 H1         3.1762    3.1789    3.8351 H         1 RES1    0.0000
     22 H2         2.1631    0.6615    3.3088 H         1 RES1    0.0000
     23 H3         4.0787    0.0517    2.3972 H         1 RES1    0.0000
     24 H4         3.8416    0.0690    0.0544 H         1 RES1    0.0000
     25 H5         0.8530    2.7870    0.4768 H         1 RES1    0.0000
     26 H6         1.0323    2.7353    2.6488 H         1 RES1    0.0000
     27 H7         7.8860    1.4343    2.2281 H         1 RES1    0.0000
     28 H8         9.9400    0.7681    2.9730 H         1 RES1    0.0000
     29 H9        10.8609    1.7180    4.8184 H         1 RES1    0.0000
     30 H10        9.7500    3.3623    5.9402 H         1 RES1    0.0000
     31 H11        7.7046    4.1116    5.1590 H         1 RES1    0.0000
     32 H12        1.7989    1.0784   -0.7631 H         1 RES1    0.0000
     33 H13        3.0076    2.0628   -0.4801 H         1 RES1    0.0000
     34 H14        6.4319    3.7808    2.1959 H         1 RES1    0.0000
     35 H15        5.9217    4.0394    3.6725 H         1 RES1    0.0000
     36 H16        3.2057    2.4171    6.0541 H         1 RES1    0.0000
     37 H17        1.7913    2.1882    5.4189 H         1 RES1    0.0000
     38 H18        2.7861    0.9860    5.5707 H         1 RES1    0.0000
     39 H19        1.4281   -0.5956    1.3735 H         1 RES1    0.0000
     40 H20        2.6837   -1.5346    1.3512 H         1 RES1    0.0000
     41 H21        1.9167   -1.2195    0.0206 H         1 RES1    0.0000
@<TRIPOS>BOND
     1    1    3 1
     2    2    7 2
     3    3    7 1
     4    4    1 1
     5    5    4 1
     6    6    5 1
     7    7    6 1
     8    8    6 1
     9    9    8 1
    10   10    9 1
    11   11    5 1
    12   12    3 1
    13   13   12 1
    14   14   13 ar
    15   15   14 ar
    16   16   15 ar
    17   17   16 ar
    18   18   13 ar
    19   19    4 1
    20   20    8 1
    21   21    4 1
    22   22    5 1
    23   23    6 1
    24   24    8 1
    25   25   10 1
    26   26   11 1
    27   27   14 1
    28   28   15 1
    29   29   16 1
    30   30   17 1
    31   31   18 1
    32   32    9 1
    33   33    9 1
    34   34   12 1
    35   35   12 1
    36   36   19 1
    37   37   19 1
    38   38   19 1
    39   39   20 1
    40   40   20 1
    41   41   20 1
    42   10   11 2
    43   17   18 ar
@<TRIPOS>SUBSTRUCTURE
     1 RES1 1

@<TRIPOS>CRYSIN
  11.6360   15.6750    8.5410  90.0000 105.0200  90.0000  14 1

