# MOL2 file generated by ConQuest
# Please check atom types

@<TRIPOS>MOLECULE
MULSET
    46    48     1
SMALL
NO_CHARGES
****
Generated from CSD

@<TRIPOS>ATOM
      1 O1         2.7070    1.0179    7.6585 O.2       1 RES1    0.0000
      2 O2         0.9404    0.3641    6.6538 O.2       1 RES1    0.0000
      3 O3         1.5241   -0.6871    1.6073 O.2       1 RES1    0.0000
      4 O4        -0.5197   -0.9987    2.4065 O.3       1 RES1    0.0000
      5 N1         2.1080    0.7116    6.6435 N.pl3     1 RES1    0.0000
      6 C1         5.1634    4.1023    2.9952 C.ar      1 RES1    0.0000
      7 H1         5.6942    4.8362    3.2051 H         1 RES1    0.0000
      8 C2         5.3781    3.4471    1.8159 C.ar      1 RES1    0.0000
      9 H2         6.0424    3.7380    1.2348 H         1 RES1    0.0000
     10 C3         4.6064    2.3559    1.4934 C.ar      1 RES1    0.0000
     11 H3         4.7467    1.9023    0.6936 H         1 RES1    0.0000
     12 C4         3.6166    1.9394    2.3708 C.ar      1 RES1    0.0000
     13 H4         3.0934    1.2044    2.1467 H         1 RES1    0.0000
     14 C5         3.3844    2.5933    3.5819 C.ar      1 RES1    0.0000
     15 C6         4.1766    3.7069    3.8924 C.ar      1 RES1    0.0000
     16 C7         3.9664    4.5535    5.1274 C.3       1 RES1    0.0000
     17 H5         3.6034    5.4115    4.8569 H         1 RES1    0.0000
     18 H6         4.8287    4.7176    5.5401 H         1 RES1    0.0000
     19 C8         3.0440    3.9421    6.1599 C.3       1 RES1    0.0000
     20 H7         3.5338    3.3005    6.6972 H         1 RES1    0.0000
     21 H8         2.7079    4.6351    6.7495 H         1 RES1    0.0000
     22 C9         1.8856    3.2526    5.4725 C.3       1 RES1    0.0000
     23 H9         1.3987    3.9090    4.9511 H         1 RES1    0.0000
     24 H10        1.2819    2.9099    6.1500 H         1 RES1    0.0000
     25 C10        2.2952    2.0924    4.5464 C.3       1 RES1    0.0000
     26 C11        2.8399    0.7963    5.2899 C.3       1 RES1    0.0000
     27 C12        2.3542   -0.3656    4.4342 C.3       1 RES1    0.0000
     28 H11        2.2648   -1.1656    4.9750 H         1 RES1    0.0000
     29 H12        2.9878   -0.5456    3.7223 H         1 RES1    0.0000
     30 C13        1.0011    0.0298    3.8492 C.3       1 RES1    0.0000
     31 H13        0.2956   -0.2477    4.4698 H         1 RES1    0.0000
     32 C14        1.0371    1.5752    3.7951 C.3       1 RES1    0.0000
     33 H14        0.2365    1.9368    4.2081 H         1 RES1    0.0000
     34 H15        1.0616    1.8707    2.8717 H         1 RES1    0.0000
     35 C15        4.3292    0.7182    5.5703 C.3       1 RES1    0.0000
     36 H16        4.5995    1.4879    6.0768 H         1 RES1    0.0000
     37 H17        4.8105    0.6959    4.7403 H         1 RES1    0.0000
     38 H18        4.5189   -0.0782    6.0723 H         1 RES1    0.0000
     39 C16        0.7258   -0.5796    2.4971 C.2       1 RES1    0.0000
     40 C17       -0.9192   -1.6091    1.1429 C.3       1 RES1    0.0000
     41 H19       -1.1853   -0.9181    0.5157 H         1 RES1    0.0000
     42 H20       -0.1704   -2.0924    0.7609 H         1 RES1    0.0000
     43 C18       -2.0078   -2.5035    1.3648 C.3       1 RES1    0.0000
     44 H21       -2.2350   -2.9409    0.5412 H         1 RES1    0.0000
     45 H22       -2.7671   -2.0103    1.6848 H         1 RES1    0.0000
     46 H23       -1.7548   -3.1601    2.0166 H         1 RES1    0.0000
@<TRIPOS>BOND
     1    1    5 2
     2    2    5 2
     3    3   39 2
     4    4   39 1
     5    5   26 1
     6    6    7 1
     7    8    6 ar
     8    9    8 1
     9   10    8 ar
    10   11   10 1
    11   12   10 ar
    12   13   12 1
    13   14   12 ar
    14   15    6 ar
    15   16   15 1
    16   17   16 1
    17   18   16 1
    18   19   16 1
    19   20   19 1
    20   21   19 1
    21   22   19 1
    22   23   22 1
    23   24   22 1
    24   25   14 1
    25   26   25 1
    26   27   26 1
    27   28   27 1
    28   29   27 1
    29   30   27 1
    30   31   30 1
    31   32   25 1
    32   33   32 1
    33   34   32 1
    34   35   26 1
    35   36   35 1
    36   37   35 1
    37   38   35 1
    38   39   30 1
    39   40    4 1
    40   41   40 1
    41   42   40 1
    42   43   40 1
    43   44   43 1
    44   45   43 1
    45   46   43 1
    46   14   15 ar
    47   22   25 1
    48   30   32 1
@<TRIPOS>SUBSTRUCTURE
     1 RES1 1

@<TRIPOS>CRYSIN
   6.7207    8.6835   15.0774  93.3610  95.1800 109.3470   2 1

