# MOL2 file generated by ConQuest
# Please check atom types

@<TRIPOS>MOLECULE
MULTEU
    72    75     1
SMALL
NO_CHARGES
****
Generated from CSD

@<TRIPOS>ATOM
      1 O1        -3.6767    6.5149    9.2627 O.2       1 RES1    0.0000
      2 O2         0.2052    9.5953   10.0921 O.2       1 RES1    0.0000
      3 O3         3.1974    6.8858    9.1457 O.2       1 RES1    0.0000
      4 O4         2.5485    9.0080    9.0927 O.3       1 RES1    0.0000
      5 O5        -5.3083    8.8968   11.3693 O.2       1 RES1    0.0000
      6 O6        -3.7523   10.1543   12.1161 O.2       1 RES1    0.0000
      7 O7         1.0931    8.5002   15.5413 O.3       1 RES1    0.0000
      8 O8        -0.8013    9.4911   15.0977 O.2       1 RES1    0.0000
      9 O9        -1.6891    7.1455    8.4753 O.3       1 RES1    0.0000
     10 C1         1.7834    6.3736    5.1200 C.ar      1 RES1    0.0000
     11 H1         2.5846    6.3878    4.6482 H         1 RES1    0.0000
     12 C2         1.6620    5.5894    6.2577 C.ar      1 RES1    0.0000
     13 H2         2.3778    5.0736    6.5494 H         1 RES1    0.0000
     14 C3         0.4718    5.5797    6.9528 C.ar      1 RES1    0.0000
     15 H3         0.3875    5.0577    7.7177 H         1 RES1    0.0000
     16 C4        -0.5913    6.3348    6.5215 C.ar      1 RES1    0.0000
     17 C5        -1.8873    6.3277    7.2864 C.3       1 RES1    0.0000
     18 H4        -2.6011    6.6933    6.7420 H         1 RES1    0.0000
     19 H5        -2.1245    5.4216    7.5377 H         1 RES1    0.0000
     20 C6        -2.6601    7.1261    9.3844 C.2       1 RES1    0.0000
     21 C7        -2.2939    7.9951   10.5527 C.3       1 RES1    0.0000
     22 H6        -2.3013    8.9259   10.2443 H         1 RES1    0.0000
     23 C8        -0.8853    7.7045   11.1474 C.3       1 RES1    0.0000
     24 C9         0.2162    8.4384   10.3727 C.2       1 RES1    0.0000
     25 N1         1.2317    7.5040   10.0881 N.am      1 RES1    0.0000
     26 C10        2.4347    7.7451    9.3942 C.2       1 RES1    0.0000
     27 C11        3.6892    9.5450    8.3068 C.3       1 RES1    0.0000
     28 C12        4.9695    9.2562    9.0159 C.3       1 RES1    0.0000
     29 H7         5.0524    8.3095    9.1555 H         1 RES1    0.0000
     30 H8         4.9747    9.7057    9.8632 H         1 RES1    0.0000
     31 H9         5.7068    9.5662    8.4855 H         1 RES1    0.0000
     32 C13       -0.4445    7.0978    5.3950 C.ar      1 RES1    0.0000
     33 H10       -1.1639    7.6100    5.1019 H         1 RES1    0.0000
     34 C14        0.7157    7.1314    4.6929 C.ar      1 RES1    0.0000
     35 H11        0.7890    7.6604    3.9308 H         1 RES1    0.0000
     36 C15        0.8371    6.2049   10.5332 C.ar      1 RES1    0.0000
     37 C16       -0.4368    6.2774   11.1209 C.ar      1 RES1    0.0000
     38 C17       -1.0418    5.1275   11.5647 C.ar      1 RES1    0.0000
     39 H12       -1.8936    5.1628   11.9347 H         1 RES1    0.0000
     40 C18       -0.3827    3.9229   11.4601 C.ar      1 RES1    0.0000
     41 H13       -0.7896    3.1440   11.7658 H         1 RES1    0.0000
     42 C19        0.8808    3.8664   10.9003 C.ar      1 RES1    0.0000
     43 H14        1.3137    3.0459   10.8305 H         1 RES1    0.0000
     44 C20        1.5090    5.0039   10.4439 C.ar      1 RES1    0.0000
     45 H15        2.3666    4.9632   10.0851 H         1 RES1    0.0000
     46 C21        3.7196    8.9188    6.9737 C.3       1 RES1    0.0000
     47 H16        2.8420    8.9489    6.5871 H         1 RES1    0.0000
     48 H17        4.0028    8.0048    7.0561 H         1 RES1    0.0000
     49 H18        4.3346    9.3948    6.4112 H         1 RES1    0.0000
     50 C22        3.3460   11.0057    8.2091 C.3       1 RES1    0.0000
     51 H19        3.3205   11.3881    9.0885 H         1 RES1    0.0000
     52 H20        2.4871   11.1046    7.7917 H         1 RES1    0.0000
     53 H21        4.0106   11.4561    7.6828 H         1 RES1    0.0000
     54 C23       -1.0252    8.3103   12.5712 C.3       1 RES1    0.0000
     55 H22       -1.0400    9.2853   12.4804 H         1 RES1    0.0000
     56 C24       -2.4182    7.8599   13.0095 C.3       1 RES1    0.0000
     57 H23       -2.3878    6.9636   13.3780 H         1 RES1    0.0000
     58 H24       -2.7769    8.4622   13.6795 H         1 RES1    0.0000
     59 C25       -3.2614    7.8935   11.7518 C.3       1 RES1    0.0000
     60 H25       -3.7814    7.0651   11.6834 H         1 RES1    0.0000
     61 N2        -4.1940    9.0698   11.7713 N.pl3     1 RES1    0.0000
     62 C26        0.1026    7.9500   13.5190 C.3       1 RES1    0.0000
     63 H26        0.0476    7.0051   13.7325 H         1 RES1    0.0000
     64 H27        0.9507    8.1055   13.0765 H         1 RES1    0.0000
     65 C27        0.0599    8.7369   14.7836 C.2       1 RES1    0.0000
     66 C28        1.2068    9.2412   16.8020 C.3       1 RES1    0.0000
     67 H28        0.9422   10.1614   16.6471 H         1 RES1    0.0000
     68 H29        0.5853    8.8614   17.4427 H         1 RES1    0.0000
     69 C29        2.3746    9.2332   17.3115 C.3       1 RES1    0.0000
     70 H30        2.9656    9.7560   16.7657 H         1 RES1    0.0000
     71 H31        2.6969    8.3298   17.3590 H         1 RES1    0.0000
     72 H32        2.3405    9.6068   18.1951 H         1 RES1    0.0000
@<TRIPOS>BOND
     1    1   20 2
     2    2   24 2
     3    3   26 2
     4    4   26 1
     5    5   61 2
     6    6   61 2
     7    7   65 1
     8    8   65 2
     9    9   17 1
    10   10   11 1
    11   12   10 ar
    12   13   12 1
    13   14   12 ar
    14   15   14 1
    15   16   14 ar
    16   17   16 1
    17   18   17 1
    18   19   17 1
    19   20    9 1
    20   21   20 1
    21   22   21 1
    22   23   21 1
    23   24   23 1
    24   25   24 1
    25   26   25 1
    26   27    4 1
    27   28   27 1
    28   29   28 1
    29   30   28 1
    30   31   28 1
    31   32   16 ar
    32   33   32 1
    33   34   10 ar
    34   35   34 1
    35   36   25 1
    36   37   23 1
    37   38   37 ar
    38   39   38 1
    39   40   38 ar
    40   41   40 1
    41   42   40 ar
    42   43   42 1
    43   44   36 ar
    44   45   44 1
    45   46   27 1
    46   47   46 1
    47   48   46 1
    48   49   46 1
    49   50   27 1
    50   51   50 1
    51   52   50 1
    52   53   50 1
    53   54   23 1
    54   55   54 1
    55   56   54 1
    56   57   56 1
    57   58   56 1
    58   59   21 1
    59   60   59 1
    60   61   59 1
    61   62   54 1
    62   63   62 1
    63   64   62 1
    64   65   62 1
    65   66    7 1
    66   67   66 1
    67   68   66 1
    68   69   66 1
    69   70   69 1
    70   71   69 1
    71   72   69 1
    72   32   34 ar
    73   36   37 ar
    74   42   44 ar
    75   56   59 1
@<TRIPOS>SUBSTRUCTURE
     1 RES1 1

@<TRIPOS>CRYSIN
  13.0851    8.8314   14.1924  90.0000 100.4130  90.0000   4 1

