# MOL2 file generated by ConQuest
# Please check atom types

@<TRIPOS>MOLECULE
MULYAV
    50    54     1
SMALL
NO_CHARGES
****
Generated from CSD

@<TRIPOS>ATOM
      1 C1         4.7437    7.6902    6.9222 C.ar      1 RES1    0.0000
      2 H1         5.6059    7.3472    6.9924 H         1 RES1    0.0000
      3 C2         3.9050    7.2403    5.9214 C.ar      1 RES1    0.0000
      4 H2         4.2126    6.5890    5.3324 H         1 RES1    0.0000
      5 C3         2.6271    7.7276    5.7713 C.ar      1 RES1    0.0000
      6 C4         9.2446   12.5354    9.5725 C.ar      1 RES1    0.0000
      7 H3        10.0420   12.9651    9.3651 H         1 RES1    0.0000
      8 C5         4.3096    8.6487    7.8222 C.ar      1 RES1    0.0000
      9 C6         3.0235    9.1461    7.6838 C.ar      1 RES1    0.0000
     10 H4         2.7115    9.7893    8.2792 H         1 RES1    0.0000
     11 C7         7.0291   11.8645    8.9551 C.ar      1 RES1    0.0000
     12 H5         6.3445   11.8521    8.3258 H         1 RES1    0.0000
     13 C8         2.1987    8.6929    6.6657 C.ar      1 RES1    0.0000
     14 H6         1.3414    9.0436    6.5829 H         1 RES1    0.0000
     15 C9         6.8604   11.2388   10.1837 C.ar      1 RES1    0.0000
     16 C10        9.0809   11.9188   10.7919 C.ar      1 RES1    0.0000
     17 H7         9.7758   11.9293   11.4100 H         1 RES1    0.0000
     18 C11        7.8925   11.2826   11.1075 C.ar      1 RES1    0.0000
     19 H8         7.7865   10.8836   11.9413 H         1 RES1    0.0000
     20 C12        8.2217   12.5055    8.6757 C.ar      1 RES1    0.0000
     21 H9         8.3272   12.9270    7.8529 H         1 RES1    0.0000
     22 C13        4.0548    9.8411   13.4639 C.2       1 RES1    0.0000
     23 C14        4.4995    9.2933   12.2795 C.2       1 RES1    0.0000
     24 C15        2.6492    8.1850   12.8660 C.2       1 RES1    0.0000
     25 C16        5.5992    9.4026   11.2901 C.3       1 RES1    0.0000
     26 C17        5.2664    8.2783   10.2280 C.3       1 RES1    0.0000
     27 C18        5.2281    9.1064    8.9195 C.3       1 RES1    0.0000
     28 O1         4.7987   10.4012    9.3835 O.3       1 RES1    0.0000
     29 C19        3.9012    7.6825   10.6431 C.3       1 RES1    0.0000
     30 C20        6.3714    7.2420   10.1971 C.2       1 RES1    0.0000
     31 C21        1.7140    7.2353    4.6670 C.3       1 RES1    0.0000
     32 H10        0.8712    7.6918    4.7208 H         1 RES1    0.0000
     33 H11        1.5723    6.2907    4.7661 H         1 RES1    0.0000
     34 H12        2.1195    7.4100    3.8150 H         1 RES1    0.0000
     35 N1         5.5982   10.6757   10.5377 N.3       1 RES1    0.0000
     36 N2         3.6444    8.2928   11.9347 N.3       1 RES1    0.0000
     37 O2         7.2479    7.1960    9.3954 O.2       1 RES1    0.0000
     38 O3         6.2922    6.3940   11.1967 O.3       1 RES1    0.0000
     39 C22        7.2503    5.3120   11.2376 C.3       1 RES1    0.0000
     40 H13        7.0915    4.7741   12.0164 H         1 RES1    0.0000
     41 H14        8.1396    5.6738   11.2752 H         1 RES1    0.0000
     42 H15        7.1569    4.7713   10.4510 H         1 RES1    0.0000
     43 C23        2.8897    9.1320   13.8231 C.2       1 RES1    0.0000
     44 H16        6.5203    9.2441   11.6730 H         1 RES1    0.0000
     45 H17        3.1955    7.9683   10.0610 H         1 RES1    0.0000
     46 H18        3.9397    6.7049   10.7232 H         1 RES1    0.0000
     47 H19        4.4967   10.5965   13.9434 H         1 RES1    0.0000
     48 H20        1.9615    7.5501   12.7538 H         1 RES1    0.0000
     49 H21        6.1604    9.1431    8.6058 H         1 RES1    0.0000
     50 H22        2.2970    9.3352   14.6950 H         1 RES1    0.0000
@<TRIPOS>BOND
     1    1    2 1
     2    3    1 ar
     3    4    3 1
     4    5    3 ar
     5    6    7 1
     6    8    1 ar
     7    9    8 ar
     8   10    9 1
     9   11   12 1
    10   13    5 ar
    11   14   13 1
    12   15   11 ar
    13   16    6 ar
    14   17   16 1
    15   18   15 ar
    16   19   18 1
    17   20    6 ar
    18   21   20 1
    19   22   23 2
    20   23   25 1
    21   24   36 1
    22   25   26 1
    23   26   27 1
    24   27    8 1
    25   28   27 1
    26   29   26 1
    27   30   26 1
    28   31    5 1
    29   32   31 1
    30   33   31 1
    31   34   31 1
    32   35   15 1
    33   36   23 1
    34   37   30 2
    35   38   30 1
    36   39   38 1
    37   40   39 1
    38   41   39 1
    39   42   39 1
    40   43   22 1
    41   44   25 1
    42   45   29 1
    43   46   29 1
    44   47   22 1
    45   48   24 1
    46   49   27 1
    47   50   43 1
    48    9   13 ar
    49   11   20 ar
    50   16   18 ar
    51   24   43 2
    52   25   35 1
    53   28   35 1
    54   29   36 1
@<TRIPOS>SUBSTRUCTURE
     1 RES1 1

@<TRIPOS>CRYSIN
   6.7971   11.2067   13.1499  83.8510  81.1500  76.1100   2 1

