# MOL2 file generated by ConQuest
# Please check atom types

@<TRIPOS>MOLECULE
MUQHAJ
    31    33     1
SMALL
NO_CHARGES
****
Generated from CSD

@<TRIPOS>ATOM
      1 N1         7.2169    1.2991    9.1004 N.pl3     1 RES1    0.0000
      2 H1         8.0183    1.5727    9.3412 H         1 RES1    0.0000
      3 N2        12.0215    1.6412    4.7217 N.pl3     1 RES1    0.0000
      4 H2        11.7702    1.1342    4.0481 H         1 RES1    0.0000
      5 N3         7.0953    1.5522    2.9109 N.pl3     1 RES1    0.0000
      6 O1         9.4817    1.9885    7.9318 O.3       1 RES1    0.0000
      7 H3        10.3066    1.8402    7.8825 H         1 RES1    0.0000
      8 O2         5.8664    1.5823    2.8533 O.2       1 RES1    0.0000
      9 O3         7.8219    1.4086    1.9271 O.2       1 RES1    0.0000
     10 C1         6.2702    0.8175    9.9452 C.2       1 RES1    0.0000
     11 H4         6.3638    0.7156   10.8857 H         1 RES1    0.0000
     12 C2         5.1516    0.5035    9.2099 C.2       1 RES1    0.0000
     13 H5         4.3367    0.1491    9.5448 H         1 RES1    0.0000
     14 C3         5.4431    0.8066    7.8628 C.2       1 RES1    0.0000
     15 H6         4.8569    0.6950    7.1237 H         1 RES1    0.0000
     16 C4         6.7363    1.2943    7.8116 C.2       1 RES1    0.0000
     17 C5         7.5491    1.6145    6.6246 C.ar      1 RES1    0.0000
     18 C6         8.9319    1.9059    6.6929 C.ar      1 RES1    0.0000
     19 C7         9.7089    2.0496    5.5275 C.ar      1 RES1    0.0000
     20 C8         9.0975    1.9312    4.2744 C.ar      1 RES1    0.0000
     21 H7         9.6059    2.0133    3.4760 H         1 RES1    0.0000
     22 C9         7.7338    1.6925    4.2249 C.ar      1 RES1    0.0000
     23 C10        6.9566    1.5522    5.3582 C.ar      1 RES1    0.0000
     24 H8         6.0204    1.4134    5.2780 H         1 RES1    0.0000
     25 C11       11.1823    2.2514    5.6204 C.2       1 RES1    0.0000
     26 C12       11.9273    2.9492    6.5259 C.2       1 RES1    0.0000
     27 H9        11.6057    3.4533    7.2633 H         1 RES1    0.0000
     28 C13       13.2890    2.7658    6.1365 C.2       1 RES1    0.0000
     29 H10       14.0462    3.1469    6.5651 H         1 RES1    0.0000
     30 C14       13.3138    1.9517    5.0488 C.2       1 RES1    0.0000
     31 H11       14.0930    1.6514    4.5949 H         1 RES1    0.0000
@<TRIPOS>BOND
     1    1    2 1
     2    3    4 1
     3    5    8 2
     4    6    7 1
     5    9    5 2
     6   10    1 1
     7   11   10 1
     8   12   10 2
     9   13   12 1
    10   14   12 1
    11   15   14 1
    12   16    1 1
    13   17   16 1
    14   18    6 1
    15   19   18 ar
    16   20   19 ar
    17   21   20 1
    18   22    5 1
    19   23   17 ar
    20   24   23 1
    21   25    3 1
    22   26   25 2
    23   27   26 1
    24   28   26 1
    25   29   28 1
    26   30    3 1
    27   31   30 1
    28   14   16 2
    29   17   18 ar
    30   19   25 1
    31   20   22 ar
    32   22   23 ar
    33   28   30 2
@<TRIPOS>SUBSTRUCTURE
     1 RES1 1

@<TRIPOS>CRYSIN
  10.3420    6.8410   17.2180  90.0000 102.2670  90.0000 231 1

