# MOL2 file generated by ConQuest
# Please check atom types

@<TRIPOS>MOLECULE
MUQHIQ
    24    26     1
SMALL
NO_CHARGES
****
Generated from CSD

@<TRIPOS>ATOM
      1 O1         2.5251    5.0832    0.1320 O.2       1 RES1    0.0000
      2 O2         3.3523    9.6080    2.7506 O.2       1 RES1    0.0000
      3 N1         2.3308    7.2750    0.2634 N.ar      1 RES1    0.0000
      4 N2         2.7459    6.1510    0.7767 N.pl3     1 RES1    0.0000
      5 N3         3.1789    8.4957    2.1177 N.pl3     1 RES1    0.0000
      6 C1         2.5448    8.4138    0.9185 C.ar      1 RES1    0.0000
      7 C2         3.4371    6.1104    2.0043 C.ar      1 RES1    0.0000
      8 C3         3.8760    4.8905    2.5135 C.ar      1 RES1    0.0000
      9 H1         3.6870    4.0770    2.0605 H         1 RES1    0.0000
     10 C4         4.5903    4.8944    3.6879 C.ar      1 RES1    0.0000
     11 H2         4.9000    4.0747    4.0538 H         1 RES1    0.0000
     12 C5         4.8675    6.1073    4.3526 C.ar      1 RES1    0.0000
     13 H3         5.3816    6.0972    5.1512 H         1 RES1    0.0000
     14 C6         4.4068    7.2968    3.8651 C.ar      1 RES1    0.0000
     15 H4         4.5838    8.1088    4.3267 H         1 RES1    0.0000
     16 C7         3.6671    7.3030    2.6733 C.ar      1 RES1    0.0000
     17 C8         2.0667    9.6664    0.3130 C.3       1 RES1    0.0000
     18 H5         2.2091   10.4971    0.8525 H         1 RES1    0.0000
     19 C9         0.8297    9.6391   -0.5438 C.3       1 RES1    0.0000
     20 H6         0.3765    8.7679   -0.6691 H         1 RES1    0.0000
     21 H7         0.2226   10.4199   -0.4997 H         1 RES1    0.0000
     22 C10        2.1483    9.8279   -1.1919 C.3       1 RES1    0.0000
     23 H8         2.3631   10.7256   -1.5482 H         1 RES1    0.0000
     24 H9         2.5163    9.0728   -1.7161 H         1 RES1    0.0000
@<TRIPOS>BOND
     1    1    4 1
     2    2    5 1
     3    3    4 ar
     4    4    7 ar
     5    5    6 ar
     6    6    3 ar
     7    7    8 ar
     8    8    9 1
     9   10    8 ar
    10   11   10 1
    11   12   10 ar
    12   13   12 1
    13   14   12 ar
    14   15   14 1
    15   16    5 ar
    16   17    6 1
    17   18   17 1
    18   19   17 1
    19   20   19 1
    20   21   19 1
    21   22   17 1
    22   23   22 1
    23   24   22 1
    24    7   16 ar
    25   14   16 ar
    26   19   22 1
@<TRIPOS>SUBSTRUCTURE
     1 RES1 1

@<TRIPOS>CRYSIN
  16.6306    7.7999   16.0113  90.0000 119.0440  90.0000  15 1

