# MOL2 file generated by ConQuest
# Please check atom types

@<TRIPOS>MOLECULE
MUQXIH01
    27    29     1
SMALL
NO_CHARGES
****
Generated from CSD

@<TRIPOS>ATOM
      1 O1         1.8154    4.4664    3.1009 O.2       1 RES1    0.0000
      2 O2         3.9502    4.3457    3.1383 O.2       1 RES1    0.0000
      3 O3         2.3970    6.4014    5.0674 O.2       1 RES1    0.0000
      4 O4         1.4623    3.5837    9.5380 O.2       1 RES1    0.0000
      5 O5         2.4199    1.4550    8.4516 O.3       1 RES1    0.0000
      6 H1         2.0818    1.9146    9.0412 H         1 RES1    0.0000
      7 N1         2.8825    4.2097    3.6478 N.pl3     1 RES1    0.0000
      8 C1         2.8117    3.5918    4.9869 C.ar      1 RES1    0.0000
      9 C2         2.3620    4.2808    6.0888 C.ar      1 RES1    0.0000
     10 C3         2.1037    5.7571    6.0480 C.2       1 RES1    0.0000
     11 C4         1.5230    6.3872    7.2554 C.ar      1 RES1    0.0000
     12 C5         1.3294    5.6637    8.4408 C.ar      1 RES1    0.0000
     13 C6         1.6714    4.2209    8.5008 C.2       1 RES1    0.0000
     14 C7         2.2079    3.5654    7.3058 C.ar      1 RES1    0.0000
     15 C8         2.5679    2.1937    7.3376 C.ar      1 RES1    0.0000
     16 C9         3.0483    1.5646    6.2082 C.ar      1 RES1    0.0000
     17 H2         3.2865    0.6656    6.2475 H         1 RES1    0.0000
     18 C10        3.1777    2.2495    5.0292 C.ar      1 RES1    0.0000
     19 H3         3.5057    1.8243    4.2685 H         1 RES1    0.0000
     20 C11        0.8124    6.2938    9.5717 C.ar      1 RES1    0.0000
     21 H4         0.6704    5.8108   10.3542 H         1 RES1    0.0000
     22 C12        0.5115    7.6473    9.5236 C.ar      1 RES1    0.0000
     23 H5         0.1820    8.0755   10.2814 H         1 RES1    0.0000
     24 C13        0.6984    8.3627    8.3592 C.ar      1 RES1    0.0000
     25 H6         0.4758    9.2657    8.3329 H         1 RES1    0.0000
     26 C14        1.2161    7.7508    7.2268 C.ar      1 RES1    0.0000
     27 H7         1.3581    8.2450    6.4515 H         1 RES1    0.0000
@<TRIPOS>BOND
     1    1    7 2
     2    2    7 2
     3    3   10 2
     4    4   13 2
     5    5    6 1
     6    7    8 1
     7    8    9 ar
     8    9   10 1
     9   10   11 1
    10   11   12 ar
    11   12   13 1
    12   13   14 1
    13   14    9 ar
    14   15    5 1
    15   16   15 ar
    16   17   16 1
    17   18    8 ar
    18   19   18 1
    19   20   12 ar
    20   21   20 1
    21   22   20 ar
    22   23   22 1
    23   24   22 ar
    24   25   24 1
    25   26   11 ar
    26   27   26 1
    27   14   15 ar
    28   16   18 ar
    29   24   26 ar
@<TRIPOS>SUBSTRUCTURE
     1 RES1 1

@<TRIPOS>CRYSIN
   7.4696   10.1464   14.5732  90.0000  90.1180  90.0000 231 1

