# MOL2 file generated by ConQuest
# Please check atom types

@<TRIPOS>MOLECULE
MUQXIH
    27    29     1
SMALL
NO_CHARGES
****
Generated from CSD

@<TRIPOS>ATOM
      1 O1         1.9140    9.5022   11.4292 O.2       1 RES1    0.0000
      2 O2         4.0712    9.3343   11.4090 O.2       1 RES1    0.0000
      3 O3         2.5022   11.4404    9.4795 O.2       1 RES1    0.0000
      4 O4         1.5465    8.6315    4.9933 O.2       1 RES1    0.0000
      5 O5         2.5106    6.4993    6.0617 O.3       1 RES1    0.0000
      6 H1         2.1961    6.9637    5.4630 H         1 RES1    0.0000
      7 N1         2.9718    9.2266   10.8865 N.pl3     1 RES1    0.0000
      8 C1         2.9140    8.6196    9.5456 C.ar      1 RES1    0.0000
      9 C2         2.4588    9.3162    8.4403 C.ar      1 RES1    0.0000
     10 C3         2.1975   10.7923    8.4943 C.2       1 RES1    0.0000
     11 C4         1.6163   11.4366    7.2919 C.ar      1 RES1    0.0000
     12 C5         1.4092   10.7102    6.1054 C.ar      1 RES1    0.0000
     13 C6         1.7516    9.2672    6.0329 C.2       1 RES1    0.0000
     14 C7         2.3057    8.6058    7.2259 C.ar      1 RES1    0.0000
     15 C8         2.6545    7.2363    7.1700 C.ar      1 RES1    0.0000
     16 C9         3.1611    6.5961    8.3031 C.ar      1 RES1    0.0000
     17 H2         3.4093    5.7017    8.2560 H         1 RES1    0.0000
     18 C10        3.2936    7.2802    9.4881 C.ar      1 RES1    0.0000
     19 H3         3.6331    6.8547   10.2418 H         1 RES1    0.0000
     20 C11        0.9001   11.3524    4.9791 C.ar      1 RES1    0.0000
     21 H4         0.7746   10.8768    4.1903 H         1 RES1    0.0000
     22 C12        0.5795   12.7027    5.0338 C.ar      1 RES1    0.0000
     23 H5         0.2297   13.1274    4.2846 H         1 RES1    0.0000
     24 C13        0.7821   13.4213    6.2104 C.ar      1 RES1    0.0000
     25 H6         0.5698   14.3258    6.2413 H         1 RES1    0.0000
     26 C14        1.2985   12.7944    7.3354 C.ar      1 RES1    0.0000
     27 H7         1.4329   13.2787    8.1183 H         1 RES1    0.0000
@<TRIPOS>BOND
     1    1    7 2
     2    2    7 2
     3    3   10 2
     4    4   13 2
     5    5    6 1
     6    7    8 1
     7    8    9 ar
     8    9   10 1
     9   10   11 1
    10   11   12 ar
    11   12   13 1
    12   13   14 1
    13   14    9 ar
    14   15    5 1
    15   16   15 ar
    16   17   16 1
    17   18    8 ar
    18   19   18 1
    19   20   12 ar
    20   21   20 1
    21   22   20 ar
    22   23   22 1
    23   24   22 ar
    24   25   24 1
    25   26   11 ar
    26   27   26 1
    27   14   15 ar
    28   16   18 ar
    29   24   26 ar
@<TRIPOS>SUBSTRUCTURE
     1 RES1 1

@<TRIPOS>CRYSIN
   7.3423   10.0879   14.4961  90.0000  89.1370  90.0000 231 1

