# MOL2 file generated by ConQuest
# Please check atom types

@<TRIPOS>MOLECULE
MUQZEF
    50    54     1
SMALL
NO_CHARGES
****
Generated from CSD

@<TRIPOS>ATOM
      1 O1         3.0123    1.4541   22.4131 O.3       1 RES1    0.0000
      2 O2         4.2984    3.1493   16.4717 O.2       1 RES1    0.0000
      3 N1        10.1899    1.4066   15.7574 N.2       1 RES1    0.0000
      4 O3         8.6459   -3.3769   19.3893 O.2       1 RES1    0.0000
      5 O4         8.8346    5.2238   14.8299 O.2       1 RES1    0.0000
      6 N2         8.2704    1.1067   16.8983 N.pl3     1 RES1    0.0000
      7 C1         5.4267    2.0355   19.7252 C.ar      1 RES1    0.0000
      8 H1         6.3455    2.0454   19.5784 H         1 RES1    0.0000
      9 C2         7.0760    3.2918   15.9839 C.2       1 RES1    0.0000
     10 H2         6.6168    4.0483   15.6977 H         1 RES1    0.0000
     11 C3         8.9907    1.8894   15.9908 C.2       1 RES1    0.0000
     12 O5        10.6475   -3.9313   18.9792 O.2       1 RES1    0.0000
     13 N3         9.7232   -3.1656   18.8918 N.pl3     1 RES1    0.0000
     14 C4         9.9054   -1.9419   18.0994 C.ar      1 RES1    0.0000
     15 C5         8.8597   -1.0521   18.0494 C.ar      1 RES1    0.0000
     16 H3         8.0673   -1.1776   18.5208 H         1 RES1    0.0000
     17 C6         9.0846    0.0447   17.2423 C.ar      1 RES1    0.0000
     18 N4         7.0278    1.3279   17.3634 N.2       1 RES1    0.0000
     19 C7         6.4589    2.4127   16.9037 C.2       1 RES1    0.0000
     20 C8         5.0326    2.6601   17.3228 C.2       1 RES1    0.0000
     21 C9         4.5669    2.3276   18.6717 C.ar      1 RES1    0.0000
     22 C10        3.1922    2.3247   18.9267 C.ar      1 RES1    0.0000
     23 H4         2.5989    2.5339   18.2418 H         1 RES1    0.0000
     24 C11        2.7047    2.0178   20.1728 C.ar      1 RES1    0.0000
     25 H5         1.7876    2.0036   20.3237 H         1 RES1    0.0000
     26 C12        3.5877    1.7264   21.2131 C.ar      1 RES1    0.0000
     27 C13        3.8856    1.1145   23.4943 C.3       1 RES1    0.0000
     28 H6         4.3888    0.3304   23.2655 H         1 RES1    0.0000
     29 H7         3.3652    0.9415   24.2835 H         1 RES1    0.0000
     30 H8         4.4863    1.8433   23.6610 H         1 RES1    0.0000
     31 C14        4.9468    1.7327   20.9820 C.ar      1 RES1    0.0000
     32 H9         5.5385    1.5328   21.6707 H         1 RES1    0.0000
     33 C15        8.3236    3.0543   15.5114 C.2       1 RES1    0.0000
     34 C16       10.2638    0.2581   16.5234 C.ar      1 RES1    0.0000
     35 C17       11.1064   -1.7717   17.4115 C.ar      1 RES1    0.0000
     36 H10       11.7824   -2.4063   17.4944 H         1 RES1    0.0000
     37 C18       11.2940   -0.6749   16.6160 C.ar      1 RES1    0.0000
     38 H11       12.0889   -0.5551   16.1495 H         1 RES1    0.0000
     39 C19        8.9755    4.0419   14.5722 C.2       1 RES1    0.0000
     40 C20        9.6659    3.5931   13.3487 C.ar      1 RES1    0.0000
     41 C21       10.4954    4.4942   12.6878 C.ar      1 RES1    0.0000
     42 H12       10.6424    5.3407   13.0432 H         1 RES1    0.0000
     43 C22       11.0991    4.1270   11.5026 C.ar      1 RES1    0.0000
     44 H13       11.6645    4.7225   11.0654 H         1 RES1    0.0000
     45 C23       10.8683    2.8855   10.9667 C.ar      1 RES1    0.0000
     46 H14       11.2659    2.6502   10.1598 H         1 RES1    0.0000
     47 C24       10.0578    1.9915   11.6071 C.ar      1 RES1    0.0000
     48 H15        9.9094    1.1500   11.2403 H         1 RES1    0.0000
     49 C25        9.4564    2.3439   12.8069 C.ar      1 RES1    0.0000
     50 H16        8.9091    1.7342   13.2473 H         1 RES1    0.0000
@<TRIPOS>BOND
     1    1   26 1
     2    2   20 2
     3    3   11 2
     4    4   13 2
     5    5   39 2
     6    6   11 1
     7    7    8 1
     8    9   10 1
     9   11   33 1
    10   12   13 2
    11   13   14 1
    12   14   15 ar
    13   15   16 1
    14   17    6 1
    15   18    6 1
    16   19    9 1
    17   20   19 1
    18   21    7 ar
    19   22   21 ar
    20   23   22 1
    21   24   22 ar
    22   25   24 1
    23   26   24 ar
    24   27    1 1
    25   28   27 1
    26   29   27 1
    27   30   27 1
    28   31    7 ar
    29   32   31 1
    30   33    9 2
    31   34    3 1
    32   35   14 ar
    33   36   35 1
    34   37   34 ar
    35   38   37 1
    36   39   33 1
    37   40   39 1
    38   41   40 ar
    39   42   41 1
    40   43   41 ar
    41   44   43 1
    42   45   43 ar
    43   46   45 1
    44   47   45 ar
    45   48   47 1
    46   49   40 ar
    47   50   49 1
    48   15   17 ar
    49   17   34 ar
    50   18   19 2
    51   20   21 1
    52   26   31 ar
    53   35   37 ar
    54   47   49 ar
@<TRIPOS>SUBSTRUCTURE
     1 RES1 1

@<TRIPOS>CRYSIN
  14.2274    7.0898   21.0075  90.0000  97.6770  90.0000  14 1

