# MOL2 file generated by ConQuest
# Please check atom types

@<TRIPOS>MOLECULE
MUSGEO
    38    41     1
SMALL
NO_CHARGES
****
Generated from CSD

@<TRIPOS>ATOM
      1 O1         4.0428    7.0176    8.2651 O.2       1 RES1    0.0000
      2 O2         0.3409    6.4806    6.5400 O.2       1 RES1    0.0000
      3 N1         3.0221    7.5251    8.8863 N.pl3     1 RES1    0.0000
      4 N2         1.7162    5.6648    8.2147 N.am      1 RES1    0.0000
      5 C1         3.1387    8.7120    9.5419 C.ar      1 RES1    0.0000
      6 H1         3.9723    9.1233    9.5938 H         1 RES1    0.0000
      7 C2         2.0611    9.3118   10.1247 C.ar      1 RES1    0.0000
      8 H2         2.1644   10.1290   10.5554 H         1 RES1    0.0000
      9 C3         0.8248    8.7147   10.0792 C.ar      1 RES1    0.0000
     10 H3         0.0834    9.1287   10.4592 H         1 RES1    0.0000
     11 C4         0.7071    7.4962    9.4605 C.ar      1 RES1    0.0000
     12 H4        -0.1207    7.0741    9.4255 H         1 RES1    0.0000
     13 C5         1.8087    6.8910    8.8892 C.ar      1 RES1    0.0000
     14 C6         1.0387    5.5985    6.9858 C.2       1 RES1    0.0000
     15 C7         1.3833    4.2969    6.4098 C.ar      1 RES1    0.0000
     16 C8         2.2566    3.6493    7.2677 C.ar      1 RES1    0.0000
     17 C9         2.7482    2.3902    6.9389 C.ar      1 RES1    0.0000
     18 H5         3.3376    1.9410    7.5006 H         1 RES1    0.0000
     19 C10        2.3275    1.8292    5.7444 C.ar      1 RES1    0.0000
     20 H6         2.6442    0.9876    5.5052 H         1 RES1    0.0000
     21 C11        1.4491    2.4822    4.8946 C.ar      1 RES1    0.0000
     22 H7         1.1813    2.0745    4.1023 H         1 RES1    0.0000
     23 C12        0.9727    3.7278    5.2145 C.ar      1 RES1    0.0000
     24 H8         0.3904    4.1779    4.6449 H         1 RES1    0.0000
     25 C13        2.4805    4.4845    8.4545 C.2       1 RES1    0.0000
     26 C14        3.2033    4.1346    9.5181 C.2       1 RES1    0.0000
     27 H9         3.6868    3.3481    9.4083 H         1 RES1    0.0000
     28 C15        3.3704    4.7633   10.8235 C.ar      1 RES1    0.0000
     29 C16        2.3510    5.4334   11.4777 C.ar      1 RES1    0.0000
     30 H10        1.5174    5.5128   11.0723 H         1 RES1    0.0000
     31 C17        2.5571    5.9836   12.7209 C.ar      1 RES1    0.0000
     32 H11        1.8723    6.4481   13.1449 H         1 RES1    0.0000
     33 C18        3.7752    5.8447   13.3355 C.ar      1 RES1    0.0000
     34 H12        3.9220    6.2298   14.1683 H         1 RES1    0.0000
     35 C19        4.7800    5.1385   12.7208 C.ar      1 RES1    0.0000
     36 H13        5.5982    5.0284   13.1483 H         1 RES1    0.0000
     37 C20        4.5799    4.5955   11.4810 C.ar      1 RES1    0.0000
     38 H14        5.2614    4.1093   11.0757 H         1 RES1    0.0000
@<TRIPOS>BOND
     1    1    3 1
     2    2   14 2
     3    3    5 ar
     4    4   13 1
     5    5    6 1
     6    7    5 ar
     7    8    7 1
     8    9    7 ar
     9   10    9 1
    10   11    9 ar
    11   12   11 1
    12   13    3 ar
    13   14    4 1
    14   15   14 1
    15   16   15 ar
    16   17   16 ar
    17   18   17 1
    18   19   17 ar
    19   20   19 1
    20   21   19 ar
    21   22   21 1
    22   23   15 ar
    23   24   23 1
    24   25    4 1
    25   26   25 2
    26   27   26 1
    27   28   26 1
    28   29   28 ar
    29   30   29 1
    30   31   29 ar
    31   32   31 1
    32   33   31 ar
    33   34   33 1
    34   35   33 ar
    35   36   35 1
    36   37   28 ar
    37   38   37 1
    38   11   13 ar
    39   16   25 1
    40   21   23 ar
    41   35   37 ar
@<TRIPOS>SUBSTRUCTURE
     1 RES1 1

@<TRIPOS>CRYSIN
  10.0402    9.0196   17.1734  90.0000  90.8190  90.0000  14 1

