# MOL2 file generated by ConQuest
# Please check atom types

@<TRIPOS>MOLECULE
MUSLAN
    57    61     1
SMALL
NO_CHARGES
****
Generated from CSD

@<TRIPOS>ATOM
      1 N1         1.8239    8.3701    5.6910 N.3       1 RES1    0.0000
      2 O1         2.1586    8.4585    4.2905 O.3       1 RES1    0.0000
      3 C1         3.4561    9.0577    4.1854 C.3       1 RES1    0.0000
      4 H1         4.1922    8.4171    4.2800 H         1 RES1    0.0000
      5 C2         3.5109    9.8475    2.9082 C.3       1 RES1    0.0000
      6 H2         4.4293    9.9784    2.6261 H         1 RES1    0.0000
      7 H3         3.0282    9.3906    2.2023 H         1 RES1    0.0000
      8 O2         2.8912   11.1012    3.2158 O.3       1 RES1    0.0000
      9 C3         2.8467   11.2837    4.5372 C.2       1 RES1    0.0000
     10 C4         3.4253   10.0955    5.2634 C.3       1 RES1    0.0000
     11 H4         4.3249   10.2872    5.5996 H         1 RES1    0.0000
     12 C5         2.5395    9.5077    6.3536 C.3       1 RES1    0.0000
     13 H5         1.8950   10.1782    6.6615 H         1 RES1    0.0000
     14 C6         3.2755    8.8959    7.5465 C.3       1 RES1    0.0000
     15 H6         4.2264    8.8304    7.3671 H         1 RES1    0.0000
     16 H7         3.1412    9.4297    8.3459 H         1 RES1    0.0000
     17 C7         2.6687    7.5297    7.7106 C.3       1 RES1    0.0000
     18 H8         1.8607    7.5665    8.2454 H         1 RES1    0.0000
     19 H9         3.2952    6.9144    8.1209 H         1 RES1    0.0000
     20 C8         2.3597    7.1245    6.2730 C.3       1 RES1    0.0000
     21 H10        3.1917    6.8811    5.8159 H         1 RES1    0.0000
     22 O3         2.3880   12.2710    5.0108 O.2       1 RES1    0.0000
     23 C9         1.3626    6.0006    6.1406 C.3       1 RES1    0.0000
     24 H11        0.5230    6.2830    6.5588 H         1 RES1    0.0000
     25 C10        1.0707    5.6080    4.7089 C.3       1 RES1    0.0000
     26 H12        0.4665    4.8492    4.6951 H         1 RES1    0.0000
     27 H13        0.6411    6.3461    4.2494 H         1 RES1    0.0000
     28 O4         1.9027    4.9157    6.9055 O.3       1 RES1    0.0000
     29 C11        0.9783    3.9216    7.2623 C.3       1 RES1    0.0000
     30 H14        0.8080    3.3430    6.5020 H         1 RES1    0.0000
     31 H15        0.1404    4.3314    7.5266 H         1 RES1    0.0000
     32 C12        1.5226    3.1283    8.3840 C.ar      1 RES1    0.0000
     33 C13        1.7863    3.6966    9.6096 C.ar      1 RES1    0.0000
     34 H16        1.5646    4.5886    9.7508 H         1 RES1    0.0000
     35 C14        2.3674    2.9859   10.6304 C.ar      1 RES1    0.0000
     36 H17        2.5600    3.4107   11.4352 H         1 RES1    0.0000
     37 C15        2.6636    1.6635   10.4783 C.ar      1 RES1    0.0000
     38 H18        3.0307    1.1687   11.1753 H         1 RES1    0.0000
     39 C16        2.4017    1.0940    9.2657 C.ar      1 RES1    0.0000
     40 H19        2.5951    0.1929    9.1412 H         1 RES1    0.0000
     41 C17        1.8607    1.8092    8.2127 C.ar      1 RES1    0.0000
     42 H20        1.7246    1.3960    7.3912 H         1 RES1    0.0000
     43 O5         2.2793    5.2687    4.0462 O.3       1 RES1    0.0000
     44 C18        2.2074    5.4243    2.6513 C.3       1 RES1    0.0000
     45 H21        3.1078    5.3967    2.2919 H         1 RES1    0.0000
     46 H22        1.8428    6.3025    2.4579 H         1 RES1    0.0000
     47 C19        1.3823    4.4026    1.9416 C.ar      1 RES1    0.0000
     48 C20        0.5931    4.7562    0.8702 C.ar      1 RES1    0.0000
     49 H23        0.5298    5.6505    0.6227 H         1 RES1    0.0000
     50 C21       -0.1061    3.7999    0.1595 C.ar      1 RES1    0.0000
     51 H24       -0.6282    4.0524   -0.5680 H         1 RES1    0.0000
     52 C22       -0.0334    2.4774    0.5217 C.ar      1 RES1    0.0000
     53 H25       -0.5075    1.8357    0.0437 H         1 RES1    0.0000
     54 C23        0.7421    2.1008    1.5932 C.ar      1 RES1    0.0000
     55 H26        0.7986    1.2065    1.8396 H         1 RES1    0.0000
     56 C24        1.4371    3.0629    2.3032 C.ar      1 RES1    0.0000
     57 H27        1.9506    2.8080    3.0347 H         1 RES1    0.0000
@<TRIPOS>BOND
     1    1    2 1
     2    2    3 1
     3    3    4 1
     4    5    3 1
     5    6    5 1
     6    7    5 1
     7    8    5 1
     8    9    8 1
     9   10    3 1
    10   11   10 1
    11   12    1 1
    12   13   12 1
    13   14   12 1
    14   15   14 1
    15   16   14 1
    16   17   14 1
    17   18   17 1
    18   19   17 1
    19   20    1 1
    20   21   20 1
    21   22    9 2
    22   23   20 1
    23   24   23 1
    24   25   23 1
    25   26   25 1
    26   27   25 1
    27   28   23 1
    28   29   28 1
    29   30   29 1
    30   31   29 1
    31   32   29 1
    32   33   32 ar
    33   34   33 1
    34   35   33 ar
    35   36   35 1
    36   37   35 ar
    37   38   37 1
    38   39   37 ar
    39   40   39 1
    40   41   32 ar
    41   42   41 1
    42   43   25 1
    43   44   43 1
    44   45   44 1
    45   46   44 1
    46   47   44 1
    47   48   47 ar
    48   49   48 1
    49   50   48 ar
    50   51   50 1
    51   52   50 ar
    52   53   52 1
    53   54   52 ar
    54   55   54 1
    55   56   47 ar
    56   57   56 1
    57    9   10 1
    58   10   12 1
    59   17   20 1
    60   39   41 ar
    61   54   56 ar
@<TRIPOS>SUBSTRUCTURE
     1 RES1 1

@<TRIPOS>CRYSIN
   8.5590   11.4800   21.8480  90.0000  90.0000  90.0000  19 1

