# MOL2 file generated by ConQuest
# Please check atom types

@<TRIPOS>MOLECULE
MUSSOK
    58    59     1
SMALL
NO_CHARGES
****
Generated from CSD

@<TRIPOS>ATOM
      1 O1         2.1243    2.7684    7.2845 O.2       1 RES1    0.0000
      2 O2         6.8961   -1.8316    9.0161 O.2       1 RES1    0.0000
      3 N1         2.3891    1.5091    7.3631 N.3       1 RES1    0.0000
      4 N2         5.6525   -1.6388    8.7525 N.3       1 RES1    0.0000
      5 N3         4.0111   -0.0861    8.0329 N.ar      1 RES1    0.0000
      6 C1         3.7372    1.1697    7.6444 C.ar      1 RES1    0.0000
      7 C2         4.6798    2.1930    7.5121 C.ar      1 RES1    0.0000
      8 C3         6.0127    1.8961    7.7431 C.ar      1 RES1    0.0000
      9 C4         6.3376    0.5987    8.1498 C.ar      1 RES1    0.0000
     10 C5         5.3036   -0.3315    8.2938 C.ar      1 RES1    0.0000
     11 C6         7.0790    2.9292    7.5768 C.ar      1 RES1    0.0000
     12 C7         7.2660    3.5517    6.3254 C.ar      1 RES1    0.0000
     13 C8         8.2876    4.5007    6.1756 C.ar      1 RES1    0.0000
     14 C9         9.1093    4.8490    7.2331 C.ar      1 RES1    0.0000
     15 C10        8.8944    4.2345    8.4671 C.ar      1 RES1    0.0000
     16 C11        7.9044    3.2706    8.6653 C.ar      1 RES1    0.0000
     17 C12        6.4214    3.2211    5.1064 C.3       1 RES1    0.0000
     18 C13       10.2286    5.8604    7.0842 C.3       1 RES1    0.0000
     19 C14        7.7298    2.6501   10.0453 C.3       1 RES1    0.0000
     20 C15        1.2201    0.5532    7.2514 C.3       1 RES1    0.0000
     21 C16        0.7272    0.2405    8.6572 C.3       1 RES1    0.0000
     22 C17        1.6112   -0.7006    6.4629 C.3       1 RES1    0.0000
     23 C18        0.1403    1.2934    6.4771 C.3       1 RES1    0.0000
     24 C19        4.7291   -2.8332    8.8272 C.3       1 RES1    0.0000
     25 C20        3.4856   -2.5166    9.6513 C.3       1 RES1    0.0000
     26 C21        4.4009   -3.2449    7.3917 C.3       1 RES1    0.0000
     27 C22        5.5099   -3.9693    9.5100 C.3       1 RES1    0.0000
     28 H1         4.3778    3.0974    7.2672 H         1 RES1    0.0000
     29 H2         7.3012    0.3068    8.3013 H         1 RES1    0.0000
     30 H3         8.3848    4.9084    5.2949 H         1 RES1    0.0000
     31 H4         9.4919    4.4730    9.2354 H         1 RES1    0.0000
     32 H5         5.4584    3.5922    5.2263 H         1 RES1    0.0000
     33 H6         6.8793    3.5230    4.2942 H         1 RES1    0.0000
     34 H7         6.2691    2.1969    5.0557 H         1 RES1    0.0000
     35 H8        10.1984    6.2147    6.1833 H         1 RES1    0.0000
     36 H9        10.0330    6.5610    7.5918 H         1 RES1    0.0000
     37 H10       11.1980    5.4230    7.1944 H         1 RES1    0.0000
     38 H11        6.7847    2.6224   10.3485 H         1 RES1    0.0000
     39 H12        8.1198    1.5636   10.0343 H         1 RES1    0.0000
     40 H13        8.2357    3.1271   10.7251 H         1 RES1    0.0000
     41 H14       -0.0518   -0.4453    8.5780 H         1 RES1    0.0000
     42 H15        1.4472   -0.2375    9.1896 H         1 RES1    0.0000
     43 H16        0.4038    0.9995    9.1480 H         1 RES1    0.0000
     44 H17        2.1001   -0.4552    5.6528 H         1 RES1    0.0000
     45 H18        2.1797   -1.3261    7.0405 H         1 RES1    0.0000
     46 H19        0.6998   -1.2271    6.2915 H         1 RES1    0.0000
     47 H20       -0.6113    0.6234    6.3601 H         1 RES1    0.0000
     48 H21       -0.2025    2.1573    6.9760 H         1 RES1    0.0000
     49 H22        0.4890    1.4943    5.5571 H         1 RES1    0.0000
     50 H23        2.9569   -3.4339    9.8700 H         1 RES1    0.0000
     51 H24        3.7706   -2.1969   10.5482 H         1 RES1    0.0000
     52 H25        2.9260   -1.8209    9.2208 H         1 RES1    0.0000
     53 H26        5.2868   -3.5824    6.9697 H         1 RES1    0.0000
     54 H27        3.7035   -3.9683    7.4004 H         1 RES1    0.0000
     55 H28        3.9626   -2.4839    6.9156 H         1 RES1    0.0000
     56 H29        6.4204   -4.1761    8.9046 H         1 RES1    0.0000
     57 H30        5.6527   -3.7803   10.4359 H         1 RES1    0.0000
     58 H31        4.7995   -4.8688    9.5329 H         1 RES1    0.0000
@<TRIPOS>BOND
     1    1    3 1
     2    2    4 1
     3    3    6 1
     4    4   10 1
     5    5    6 ar
     6    6    7 ar
     7    7    8 ar
     8    8    9 ar
     9    9   10 ar
    10   10    5 ar
    11   11    8 1
    12   12   11 ar
    13   13   12 ar
    14   14   13 ar
    15   15   14 ar
    16   16   11 ar
    17   17   12 1
    18   18   14 1
    19   19   16 1
    20   20    3 1
    21   21   20 1
    22   22   20 1
    23   23   20 1
    24   24    4 1
    25   25   24 1
    26   26   24 1
    27   27   24 1
    28   28    7 1
    29   29    9 1
    30   30   13 1
    31   31   15 1
    32   32   17 1
    33   33   17 1
    34   34   17 1
    35   35   18 1
    36   36   18 1
    37   37   18 1
    38   38   19 1
    39   39   19 1
    40   40   19 1
    41   41   21 1
    42   42   21 1
    43   43   21 1
    44   44   22 1
    45   45   22 1
    46   46   22 1
    47   47   23 1
    48   48   23 1
    49   49   23 1
    50   50   25 1
    51   51   25 1
    52   52   25 1
    53   53   26 1
    54   54   26 1
    55   55   26 1
    56   56   27 1
    57   57   27 1
    58   58   27 1
    59   15   16 ar
@<TRIPOS>SUBSTRUCTURE
     1 RES1 1

@<TRIPOS>CRYSIN
  10.0890    9.8960   21.0050  90.0000  97.9100  90.0000 231 1

