# MOL2 file generated by ConQuest
# Please check atom types

@<TRIPOS>MOLECULE
MUTGAL
    76    80     1
SMALL
NO_CHARGES
****
Generated from CSD

@<TRIPOS>ATOM
      1 N1         7.5401    4.1272    3.7220 N.3       1 RES1    0.0000
      2 C1         8.7976    4.4515    4.2228 C.ar      1 RES1    0.0000
      3 O1         6.8075    5.7324    0.2485 O.3       1 RES1    0.0000
      4 O2         5.1808    4.3042   -0.3276 O.2       1 RES1    0.0000
      5 C2         9.2781    5.7590    4.2238 C.ar      1 RES1    0.0000
      6 H1         8.7497    6.4427    3.8761 H         1 RES1    0.0000
      7 C3         6.7856    5.0950    2.9326 C.3       1 RES1    0.0000
      8 H2         7.4438    5.6123    2.4226 H         1 RES1    0.0000
      9 N2         4.2992    2.6447    1.5941 N.3       1 RES1    0.0000
     10 C4         6.9232    2.8559    4.0590 C.3       1 RES1    0.0000
     11 H3         7.0380    2.7217    5.0234 H         1 RES1    0.0000
     12 C5         9.6357    3.4718    4.7706 C.ar      1 RES1    0.0000
     13 H4         9.3476    2.5891    4.8088 H         1 RES1    0.0000
     14 C6         5.9143    4.3929    1.9192 C.2       1 RES1    0.0000
     15 C7         6.0066    6.0981    3.7782 C.ar      1 RES1    0.0000
     16 C8        10.8798    3.8059    5.2531 C.ar      1 RES1    0.0000
     17 H5        11.4231    3.1290    5.5895 H         1 RES1    0.0000
     18 C9        10.5178    6.0552    4.7272 C.ar      1 RES1    0.0000
     19 H6        10.8079    6.9392    4.7096 H         1 RES1    0.0000
     20 C10        5.1841    3.3283    2.3561 C.2       1 RES1    0.0000
     21 C11        6.1577    6.1960    5.1477 C.ar      1 RES1    0.0000
     22 H7         6.7040    5.5869    5.5908 H         1 RES1    0.0000
     23 C12        5.4174    2.9072    3.7807 C.3       1 RES1    0.0000
     24 H8         5.0255    2.0326    3.9326 H         1 RES1    0.0000
     25 H9         4.9937    3.5380    4.3832 H         1 RES1    0.0000
     26 C13        5.1533    6.9992    3.1481 C.ar      1 RES1    0.0000
     27 H10        5.0225    6.9378    2.2293 H         1 RES1    0.0000
     28 C14        5.9000    4.7809    0.5272 C.2       1 RES1    0.0000
     29 C15       11.3550    5.0947    5.2594 C.ar      1 RES1    0.0000
     30 C16        7.5248    1.6502    3.3602 C.ar      1 RES1    0.0000
     31 C17        3.7916    1.3344    1.8715 C.ar      1 RES1    0.0000
     32 C18        8.1550    1.7506    2.1351 C.ar      1 RES1    0.0000
     33 H11        8.2515    2.5828    1.7322 H         1 RES1    0.0000
     34 C19        4.7060    8.0605    5.2067 C.ar      1 RES1    0.0000
     35 C20        5.5187    7.1772    5.8694 C.ar      1 RES1    0.0000
     36 H12        5.6363    7.2405    6.7895 H         1 RES1    0.0000
     37 C21        7.4198    0.4115    3.9552 C.ar      1 RES1    0.0000
     38 H13        7.0095    0.3373    4.7862 H         1 RES1    0.0000
     39 C22        4.5042    7.9733    3.8548 C.ar      1 RES1    0.0000
     40 H14        3.9341    8.5680    3.4242 H         1 RES1    0.0000
     41 C23       12.7142    5.4523    5.8016 C.3       1 RES1    0.0000
     42 H15       13.3648    5.3940    5.0987 H         1 RES1    0.0000
     43 H16       12.9492    4.8426    6.5058 H         1 RES1    0.0000
     44 H17       12.6955    6.3470    6.1481 H         1 RES1    0.0000
     45 C24        6.8752    6.2143   -1.1159 C.3       1 RES1    0.0000
     46 H18        6.0879    6.7421   -1.3243 H         1 RES1    0.0000
     47 H19        6.9175    5.4676   -1.7335 H         1 RES1    0.0000
     48 C25        4.5343    0.2355    1.5715 C.ar      1 RES1    0.0000
     49 H20        5.4004    0.3455    1.2527 H         1 RES1    0.0000
     50 N3         4.0423    9.1361    5.9560 N.pl3     1 RES1    0.0000
     51 O3         9.7233   -1.6242    0.4569 O.2       1 RES1    0.0000
     52 C26        8.0764    7.0356   -1.2377 C.3       1 RES1    0.0000
     53 H21        8.0234    7.7725   -0.6251 H         1 RES1    0.0000
     54 H22        8.1452    7.3705   -2.1351 H         1 RES1    0.0000
     55 H23        8.8490    6.5039   -1.0343 H         1 RES1    0.0000
     56 C27        8.6427    0.6277    1.5050 C.ar      1 RES1    0.0000
     57 H24        9.0563    0.6907    0.6753 H         1 RES1    0.0000
     58 C28        7.9105   -0.7128    3.3464 C.ar      1 RES1    0.0000
     59 H25        7.8407   -1.5446    3.7544 H         1 RES1    0.0000
     60 O4         3.3555    9.9183    5.3749 O.2       1 RES1    0.0000
     61 C29        4.0371   -1.0198    1.7284 C.ar      1 RES1    0.0000
     62 H26        4.5711   -1.7484    1.5063 H         1 RES1    0.0000
     63 C30        2.7884   -1.2365    2.1966 C.ar      1 RES1    0.0000
     64 C31        2.0398   -0.1350    2.5318 C.ar      1 RES1    0.0000
     65 H27        1.1836   -0.2556    2.8745 H         1 RES1    0.0000
     66 C32        2.5304    1.1539    2.3711 C.ar      1 RES1    0.0000
     67 H28        2.0069    1.8877    2.6008 H         1 RES1    0.0000
     68 O5         4.2371    9.1886    7.1447 O.2       1 RES1    0.0000
     69 C33        2.2064   -2.6289    2.3171 C.3       1 RES1    0.0000
     70 H29        2.1184   -3.0160    1.4435 H         1 RES1    0.0000
     71 H30        1.3428   -2.5801    2.7339 H         1 RES1    0.0000
     72 H31        2.7889   -3.1737    2.8519 H         1 RES1    0.0000
     73 C34        8.5053   -0.5802    2.1238 C.ar      1 RES1    0.0000
     74 N4         9.0434   -1.7899    1.4498 N.pl3     1 RES1    0.0000
     75 O6         8.8771   -2.8138    1.9569 O.2       1 RES1    0.0000
     76 H32        4.2833    2.9916    0.7531 H         1 RES1    0.0000
@<TRIPOS>BOND
     1    1    2 1
     2    2    5 ar
     3    3   28 1
     4    4   28 2
     5    5    6 1
     6    7    1 1
     7    8    7 1
     8    9   20 1
     9   10    1 1
    10   11   10 1
    11   12    2 ar
    12   13   12 1
    13   14    7 1
    14   15    7 1
    15   16   12 ar
    16   17   16 1
    17   18    5 ar
    18   19   18 1
    19   20   14 2
    20   21   15 ar
    21   22   21 1
    22   23   10 1
    23   24   23 1
    24   25   23 1
    25   26   15 ar
    26   27   26 1
    27   28   14 1
    28   29   16 ar
    29   30   10 1
    30   31    9 1
    31   32   30 ar
    32   33   32 1
    33   34   35 ar
    34   35   21 ar
    35   36   35 1
    36   37   30 ar
    37   38   37 1
    38   39   26 ar
    39   40   39 1
    40   41   29 1
    41   42   41 1
    42   43   41 1
    43   44   41 1
    44   45    3 1
    45   46   45 1
    46   47   45 1
    47   48   31 ar
    48   49   48 1
    49   50   34 1
    50   51   74 2
    51   52   45 1
    52   53   52 1
    53   54   52 1
    54   55   52 1
    55   56   32 ar
    56   57   56 1
    57   58   37 ar
    58   59   58 1
    59   60   50 2
    60   61   48 ar
    61   62   61 1
    62   63   61 ar
    63   64   63 ar
    64   65   64 1
    65   66   31 ar
    66   67   66 1
    67   68   50 2
    68   69   63 1
    69   70   69 1
    70   71   69 1
    71   72   69 1
    72   73   56 ar
    73   74   73 1
    74   75   74 2
    75   76    9 1
    76   18   29 ar
    77   20   23 1
    78   34   39 ar
    79   58   73 ar
    80   64   66 ar
@<TRIPOS>SUBSTRUCTURE
     1 RES1 1

@<TRIPOS>CRYSIN
  10.4395   11.9493   13.8651 108.9580 103.0890  97.8850   2 1

