# MOL2 file generated by ConQuest
# Please check atom types

@<TRIPOS>MOLECULE
MUTMUK
    59    62     1
SMALL
NO_CHARGES
****
Generated from CSD

@<TRIPOS>ATOM
      1 C1         7.8969    0.9080    3.8216 C.3       1 RES1    0.0000
      2 C2         6.3690    0.8168    3.7630 C.3       1 RES1    0.0000
      3 C3         5.6750    2.1242    3.5940 C.2       1 RES1    0.0000
      4 C4         6.4949    3.3127    3.1899 C.3       1 RES1    0.0000
      5 C5         7.5109    2.7974    2.1460 C.3       1 RES1    0.0000
      6 C6         6.8239    2.2557    0.9005 C.ar      1 RES1    0.0000
      7 C7         6.0557    3.1251    0.1380 C.ar      1 RES1    0.0000
      8 H1         5.9684    4.0127    0.4007 H         1 RES1    0.0000
      9 C8         5.4186    2.6855   -1.0085 C.ar      1 RES1    0.0000
     10 H2         4.9069    3.2792   -1.5084 H         1 RES1    0.0000
     11 C9         5.5370    1.3798   -1.4129 C.ar      1 RES1    0.0000
     12 H3         5.1085    1.0890   -2.1855 H         1 RES1    0.0000
     13 C10        6.2887    0.5109   -0.6743 C.ar      1 RES1    0.0000
     14 H4         6.3660   -0.3763   -0.9424 H         1 RES1    0.0000
     15 C11        6.9357    0.9445    0.4713 C.ar      1 RES1    0.0000
     16 H5         7.4533    0.3458    0.9590 H         1 RES1    0.0000
     17 C12        8.4883   -0.4889    3.7411 C.ar      1 RES1    0.0000
     18 C13        9.3276   -0.9320    2.7388 C.ar      1 RES1    0.0000
     19 H6         9.5573   -0.3562    2.0457 H         1 RES1    0.0000
     20 C14        9.8309   -2.2184    2.7503 C.ar      1 RES1    0.0000
     21 H7        10.3946   -2.5000    2.0668 H         1 RES1    0.0000
     22 C15        9.5057   -3.0790    3.7598 C.ar      1 RES1    0.0000
     23 H8         9.8526   -3.9422    3.7728 H         1 RES1    0.0000
     24 C16        8.6576   -2.6532    4.7583 C.ar      1 RES1    0.0000
     25 H9         8.4210   -3.2371    5.4422 H         1 RES1    0.0000
     26 C17        8.1594   -1.3751    4.7511 C.ar      1 RES1    0.0000
     27 H10        7.5925   -1.1003    5.4355 H         1 RES1    0.0000
     28 C18        9.7537    2.1459    2.9207 C.2       1 RES1    0.0000
     29 C19       10.4018    3.0243    1.8999 C.ar      1 RES1    0.0000
     30 C20       10.2641    2.8043    0.5409 C.ar      1 RES1    0.0000
     31 H11        9.6931    2.1374    0.2353 H         1 RES1    0.0000
     32 C21       10.9730    3.5719   -0.3627 C.ar      1 RES1    0.0000
     33 H12       10.8931    3.4099   -1.2754 H         1 RES1    0.0000
     34 C22       11.7953    4.5750    0.0889 C.ar      1 RES1    0.0000
     35 H13       12.2587    5.1022   -0.5206 H         1 RES1    0.0000
     36 C23       11.9350    4.8017    1.4316 C.ar      1 RES1    0.0000
     37 H14       12.4887    5.4858    1.7316 H         1 RES1    0.0000
     38 C24       11.2588    4.0187    2.3378 C.ar      1 RES1    0.0000
     39 H15       11.3781    4.1582    3.2500 H         1 RES1    0.0000
     40 C25        7.1498    4.0885    4.3463 C.3       1 RES1    0.0000
     41 C26        6.1464    4.3932    5.4444 C.3       1 RES1    0.0000
     42 H16        6.5631    4.9367    6.1170 H         1 RES1    0.0000
     43 H17        5.8450    3.5720    5.8395 H         1 RES1    0.0000
     44 H18        5.3972    4.8639    5.0726 H         1 RES1    0.0000
     45 C27        7.7731    5.3821    3.8494 C.3       1 RES1    0.0000
     46 H19        7.1024    5.9148    3.4154 H         1 RES1    0.0000
     47 H20        8.4748    5.1806    3.2256 H         1 RES1    0.0000
     48 H21        8.1367    5.8689    4.5931 H         1 RES1    0.0000
     49 N1         8.4343    1.8374    2.7950 N.am      1 RES1    0.0000
     50 N2         4.4127    2.2801    3.6449 N.2       1 RES1    0.0000
     51 O1        10.4247    1.6630    3.8284 O.2       1 RES1    0.0000
     52 O2         3.7694    1.0626    3.9345 O.3       1 RES1    0.0000
     53 H22        2.9589    1.1818    3.9637 H         1 RES1    0.0000
     54 H23        6.0738    0.3963    4.5575 H         1 RES1    0.0000
     55 H24        5.8729    3.9673    2.7427 H         1 RES1    0.0000
     56 H25        8.0679    3.5524    1.8980 H         1 RES1    0.0000
     57 H26        7.8859    3.5125    4.7629 H         1 RES1    0.0000
     58 H27        6.0982    0.2291    3.0369 H         1 RES1    0.0000
     59 H28        8.1717    1.2931    4.6818 H         1 RES1    0.0000
@<TRIPOS>BOND
     1    1    2 1
     2    2    3 1
     3    3    4 1
     4    4    5 1
     5    5    6 1
     6    6    7 ar
     7    7    8 1
     8    9    7 ar
     9   10    9 1
    10   11    9 ar
    11   12   11 1
    12   13   11 ar
    13   14   13 1
    14   15    6 ar
    15   16   15 1
    16   17    1 1
    17   18   17 ar
    18   19   18 1
    19   20   18 ar
    20   21   20 1
    21   22   20 ar
    22   23   22 1
    23   24   22 ar
    24   25   24 1
    25   26   17 ar
    26   27   26 1
    27   28   29 1
    28   29   30 ar
    29   30   31 1
    30   32   30 ar
    31   33   32 1
    32   34   32 ar
    33   35   34 1
    34   36   34 ar
    35   37   36 1
    36   38   29 ar
    37   39   38 1
    38   40    4 1
    39   41   40 1
    40   42   41 1
    41   43   41 1
    42   44   41 1
    43   45   40 1
    44   46   45 1
    45   47   45 1
    46   48   45 1
    47   49    1 1
    48   50    3 2
    49   51   28 2
    50   52   50 1
    51   53   52 1
    52   54    2 1
    53   55    4 1
    54   56    5 1
    55   57   40 1
    56   58    2 1
    57   59    1 1
    58    5   49 1
    59   13   15 ar
    60   24   26 ar
    61   28   49 1
    62   36   38 ar
@<TRIPOS>SUBSTRUCTURE
     1 RES1 1

@<TRIPOS>CRYSIN
   9.2961   11.0213   11.3398  78.4360  85.8980  81.2180   2 1

