# MOL2 file generated by ConQuest
# Please check atom types

@<TRIPOS>MOLECULE
MUTSAW01
    23    23     1
SMALL
NO_CHARGES
****
Generated from CSD

@<TRIPOS>ATOM
      1 C1         4.4153    5.8100    9.4831 C.3       1 RES1    0.0000
      2 H1         4.1997    6.7064    9.1831 H         1 RES1    0.0000
      3 H2         5.3669    5.6721    9.3525 H         1 RES1    0.0000
      4 C2         4.0927    5.6875   10.9493 C.3       1 RES1    0.0000
      5 H3         4.2782    4.7797   11.2373 H         1 RES1    0.0000
      6 H4         4.6752    6.2803   11.4494 H         1 RES1    0.0000
      7 C3         2.2960    7.3750   11.5559 C.3       1 RES1    0.0000
      8 H5         2.3671    7.9352   10.7677 H         1 RES1    0.0000
      9 H6         2.8331    7.7591   12.2670 H         1 RES1    0.0000
     10 C4         0.8584    7.2262   11.9850 C.3       1 RES1    0.0000
     11 H7         0.2632    7.7034   11.3860 H         1 RES1    0.0000
     12 H8         0.7275    7.5535   12.8892 H         1 RES1    0.0000
     13 C5         1.7078    5.1507   11.4818 C.2       1 RES1    0.0000
     14 C6         1.8129    3.7633   11.2686 C.2       1 RES1    0.0000
     15 H9         2.6271    3.4160   10.9824 H         1 RES1    0.0000
     16 N1         2.7119    6.0079   11.2654 N.pl3     1 RES1    0.0000
     17 N2         0.6379    5.7996   11.9102 N.pl3     1 RES1    0.0000
     18 H10       -0.1033    5.4167   12.1208 H         1 RES1    0.0000
     19 N3         0.7865    2.9232   11.4617 N.pl3     1 RES1    0.0000
     20 O1         3.6991    4.8743    8.7046 O.3       1 RES1    0.0000
     21 H11        2.9648    5.1841    8.5117 H         1 RES1    0.0000
     22 O2        -0.3483    3.3297   11.8621 O.2       1 RES1    0.0000
     23 O3         0.9445    1.6860   11.2218 O.2       1 RES1    0.0000
@<TRIPOS>BOND
     1    1    2 1
     2    3    1 1
     3    4    1 1
     4    5    4 1
     5    6    4 1
     6    7    8 1
     7    9    7 1
     8   10    7 1
     9   11   10 1
    10   12   10 1
    11   13   14 2
    12   14   15 1
    13   16    4 1
    14   17   10 1
    15   18   17 1
    16   19   14 1
    17   20    1 1
    18   21   20 1
    19   22   19 2
    20   23   19 2
    21    7   16 1
    22   13   16 1
    23   13   17 1
@<TRIPOS>SUBSTRUCTURE
     1 RES1 1

@<TRIPOS>CRYSIN
   6.9422    8.7142   12.9698  90.0000  94.1530  90.0000 231 1

