# MOL2 file generated by ConQuest
# Please check atom types

@<TRIPOS>MOLECULE
MUTTUS
    62    65     1
SMALL
NO_CHARGES
****
Generated from CSD

@<TRIPOS>ATOM
      1 C1         8.4676   -0.8806    3.6418 C.3       1 RES1    0.0000
      2 H1         9.3158   -1.2340    3.9823 H         1 RES1    0.0000
      3 C2         7.7353   -0.1820    4.8111 C.3       1 RES1    0.0000
      4 H2         6.9067    0.1932    4.4468 H         1 RES1    0.0000
      5 C3         8.5914    0.9761    5.2384 C.2       1 RES1    0.0000
      6 C4         8.8676    1.9459    4.1436 C.3       1 RES1    0.0000
      7 H3         9.4320    2.6623    4.4741 H         1 RES1    0.0000
      8 H4         8.0350    2.3350    3.8313 H         1 RES1    0.0000
      9 C5         9.5678    1.2224    2.9895 C.3       1 RES1    0.0000
     10 H5        10.4360    0.8984    3.3070 H         1 RES1    0.0000
     11 C6         7.6582   -2.0412    3.0999 C.ar      1 RES1    0.0000
     12 C7         8.1789   -3.3171    3.0595 C.ar      1 RES1    0.0000
     13 H6         9.0312   -3.4791    3.3951 H         1 RES1    0.0000
     14 C8         7.4373   -4.3672    2.5207 C.ar      1 RES1    0.0000
     15 H7         7.8074   -5.2189    2.4756 H         1 RES1    0.0000
     16 C9         6.1843   -4.1526    2.0614 C.ar      1 RES1    0.0000
     17 H8         5.6879   -4.8591    1.7143 H         1 RES1    0.0000
     18 C10        5.6523   -2.9086    2.1075 C.ar      1 RES1    0.0000
     19 H9         4.7874   -2.7644    1.7961 H         1 RES1    0.0000
     20 C11        6.3821   -1.8514    2.6121 C.ar      1 RES1    0.0000
     21 H10        6.0085   -1.0000    2.6234 H         1 RES1    0.0000
     22 C12        7.3366   -1.1303    5.9379 C.3       1 RES1    0.0000
     23 H11        6.9689   -1.9404    5.5509 H         1 RES1    0.0000
     24 H12        8.1311   -1.3758    6.4369 H         1 RES1    0.0000
     25 C13        6.3205   -0.5372    6.8930 C.3       1 RES1    0.0000
     26 H13        6.7068    0.2174    7.3439 H         1 RES1    0.0000
     27 H14        6.0647   -1.1996    7.5399 H         1 RES1    0.0000
     28 H15        5.5461   -0.2539    6.4012 H         1 RES1    0.0000
     29 C14       10.1721    2.3801    7.9140 C.2       1 RES1    0.0000
     30 C15       10.9500    3.6354    8.0375 C.ar      1 RES1    0.0000
     31 C16       11.1356    4.1556    9.3027 C.ar      1 RES1    0.0000
     32 H16       10.7896    3.7130   10.0438 H         1 RES1    0.0000
     33 C17       11.8322    5.3300    9.4650 C.ar      1 RES1    0.0000
     34 H17       11.9505    5.6842   10.3164 H         1 RES1    0.0000
     35 C18       12.3483    5.9729    8.3861 C.ar      1 RES1    0.0000
     36 H18       12.8197    6.7642    8.5130 H         1 RES1    0.0000
     37 C19       12.1880    5.4799    7.1059 C.ar      1 RES1    0.0000
     38 C20       11.4702    4.3005    6.9507 C.ar      1 RES1    0.0000
     39 H19       11.3391    3.9540    6.0972 H         1 RES1    0.0000
     40 C21       12.7550    6.1824    5.9042 C.3       1 RES1    0.0000
     41 H20       12.0970    6.7794    5.5415 H         1 RES1    0.0000
     42 H21       12.9998    5.5336    5.2395 H         1 RES1    0.0000
     43 H22       13.5327    6.6825    6.1632 H         1 RES1    0.0000
     44 C22        9.8060    2.2109    1.8676 C.ar      1 RES1    0.0000
     45 C23       11.0796    2.6730    1.5902 C.ar      1 RES1    0.0000
     46 H23       11.8037    2.3446    2.0729 H         1 RES1    0.0000
     47 C24       11.2893    3.6158    0.6050 C.ar      1 RES1    0.0000
     48 H24       12.1521    3.9125    0.4278 H         1 RES1    0.0000
     49 C25       10.2400    4.1178   -0.1132 C.ar      1 RES1    0.0000
     50 H25       10.3863    4.7562   -0.7738 H         1 RES1    0.0000
     51 C26        8.9676    3.6702    0.1500 C.ar      1 RES1    0.0000
     52 H26        8.2499    4.0063   -0.3366 H         1 RES1    0.0000
     53 C27        8.7464    2.7220    1.1334 C.ar      1 RES1    0.0000
     54 H27        7.8807    2.4257    1.3033 H         1 RES1    0.0000
     55 C28        9.5053   -0.6285    1.4839 C.3       1 RES1    0.0000
     56 H28        9.7130   -0.0100    0.7801 H         1 RES1    0.0000
     57 H29        8.9641   -1.3406    1.1356 H         1 RES1    0.0000
     58 H30       10.3193   -0.9911    1.8412 H         1 RES1    0.0000
     59 N1         8.7732    0.0680    2.5464 N.3       1 RES1    0.0000
     60 N2         9.0470    0.9697    6.4281 N.2       1 RES1    0.0000
     61 O1         9.8719    2.1461    6.6176 O.3       1 RES1    0.0000
     62 O2         9.8306    1.6852    8.8153 O.2       1 RES1    0.0000
@<TRIPOS>BOND
     1    1    2 1
     2    3    1 1
     3    4    3 1
     4    5    3 1
     5    6    5 1
     6    7    6 1
     7    8    6 1
     8    9    6 1
     9   10    9 1
    10   11    1 1
    11   12   11 ar
    12   13   12 1
    13   14   12 ar
    14   15   14 1
    15   16   14 ar
    16   17   16 1
    17   18   16 ar
    18   19   18 1
    19   20   11 ar
    20   21   20 1
    21   22    3 1
    22   23   22 1
    23   24   22 1
    24   25   22 1
    25   26   25 1
    26   27   25 1
    27   28   25 1
    28   29   30 1
    29   30   31 ar
    30   31   32 1
    31   33   31 ar
    32   34   33 1
    33   35   33 ar
    34   36   35 1
    35   37   35 ar
    36   38   30 ar
    37   39   38 1
    38   40   37 1
    39   41   40 1
    40   42   40 1
    41   43   40 1
    42   44    9 1
    43   45   44 ar
    44   46   45 1
    45   47   45 ar
    46   48   47 1
    47   49   47 ar
    48   50   49 1
    49   51   49 ar
    50   52   51 1
    51   53   44 ar
    52   54   53 1
    53   55   56 1
    54   57   55 1
    55   58   55 1
    56   59    1 1
    57   60    5 2
    58   61   29 1
    59   62   29 2
    60    9   59 1
    61   18   20 ar
    62   37   38 ar
    63   51   53 ar
    64   55   59 1
    65   60   61 1
@<TRIPOS>SUBSTRUCTURE
     1 RES1 1

@<TRIPOS>CRYSIN
  10.5220   11.8295   11.9870 112.8710  97.9390 110.1230   2 1

