# MOL2 file generated by ConQuest
# Please check atom types

@<TRIPOS>MOLECULE
MUVGIU
    75    54     2
SMALL
NO_CHARGES
****
Generated from CSD

@<TRIPOS>ATOM
      1 O1         6.3568   14.5075   13.2865 O.2       1 RES1    0.0000
      2 O2         6.9530   16.8560   14.4586 O.2       1 RES1    0.0000
      3 O3         4.7742   16.9908   15.0212 O.3       1 RES1    0.0000
      4 O4         1.5758   15.1341    9.1204 O.2       1 RES1    0.0000
      5 O5         3.5868   14.5134    8.9743 O.2       1 RES1    0.0000
      6 N1         2.5998   14.7632    9.6216 N.pl3     1 RES1    0.0000
      7 C1         5.4460   15.2262   13.6128 C.2       1 RES1    0.0000
      8 C2         4.0090   14.9148   13.2208 C.3       1 RES1    0.0000
      9 H1         3.4184   15.5691   13.6503 H         1 RES1    0.0000
     10 C3         3.9359   15.1143   11.6811 C.3       1 RES1    0.0000
     11 H2         4.6814   14.6280   11.2712 H         1 RES1    0.0000
     12 C4         2.6502   14.5795   11.1115 C.3       1 RES1    0.0000
     13 H3         2.5721   13.6352   11.3237 H         1 RES1    0.0000
     14 H4         1.9010   15.0405   11.5182 H         1 RES1    0.0000
     15 C5         5.8104   16.4705   14.4115 C.2       1 RES1    0.0000
     16 C6         4.8959   18.1376   15.9726 C.3       1 RES1    0.0000
     17 C7         3.4719   18.3440   16.3971 C.3       1 RES1    0.0000
     18 H5         3.4344   19.0297   17.0682 H         1 RES1    0.0000
     19 H6         3.1234   17.5262   16.7570 H         1 RES1    0.0000
     20 H7         2.9470   18.6083   15.6384 H         1 RES1    0.0000
     21 C8         5.4798   19.3243   15.2630 C.3       1 RES1    0.0000
     22 H8         6.3808   19.1261   14.9984 H         1 RES1    0.0000
     23 H9         5.4792   20.0814   15.8524 H         1 RES1    0.0000
     24 H10        4.9531   19.5225   14.4868 H         1 RES1    0.0000
     25 C9         5.7619   17.6672   17.1402 C.3       1 RES1    0.0000
     26 H11        6.6543   17.4976   16.8290 H         1 RES1    0.0000
     27 H12        5.3937   16.8601   17.5079 H         1 RES1    0.0000
     28 H13        5.7821   18.3458   17.8172 H         1 RES1    0.0000
     29 C10        3.6446   13.5100   13.7345 C.3       1 RES1    0.0000
     30 H14        2.7423   13.2870   13.4577 H         1 RES1    0.0000
     31 H15        4.2493   12.8567   13.3507 H         1 RES1    0.0000
     32 C11        4.1147   16.6128   11.3879 C.ar      1 RES1    0.0000
     33 C12        5.2714   17.1280   10.8140 C.ar      1 RES1    0.0000
     34 H16        5.9505   16.5530   10.5417 H         1 RES1    0.0000
     35 C13        5.4134   18.5011   10.6487 C.ar      1 RES1    0.0000
     36 H17        6.1878   18.8458   10.2655 H         1 RES1    0.0000
     37 C14        4.3987   19.3584   11.0572 C.ar      1 RES1    0.0000
     38 H18        4.4939   20.2761   10.9463 H         1 RES1    0.0000
     39 C15        3.2420   18.8440   11.6291 C.ar      1 RES1    0.0000
     40 H19        2.5629   19.4172   11.9034 H         1 RES1    0.0000
     41 C16        3.0994   17.4708   11.7945 C.ar      1 RES1    0.0000
     42 H20        2.3256   17.1262   12.1777 H         1 RES1    0.0000
     43 C17        3.6765   13.5138   15.2377 C.ar      1 RES1    0.0000
     44 C18        4.8221   12.9477   15.7863 C.ar      1 RES1    0.0000
     45 H21        5.4564   12.5531   15.2319 H         1 RES1    0.0000
     46 C19        5.0194   12.9727   17.1616 C.ar      1 RES1    0.0000
     47 H22        5.7858   12.5942   17.5293 H         1 RES1    0.0000
     48 C20        4.0686   13.5620   17.9903 C.ar      1 RES1    0.0000
     49 H23        4.2039   13.5799   18.9105 H         1 RES1    0.0000
     50 C21        2.9255   14.1281   17.4417 C.ar      1 RES1    0.0000
     51 H24        2.2925   14.5245   17.9962 H         1 RES1    0.0000
     52 C22        2.7288   14.1031   16.0664 C.ar      1 RES1    0.0000
     53 H25        1.9630   14.4816   15.6987 H         1 RES1    0.0000
     54 C23        3.7404   13.4620   15.2649 Du        2 SUP2    0.0000
     55 C24        4.8209   13.0835   16.0547 Du        2 SUP2    0.0000
     56 C25        4.7533   13.2174   17.4359 Du        2 SUP2    0.0000
     57 C26        3.6016   13.7281   18.0292 Du        2 SUP2    0.0000
     58 C27        2.5260   14.1048   17.2414 Du        2 SUP2    0.0000
     59 C28        2.5918   13.9727   15.8582 Du        2 SUP2    0.0000
     60 C29        4.1854   16.5387   11.3782 Du        2 SUP2    0.0000
     61 C30        5.3593   16.7369   10.6526 Du        2 SUP2    0.0000
     62 C31        5.7778   18.0261   10.3510 Du        2 SUP2    0.0000
     63 C32        5.0274   19.1190   10.7751 Du        2 SUP2    0.0000
     64 C33        3.8597   18.9207   11.5007 Du        2 SUP2    0.0000
     65 C34        3.4418   17.6315   11.8023 Du        2 SUP2    0.0000
     66 H26        5.5898   12.7424   15.6559 Du        2 SUP2    0.0000
     67 H27        5.4761   12.9638   17.9631 Du        2 SUP2    0.0000
     68 H28        3.5591   13.8174   18.9533 Du        2 SUP2    0.0000
     69 H29        1.7553   14.4459   17.6382 Du        2 SUP2    0.0000
     70 H30        1.8690   14.2245   15.3311 Du        2 SUP2    0.0000
     71 H31        5.8571   16.0066   10.3686 Du        2 SUP2    0.0000
     72 H32        6.5596   18.1601    9.8647 Du        2 SUP2    0.0000
     73 H33        5.3114   19.9814   10.5728 Du        2 SUP2    0.0000
     74 H34        3.3606   19.6511   11.7847 Du        2 SUP2    0.0000
     75 H35        2.6588   17.4976   12.2886 Du        2 SUP2    0.0000
@<TRIPOS>BOND
     1    1    7 2
     2    2   15 2
     3    3   15 1
     4    4    6 2
     5    5    6 2
     6    6   12 1
     7    7    8 1
     8    8    9 1
     9   10    8 1
    10   11   10 1
    11   12   10 1
    12   13   12 1
    13   14   12 1
    14   15    7 1
    15   16    3 1
    16   17   16 1
    17   18   17 1
    18   19   17 1
    19   20   17 1
    20   21   16 1
    21   22   21 1
    22   23   21 1
    23   24   21 1
    24   25   16 1
    25   26   25 1
    26   27   25 1
    27   28   25 1
    28   29    8 1
    29   30   29 1
    30   31   29 1
    31   32   10 1
    32   33   32 ar
    33   34   33 1
    34   35   33 ar
    35   36   35 1
    36   37   35 ar
    37   38   37 1
    38   39   37 ar
    39   40   39 1
    40   41   32 ar
    41   42   41 1
    42   43   29 1
    43   44   43 ar
    44   45   44 1
    45   46   44 ar
    46   47   46 1
    47   48   46 ar
    48   49   48 1
    49   50   48 ar
    50   51   50 1
    51   52   43 ar
    52   53   52 1
    53   39   41 ar
    54   50   52 ar
@<TRIPOS>SUBSTRUCTURE
     1 RES1 1
     2 SUP2 54

@<TRIPOS>CRYSIN
   6.1460   17.8565   19.4532  90.0000  90.0000  90.0000  19 1

