# MOL2 file generated by ConQuest
# Please check atom types

@<TRIPOS>MOLECULE
MUVNUM
    47    50     1
SMALL
NO_CHARGES
****
Generated from CSD

@<TRIPOS>ATOM
      1 C1         0.5637    7.6538   12.9422 C.ar      1 RES1    0.0000
      2 C2         0.4460    6.3021   12.6267 C.ar      1 RES1    0.0000
      3 C3         1.4543    5.6871   11.9100 C.ar      1 RES1    0.0000
      4 O1         1.4797    4.3910   11.5130 O.3       1 RES1    0.0000
      5 C4         2.5253    6.4653   11.5517 C.ar      1 RES1    0.0000
      6 C5         2.6923    7.8075   11.8571 C.ar      1 RES1    0.0000
      7 C6         3.9352    8.5372   11.4275 C.3       1 RES1    0.0000
      8 C7         3.8070   10.0580   11.4865 C.3       1 RES1    0.0000
      9 C8         3.1552   10.4424   12.8180 C.3       1 RES1    0.0000
     10 C9         1.7101    9.9220   12.8445 C.3       1 RES1    0.0000
     11 C10        1.6614    8.4213   12.5737 C.ar      1 RES1    0.0000
     12 C11        0.9611   10.3548   14.0945 C.3       1 RES1    0.0000
     13 C12        0.9970   11.8816   14.3144 C.3       1 RES1    0.0000
     14 C13        2.4365   12.3594   14.3205 C.3       1 RES1    0.0000
     15 C14        3.0840   11.9667   12.9951 C.3       1 RES1    0.0000
     16 C15        4.3495   12.8206   12.9178 C.3       1 RES1    0.0000
     17 C16        3.8577   14.1770   13.4593 C.3       1 RES1    0.0000
     18 C17        2.6542   13.8613   14.3266 C.2       1 RES1    0.0000
     19 O2         1.9715   14.6796   14.9069 O.2       1 RES1    0.0000
     20 C18        3.2045   11.8887   15.5604 C.3       1 RES1    0.0000
     21 C19        0.3312    3.5868   11.8286 C.3       1 RES1    0.0000
     22 N1         3.5857    5.7782   10.7964 N.pl3     1 RES1    0.0000
     23 O3         3.4384    5.6599    9.5809 O.2       1 RES1    0.0000
     24 O4         4.5433    5.3666   11.3807 O.2       1 RES1    0.0000
     25 H1        -0.2861    8.0653   13.4797 H         1 RES1    0.0000
     26 H2        -0.4516    5.8621   12.8852 H         1 RES1    0.0000
     27 H3         4.9336    8.0310   11.8591 H         1 RES1    0.0000
     28 H4         4.2945    8.1150   10.5969 H         1 RES1    0.0000
     29 H5         4.8272   10.4069   11.6718 H         1 RES1    0.0000
     30 H6         3.1179   10.4152   10.6661 H         1 RES1    0.0000
     31 H7         3.8055    9.9977   13.5632 H         1 RES1    0.0000
     32 H8         1.1464   10.3655   12.0973 H         1 RES1    0.0000
     33 H9         1.5487    9.9445   14.9415 H         1 RES1    0.0000
     34 H10        0.1113   10.1053   14.2004 H         1 RES1    0.0000
     35 H11        0.5334   12.4906   13.4654 H         1 RES1    0.0000
     36 H12        0.4841   12.0826   15.0982 H         1 RES1    0.0000
     37 H13        2.4147   12.3475   12.2297 H         1 RES1    0.0000
     38 H14        5.0358   12.3676   13.6935 H         1 RES1    0.0000
     39 H15        4.9456   12.7579   12.2826 H         1 RES1    0.0000
     40 H16        4.6835   14.4419   13.8380 H         1 RES1    0.0000
     41 H17        3.4631   14.8026   12.6837 H         1 RES1    0.0000
     42 H18        3.6047   10.8586   15.6255 H         1 RES1    0.0000
     43 H19        3.9916   12.1276   15.7619 H         1 RES1    0.0000
     44 H20        2.5887   11.9998   16.3992 H         1 RES1    0.0000
     45 H21        0.5538    2.6467   11.5028 H         1 RES1    0.0000
     46 H22       -0.5228    3.7666   11.3196 H         1 RES1    0.0000
     47 H23        0.1504    3.7594   12.9249 H         1 RES1    0.0000
@<TRIPOS>BOND
     1    1    2 ar
     2    2    3 ar
     3    3    4 1
     4    4   21 1
     5    5    3 ar
     6    6    5 ar
     7    7    6 1
     8    8    7 1
     9    9    8 1
    10   10    9 1
    11   11    1 ar
    12   12   10 1
    13   13   12 1
    14   14   13 1
    15   15    9 1
    16   16   15 1
    17   17   16 1
    18   18   14 1
    19   19   18 2
    20   20   14 1
    21   21   45 1
    22   22    5 1
    23   23   22 2
    24   24   22 2
    25   25    1 1
    26   26    2 1
    27   27    7 1
    28   28    7 1
    29   29    8 1
    30   30    8 1
    31   31    9 1
    32   32   10 1
    33   33   12 1
    34   34   12 1
    35   35   13 1
    36   36   13 1
    37   37   15 1
    38   38   16 1
    39   39   16 1
    40   40   17 1
    41   41   17 1
    42   42   20 1
    43   43   20 1
    44   44   20 1
    45   46   21 1
    46   47   21 1
    47    6   11 ar
    48   10   11 1
    49   14   15 1
    50   17   18 1
@<TRIPOS>SUBSTRUCTURE
     1 RES1 1

@<TRIPOS>CRYSIN
   7.0460   11.8260   20.3590  90.0000  90.0000  90.0000  19 1

