# MOL2 file generated by ConQuest
# Please check atom types

@<TRIPOS>MOLECULE
MUWCEO
    53    56     1
SMALL
NO_CHARGES
****
Generated from CSD

@<TRIPOS>ATOM
      1 O1         7.1608    4.3470   24.5660 O.3       1 RES1    0.0000
      2 O2         0.2170    8.9735   29.7246 O.3       1 RES1    0.0000
      3 O3         2.0852    6.8268   29.8553 O.3       1 RES1    0.0000
      4 H1         2.5646    6.1950   29.6443 H         1 RES1    0.0000
      5 N1        -1.1405    8.9543   29.9256 N.pl3     1 RES1    0.0000
      6 N2         6.4019    5.6631   26.7924 N.3       1 RES1    0.0000
      7 N3         3.7777    6.4543   27.6309 N.3       1 RES1    0.0000
      8 N4        -1.7309    7.9128   30.4998 N.2       1 RES1    0.0000
      9 N5        -2.9632    8.2367   30.7397 N.2       1 RES1    0.0000
     10 C1         7.6736    5.0323   26.7618 C.ar      1 RES1    0.0000
     11 C2         2.0246    7.7503   28.7814 C.3       1 RES1    0.0000
     12 H2         2.5787    8.5325   28.9824 H         1 RES1    0.0000
     13 C3         8.0722    4.3561   25.5873 C.ar      1 RES1    0.0000
     14 C4         2.4909    7.1104   27.4832 C.3       1 RES1    0.0000
     15 H3         1.8329    6.4604   27.1953 H         1 RES1    0.0000
     16 H4         2.5585    7.7937   26.7982 H         1 RES1    0.0000
     17 C5        -3.1631    9.5205   30.3277 C.ar      1 RES1    0.0000
     18 C6        -1.9863   10.0080   29.7916 C.ar      1 RES1    0.0000
     19 C7         5.2735    4.7133   26.7878 C.3       1 RES1    0.0000
     20 H5         5.2462    4.2359   27.6338 H         1 RES1    0.0000
     21 H6         5.3976    4.0644   26.0784 H         1 RES1    0.0000
     22 C8         0.5864    8.1762   28.5840 C.3       1 RES1    0.0000
     23 H7         0.4986    8.6949   27.7703 H         1 RES1    0.0000
     24 H8         0.0121    7.3980   28.5191 H         1 RES1    0.0000
     25 C9         8.5859    5.0706   27.8063 C.ar      1 RES1    0.0000
     26 H9         8.3518    5.5127   28.5894 H         1 RES1    0.0000
     27 C10        3.9745    5.4521   26.5794 C.3       1 RES1    0.0000
     28 H10        3.9846    5.8881   25.7143 H         1 RES1    0.0000
     29 H11        3.2378    4.8213   26.5914 H         1 RES1    0.0000
     30 C11        6.2091    6.6562   27.8266 C.3       1 RES1    0.0000
     31 H12        6.9418    7.2920   27.8076 H         1 RES1    0.0000
     32 H13        6.2030    6.2252   28.6970 H         1 RES1    0.0000
     33 C12        4.9011    7.3788   27.6073 C.3       1 RES1    0.0000
     34 H14        4.7830    8.0480   28.2998 H         1 RES1    0.0000
     35 H15        4.9253    7.8350   26.7527 H         1 RES1    0.0000
     36 C13        9.3167    3.7838   25.5096 C.ar      1 RES1    0.0000
     37 H16        9.5750    3.3609   24.7215 H         1 RES1    0.0000
     38 C14       -4.2995   10.3592   30.4237 C.ar      1 RES1    0.0000
     39 H17       -5.0989   10.0514   30.7861 H         1 RES1    0.0000
     40 C15        7.4919    3.6697   23.3667 C.3       1 RES1    0.0000
     41 H18        6.7369    3.6839   22.7731 H         1 RES1    0.0000
     42 H19        7.7250    2.7604   23.5673 H         1 RES1    0.0000
     43 H20        8.2367    4.1078   22.9468 H         1 RES1    0.0000
     44 C16        9.8395    4.4711   27.7261 C.ar      1 RES1    0.0000
     45 H21       10.4289    4.5095   28.4446 H         1 RES1    0.0000
     46 C17       -1.8611   11.2979   29.2898 C.ar      1 RES1    0.0000
     47 H22       -1.0749   11.6097   28.9038 H         1 RES1    0.0000
     48 C18       10.1917    3.8211   26.5707 C.ar      1 RES1    0.0000
     49 H23       11.0213    3.4063   26.5045 H         1 RES1    0.0000
     50 C19       -4.1764   11.6289   29.9653 C.ar      1 RES1    0.0000
     51 H24       -4.9011   12.2083   30.0249 H         1 RES1    0.0000
     52 C20       -2.9875   12.0811   29.4085 C.ar      1 RES1    0.0000
     53 H25       -2.9501   12.9571   29.0983 H         1 RES1    0.0000
@<TRIPOS>BOND
     1    1   13 1
     2    2    5 1
     3    3    4 1
     4    5    8 1
     5    6   10 1
     6    7   14 1
     7    8    9 2
     8    9   17 1
     9   10   13 ar
    10   11    3 1
    11   12   11 1
    12   13   36 ar
    13   14   11 1
    14   15   14 1
    15   16   14 1
    16   17   18 ar
    17   18    5 1
    18   19    6 1
    19   20   19 1
    20   21   19 1
    21   22    2 1
    22   23   22 1
    23   24   22 1
    24   25   10 ar
    25   26   25 1
    26   27    7 1
    27   28   27 1
    28   29   27 1
    29   30    6 1
    30   31   30 1
    31   32   30 1
    32   33    7 1
    33   34   33 1
    34   35   33 1
    35   36   37 1
    36   38   17 ar
    37   39   38 1
    38   40    1 1
    39   41   40 1
    40   42   40 1
    41   43   40 1
    42   44   25 ar
    43   45   44 1
    44   46   18 ar
    45   47   46 1
    46   48   36 ar
    47   49   48 1
    48   50   38 ar
    49   51   50 1
    50   52   46 ar
    51   53   52 1
    52   11   22 1
    53   19   27 1
    54   30   33 1
    55   44   48 ar
    56   50   52 ar
@<TRIPOS>SUBSTRUCTURE
     1 RES1 1

@<TRIPOS>CRYSIN
  10.0928   10.0928   41.3680  90.0000  90.0000  90.0000  96 1

