# MOL2 file generated by ConQuest
# Please check atom types

@<TRIPOS>MOLECULE
MUWCOX
    32    33     1
SMALL
NO_CHARGES
****
Generated from CSD

@<TRIPOS>ATOM
      1 C1         3.3742    4.5169    7.8156 C.3       1 RES1    0.0000
      2 H1         2.9568    5.3070    8.2422 H         1 RES1    0.0000
      3 H2         2.6700    4.0438    7.3057 H         1 RES1    0.0000
      4 C2         4.4413    4.9896    6.8501 C.ar      1 RES1    0.0000
      5 C3         4.7765    4.1998    5.7491 C.ar      1 RES1    0.0000
      6 H3         4.3410    3.3653    5.6189 H         1 RES1    0.0000
      7 C4         5.7388    4.6228    4.8431 C.ar      1 RES1    0.0000
      8 H4         5.9501    4.0835    4.0901 H         1 RES1    0.0000
      9 C5         6.3911    5.8255    5.0320 C.ar      1 RES1    0.0000
     10 H5         7.0556    6.1080    4.4162 H         1 RES1    0.0000
     11 C6         6.0729    6.6196    6.1225 C.ar      1 RES1    0.0000
     12 H6         6.5228    7.4460    6.2572 H         1 RES1    0.0000
     13 C7         5.0936    6.2053    7.0218 C.ar      1 RES1    0.0000
     14 H7         4.8691    6.7595    7.7600 H         1 RES1    0.0000
     15 C8         3.8923    3.5961    8.8995 C.2       1 RES1    0.0000
     16 O1         1.9521    2.4554    8.8311 O.3       1 RES1    0.0000
     17 H8         1.6089    1.7402    9.2447 H         1 RES1    0.0000
     18 N1         3.2415    2.6177    9.3982 N.2       1 RES1    0.0000
     19 C9         5.2735    3.8614    9.4490 C.3       1 RES1    0.0000
     20 H9         5.9319    3.6888    8.7304 H         1 RES1    0.0000
     21 H10        5.3347    4.8213    9.6829 H         1 RES1    0.0000
     22 C10        5.6729    3.0540   10.6598 C.ar      1 RES1    0.0000
     23 C11        5.3934    3.5259   11.9407 C.ar      1 RES1    0.0000
     24 H11        4.9239    4.3436   12.0501 H         1 RES1    0.0000
     25 C12        5.8003    2.8060   13.0582 C.ar      1 RES1    0.0000
     26 H12        5.6096    3.1386   13.9271 H         1 RES1    0.0000
     27 C13        6.4789    1.6107   12.9152 C.ar      1 RES1    0.0000
     28 H13        6.7551    1.1233   13.6830 H         1 RES1    0.0000
     29 C14        6.7527    1.1285   11.6463 C.ar      1 RES1    0.0000
     30 H14        7.2139    0.3038   11.5419 H         1 RES1    0.0000
     31 C15        6.3555    1.8484   10.5240 C.ar      1 RES1    0.0000
     32 H15        6.5529    1.5141    9.6569 H         1 RES1    0.0000
@<TRIPOS>BOND
     1    1    2 1
     2    3    1 1
     3    4    1 1
     4    5    4 ar
     5    6    5 1
     6    7    5 ar
     7    8    7 1
     8    9    7 ar
     9   10    9 1
    10   11    9 ar
    11   12   11 1
    12   13    4 ar
    13   14   13 1
    14   15    1 1
    15   16   17 1
    16   18   15 2
    17   19   15 1
    18   20   19 1
    19   21   19 1
    20   22   19 1
    21   23   22 ar
    22   24   23 1
    23   25   23 ar
    24   26   25 1
    25   27   25 ar
    26   28   27 1
    27   29   27 ar
    28   30   29 1
    29   31   22 ar
    30   32   31 1
    31   11   13 ar
    32   16   18 1
    33   29   31 ar
@<TRIPOS>SUBSTRUCTURE
     1 RES1 1

@<TRIPOS>CRYSIN
  20.6027    5.7547   20.6827  90.0000 104.6510  90.0000  15 1

