# MOL2 file generated by ConQuest
# Please check atom types

@<TRIPOS>MOLECULE
MUWJUK
    43    45     1
SMALL
NO_CHARGES
****
Generated from CSD

@<TRIPOS>ATOM
      1 O1         1.7769    7.0509   11.9286 O.3       1 RES1    0.0000
      2 N1         2.8788    8.0848   11.8477 N.3       1 RES1    0.0000
      3 C1         2.1968    9.3057   12.3563 C.3       1 RES1    0.0000
      4 C2         1.7810    9.0689   13.8042 C.3       1 RES1    0.0000
      5 C3         3.1333   10.4799   12.2062 C.ar      1 RES1    0.0000
      6 C4         4.3050   10.5943   12.9464 C.ar      1 RES1    0.0000
      7 C5         5.1600   11.6690   12.7783 C.ar      1 RES1    0.0000
      8 C6         4.8603   12.6550   11.8621 C.ar      1 RES1    0.0000
      9 C7         3.6881   12.5754   11.1279 C.ar      1 RES1    0.0000
     10 C8         2.8266   11.4908   11.3040 C.ar      1 RES1    0.0000
     11 C9         3.1972    8.1136   10.3783 C.3       1 RES1    0.0000
     12 C10        4.6568    8.5604   10.1713 C.3       1 RES1    0.0000
     13 C11        2.9533    6.6638    9.9500 C.3       1 RES1    0.0000
     14 C12        1.8543    6.2270   10.8574 C.2       1 RES1    0.0000
     15 O2         1.1048    5.2877   10.7468 O.2       1 RES1    0.0000
     16 C13        2.5562    6.4420    8.4732 C.3       1 RES1    0.0000
     17 C14        3.6881    6.5365    7.4647 C.ar      1 RES1    0.0000
     18 C15        3.6998    7.5295    6.5048 C.ar      1 RES1    0.0000
     19 C16        4.7090    7.5803    5.5504 C.ar      1 RES1    0.0000
     20 C17        5.7118    6.6430    5.5485 C.ar      1 RES1    0.0000
     21 C18        5.6978    5.6310    6.4968 C.ar      1 RES1    0.0000
     22 C19        4.6985    5.5862    7.4517 C.ar      1 RES1    0.0000
     23 H1         1.3869    9.4769   11.8124 H         1 RES1    0.0000
     24 H2         1.3558    9.8719   14.1583 H         1 RES1    0.0000
     25 H3         2.5768    8.8639   14.3294 H         1 RES1    0.0000
     26 H4         1.1559    8.3246   13.8299 H         1 RES1    0.0000
     27 H5         4.5044    9.9326   13.5787 H         1 RES1    0.0000
     28 H6         5.9417   11.7326   13.3000 H         1 RES1    0.0000
     29 H7         5.4532   13.3775   11.7213 H         1 RES1    0.0000
     30 H8         3.4652   13.2521   10.5125 H         1 RES1    0.0000
     31 H9         2.0179   11.4441   10.8105 H         1 RES1    0.0000
     32 H10        2.5750    8.7097    9.8915 H         1 RES1    0.0000
     33 H11        4.9114    8.3584    9.2595 H         1 RES1    0.0000
     34 H12        4.7337    9.5117   10.3469 H         1 RES1    0.0000
     35 H13        5.2175    8.0599   10.7857 H         1 RES1    0.0000
     36 H14        3.7666    6.1385   10.1150 H         1 RES1    0.0000
     37 H15        1.9012    7.1305    8.2438 H         1 RES1    0.0000
     38 H16        2.1522    5.5593    8.4039 H         1 RES1    0.0000
     39 H17        3.0148    8.1773    6.4940 H         1 RES1    0.0000
     40 H18        4.7114    8.2490    4.8795 H         1 RES1    0.0000
     41 H19        6.4003    6.6698    4.8933 H         1 RES1    0.0000
     42 H20        6.3798    4.9862    6.5189 H         1 RES1    0.0000
     43 H21        4.7055    4.8986    8.0948 H         1 RES1    0.0000
@<TRIPOS>BOND
     1    1    2 1
     2    2    3 1
     3    3    4 1
     4    4   24 1
     5    5    3 1
     6    6    5 ar
     7    7    6 ar
     8    8    7 ar
     9    9    8 ar
    10   10    5 ar
    11   11    2 1
    12   12   11 1
    13   13   11 1
    14   14    1 1
    15   15   14 2
    16   16   13 1
    17   17   16 1
    18   18   17 ar
    19   19   18 ar
    20   20   19 ar
    21   21   20 ar
    22   22   17 ar
    23   23    3 1
    24   25    4 1
    25   26    4 1
    26   27    6 1
    27   28    7 1
    28   29    8 1
    29   30    9 1
    30   31   10 1
    31   32   11 1
    32   33   12 1
    33   34   12 1
    34   35   12 1
    35   36   13 1
    36   37   16 1
    37   38   16 1
    38   39   18 1
    39   40   19 1
    40   41   20 1
    41   42   21 1
    42   43   22 1
    43    9   10 ar
    44   13   14 1
    45   21   22 ar
@<TRIPOS>SUBSTRUCTURE
     1 RES1 1

@<TRIPOS>CRYSIN
   5.8643    9.9505   27.5990  90.0000  90.0000  90.0000  19 1

