# MOL2 file generated by ConQuest
# Please check atom types

@<TRIPOS>MOLECULE
MUWKAR
    53    56     1
SMALL
NO_CHARGES
****
Generated from CSD

@<TRIPOS>ATOM
      1 O1         7.0580    1.1760    8.2368 O.3       1 RES1    0.0000
      2 N1         5.8608    1.9411    8.6576 N.3       1 RES1    0.0000
      3 C1         4.6934    1.1569    8.1919 C.3       1 RES1    0.0000
      4 C2         4.4809   -0.0235    9.1172 C.ar      1 RES1    0.0000
      5 C3         5.1497   -1.2307    8.9397 C.ar      1 RES1    0.0000
      6 C4         4.8859   -2.3093    9.7713 C.ar      1 RES1    0.0000
      7 C5         3.9659   -2.2041   10.7894 C.ar      1 RES1    0.0000
      8 C6         3.3038   -1.0043   10.9945 C.ar      1 RES1    0.0000
      9 C7         3.5632    0.0731   10.1570 C.ar      1 RES1    0.0000
     10 C8         4.7113    0.7560    6.7113 C.3       1 RES1    0.0000
     11 C9         5.9894    3.2591    7.9823 C.3       1 RES1    0.0000
     12 C10        5.1423    4.2825    8.6948 C.ar      1 RES1    0.0000
     13 C11        4.6080    5.3580    7.9848 C.ar      1 RES1    0.0000
     14 C12        3.8240    6.3082    8.6066 C.ar      1 RES1    0.0000
     15 C13        3.5268    6.1958    9.9561 C.ar      1 RES1    0.0000
     16 C14        4.0365    5.1317   10.6777 C.ar      1 RES1    0.0000
     17 C15        4.8458    4.1839   10.0586 C.ar      1 RES1    0.0000
     18 C16        7.5269    3.4781    7.9539 C.3       1 RES1    0.0000
     19 C17        8.0285    2.0476    7.9013 C.2       1 RES1    0.0000
     20 O2         9.1401    1.6595    7.6373 O.2       1 RES1    0.0000
     21 C18        8.0374    4.2657    6.7271 C.3       1 RES1    0.0000
     22 C19        7.5120    3.7956    5.3979 C.ar      1 RES1    0.0000
     23 C20        6.5371    4.5224    4.7298 C.ar      1 RES1    0.0000
     24 C21        5.9886    4.0754    3.5382 C.ar      1 RES1    0.0000
     25 C22        6.4159    2.8760    2.9973 C.ar      1 RES1    0.0000
     26 C23        7.4154    2.1661    3.6113 C.ar      1 RES1    0.0000
     27 C24        7.9705    2.6223    4.8015 C.ar      1 RES1    0.0000
     28 C25        8.0760    4.0959    9.2488 C.3       1 RES1    0.0000
     29 H1         3.9184    1.7905    8.3214 H         1 RES1    0.0000
     30 H2         5.7992   -1.2975    8.2199 H         1 RES1    0.0000
     31 H3         5.3578   -3.1401    9.6301 H         1 RES1    0.0000
     32 H4         3.7608   -2.9487   11.3314 H         1 RES1    0.0000
     33 H5         2.6714   -0.9147   11.7195 H         1 RES1    0.0000
     34 H6         3.0824    0.9025   10.2980 H         1 RES1    0.0000
     35 H7         3.8931    0.2423    6.5209 H         1 RES1    0.0000
     36 H8         5.5049    0.2047    6.5412 H         1 RES1    0.0000
     37 H9         4.7477    1.5531    6.1598 H         1 RES1    0.0000
     38 H10        5.7204    3.1958    7.0353 H         1 RES1    0.0000
     39 H11        4.8197    5.4382    7.0488 H         1 RES1    0.0000
     40 H12        3.4532    7.0301    8.0913 H         1 RES1    0.0000
     41 H13        2.9724    6.8569   10.3815 H         1 RES1    0.0000
     42 H14        3.8314    5.0445   11.6270 H         1 RES1    0.0000
     43 H15        5.2128    3.4502   10.5665 H         1 RES1    0.0000
     44 H16        9.0391    4.1723    6.7239 H         1 RES1    0.0000
     45 H17        7.7765    5.2032    6.8593 H         1 RES1    0.0000
     46 H18        6.2346    5.3425    5.1061 H         1 RES1    0.0000
     47 H19        5.3154    4.6023    3.0912 H         1 RES1    0.0000
     48 H20        6.0109    2.5453    2.1999 H         1 RES1    0.0000
     49 H21        7.7334    1.3459    3.2311 H         1 RES1    0.0000
     50 H22        8.6913    2.1334    5.2144 H         1 RES1    0.0000
     51 H23        9.0576    4.0402    9.2014 H         1 RES1    0.0000
     52 H24        7.7416    3.5423    9.9843 H         1 RES1    0.0000
     53 H25        7.7661    5.0227    9.3074 H         1 RES1    0.0000
@<TRIPOS>BOND
     1    1    2 1
     2    2    3 1
     3    3    4 1
     4    4    5 ar
     5    5    6 ar
     6    6    7 ar
     7    7    8 ar
     8    8    9 ar
     9    9    4 ar
    10   10    3 1
    11   11    2 1
    12   12   11 1
    13   13   12 ar
    14   14   13 ar
    15   15   14 ar
    16   16   15 ar
    17   17   12 ar
    18   18   11 1
    19   19    1 1
    20   20   19 2
    21   21   18 1
    22   22   21 1
    23   23   22 ar
    24   24   23 ar
    25   25   24 ar
    26   26   25 ar
    27   27   22 ar
    28   28   18 1
    29   29    3 1
    30   30    5 1
    31   31    6 1
    32   32    7 1
    33   33    8 1
    34   34    9 1
    35   35   10 1
    36   36   10 1
    37   37   10 1
    38   38   11 1
    39   39   13 1
    40   40   14 1
    41   41   15 1
    42   42   16 1
    43   43   17 1
    44   44   21 1
    45   45   21 1
    46   46   23 1
    47   47   24 1
    48   48   25 1
    49   49   26 1
    50   50   27 1
    51   51   28 1
    52   52   28 1
    53   53   28 1
    54   16   17 ar
    55   18   19 1
    56   26   27 ar
@<TRIPOS>SUBSTRUCTURE
     1 RES1 1

@<TRIPOS>CRYSIN
   7.4310   12.1146   22.5635  90.0000  90.0000  90.0000  19 1

