# MOL2 file generated by ConQuest
# Please check atom types

@<TRIPOS>MOLECULE
MUWKIZ
    46    48     1
SMALL
NO_CHARGES
****
Generated from CSD

@<TRIPOS>ATOM
      1 O1         2.5193    0.2413   13.9364 O.3       1 RES1    0.0000
      2 N1         2.5663    1.5197   13.1656 N.3       1 RES1    0.0000
      3 C1         3.8824    1.4707   12.4822 C.3       1 RES1    0.0000
      4 C2         3.9882    2.6344   11.5236 C.ar      1 RES1    0.0000
      5 C3         2.9648    2.9205   10.6252 C.ar      1 RES1    0.0000
      6 C4         3.1177    3.9315    9.6834 C.ar      1 RES1    0.0000
      7 C5         4.3010    4.6398    9.6128 C.ar      1 RES1    0.0000
      8 C6         5.3231    4.3638   10.4897 C.ar      1 RES1    0.0000
      9 C7         5.1638    3.3665   11.4498 C.ar      1 RES1    0.0000
     10 C8         4.0267    0.1636   11.7042 C.3       1 RES1    0.0000
     11 C9         2.4732    2.5343   14.2475 C.3       1 RES1    0.0000
     12 C10        2.1179    3.9135   13.7168 C.3       1 RES1    0.0000
     13 C11        1.4160    1.9059   15.1688 C.3       1 RES1    0.0000
     14 C12        1.7876    0.4446   15.0567 C.2       1 RES1    0.0000
     15 O2         1.5218   -0.4769   15.7851 O.2       1 RES1    0.0000
     16 C13       -0.0153    2.0515   14.6254 C.3       1 RES1    0.0000
     17 C14        1.4516    2.4046   16.6331 C.3       1 RES1    0.0000
     18 C15        2.7875    2.3426   17.3246 C.ar      1 RES1    0.0000
     19 C16        3.2126    1.1882   17.9613 C.ar      1 RES1    0.0000
     20 C17        4.4589    1.1500   18.5983 C.ar      1 RES1    0.0000
     21 C18        5.2666    2.2720   18.5864 C.ar      1 RES1    0.0000
     22 C19        4.8515    3.4148   17.9730 C.ar      1 RES1    0.0000
     23 C20        3.6160    3.4588   17.3468 C.ar      1 RES1    0.0000
     24 H1         4.5997    1.5464   13.1718 H         1 RES1    0.0000
     25 H2         2.1531    2.4060   10.6734 H         1 RES1    0.0000
     26 H3         2.3857    4.1347    9.0720 H         1 RES1    0.0000
     27 H4         4.4162    5.3388    8.9577 H         1 RES1    0.0000
     28 H5         6.1628    4.8632   10.4267 H         1 RES1    0.0000
     29 H6         5.8737    3.1785   12.0886 H         1 RES1    0.0000
     30 H7         4.8462    0.1600   11.1758 H         1 RES1    0.0000
     31 H8         3.2692    0.0548   11.0905 H         1 RES1    0.0000
     32 H9         4.0353   -0.6060   12.3218 H         1 RES1    0.0000
     33 H10        3.3482    2.5473   14.7642 H         1 RES1    0.0000
     34 H11        1.8555    4.5238   14.4547 H         1 RES1    0.0000
     35 H12        1.3529    3.8551   13.0866 H         1 RES1    0.0000
     36 H13        2.8990    4.3184   13.2257 H         1 RES1    0.0000
     37 H14       -0.6167    1.4930   15.1679 H         1 RES1    0.0000
     38 H15       -0.0043    1.7525   13.6922 H         1 RES1    0.0000
     39 H16       -0.2518    3.0120   14.6857 H         1 RES1    0.0000
     40 H17        0.8056    1.8605   17.1595 H         1 RES1    0.0000
     41 H18        1.1619    3.3428   16.5876 H         1 RES1    0.0000
     42 H19        2.6429    0.4179   17.9445 H         1 RES1    0.0000
     43 H20        4.7277    0.3394   19.0277 H         1 RES1    0.0000
     44 H21        6.1415    2.2417   19.0098 H         1 RES1    0.0000
     45 H22        5.4042    4.1851   17.9692 H         1 RES1    0.0000
     46 H23        3.3183    4.2810   16.8993 H         1 RES1    0.0000
@<TRIPOS>BOND
     1    1    2 1
     2    2    3 1
     3    3    4 1
     4    4    5 ar
     5    5    6 ar
     6    6    7 ar
     7    7    8 ar
     8    8    9 ar
     9    9    4 ar
    10   10    3 1
    11   11    2 1
    12   12   11 1
    13   13   11 1
    14   14    1 1
    15   15   14 2
    16   16   13 1
    17   17   13 1
    18   18   17 1
    19   19   18 ar
    20   20   19 ar
    21   21   20 ar
    22   22   21 ar
    23   23   18 ar
    24   24    3 1
    25   25    5 1
    26   26    6 1
    27   27    7 1
    28   28    8 1
    29   29    9 1
    30   30   10 1
    31   31   10 1
    32   32   10 1
    33   33   11 1
    34   34   12 1
    35   35   12 1
    36   36   12 1
    37   37   16 1
    38   38   16 1
    39   39   16 1
    40   40   17 1
    41   41   17 1
    42   42   19 1
    43   43   20 1
    44   44   21 1
    45   45   22 1
    46   46   23 1
    47   13   14 1
    48   22   23 ar
@<TRIPOS>SUBSTRUCTURE
     1 RES1 1

@<TRIPOS>CRYSIN
  10.6697    7.2058   22.4278  90.0000  90.0000  90.0000  19 1

