# MOL2 file generated by ConQuest
# Please check atom types

@<TRIPOS>MOLECULE
MUWZIP
    43    45     1
SMALL
USER_CHARGES
****
Generated from CSD

@<TRIPOS>ATOM
      1 O1         8.0501    9.7266    4.1956 O.2       1 RES1   -1.0000
      2 O2         3.9457    9.4694    2.5096 O.3       1 RES1    0.0000
      3 H1         3.4352    8.9100    2.8242 H         1 RES1    0.0000
      4 N1         8.4490    9.6482    2.9597 N.pl3     1 RES1    1.0000
      5 N2         5.2267    8.9270    2.4135 N.2       1 RES1    0.0000
      6 C1         9.6346    9.9332    2.4870 C.2       1 RES1    0.0000
      7 C2         9.7158    9.5998    1.0072 C.3       1 RES1    0.0000
      8 C3         8.2234    9.4925    0.6343 C.3       1 RES1    0.0000
      9 H2         7.9019   10.3339    0.2723 H         1 RES1    0.0000
     10 H3         8.0873    8.7976   -0.0278 H         1 RES1    0.0000
     11 C4         7.4877    9.1524    1.9215 C.3       1 RES1    0.0000
     12 H4         7.4043    8.1782    1.9981 H         1 RES1    0.0000
     13 C5        10.6902   10.5405    3.3123 C.ar      1 RES1    0.0000
     14 C6        10.3651   11.4597    4.3079 C.ar      1 RES1    0.0000
     15 H5         9.4728   11.6194    4.5121 H         1 RES1    0.0000
     16 C7        11.3533   12.1344    4.9933 C.ar      1 RES1    0.0000
     17 H6        11.1229   12.7526    5.6485 H         1 RES1    0.0000
     18 C8        12.6848   11.8963    4.7094 C.ar      1 RES1    0.0000
     19 H7        13.3490   12.3633    5.1627 H         1 RES1    0.0000
     20 C9        13.0248   10.9662    3.7525 C.ar      1 RES1    0.0000
     21 H8        13.9204   10.7872    3.5761 H         1 RES1    0.0000
     22 C10       12.0396   10.3005    3.0586 C.ar      1 RES1    0.0000
     23 H9        12.2787    9.6799    2.4081 H         1 RES1    0.0000
     24 C11       10.3941    8.2354    0.7836 C.3       1 RES1    0.0000
     25 H10       10.3712    8.0173   -0.1508 H         1 RES1    0.0000
     26 H11        9.9264    7.5605    1.2810 H         1 RES1    0.0000
     27 H12       11.3057    8.2785    1.0799 H         1 RES1    0.0000
     28 C12       10.3978   10.6815    0.1733 C.3       1 RES1    0.0000
     29 H13       10.3376   10.4533   -0.7573 H         1 RES1    0.0000
     30 H14       11.3217   10.7474    0.4270 H         1 RES1    0.0000
     31 H15        9.9632   11.5242    0.3249 H         1 RES1    0.0000
     32 C13        6.1221    9.7801    2.0592 C.2       1 RES1    0.0000
     33 C14        5.9223   11.2098    1.7026 C.ar      1 RES1    0.0000
     34 C15        4.9482   11.5818    0.7797 C.ar      1 RES1    0.0000
     35 H16        4.3872   10.9360    0.4146 H         1 RES1    0.0000
     36 C16        4.8111   12.9000    0.4053 C.ar      1 RES1    0.0000
     37 H17        4.1586   13.1332   -0.2158 H         1 RES1    0.0000
     38 C17        5.6167   13.8742    0.9314 C.ar      1 RES1    0.0000
     39 H18        5.5052   14.7629    0.6807 H         1 RES1    0.0000
     40 C18        6.5958   13.5219    1.8403 C.ar      1 RES1    0.0000
     41 H19        7.1516   14.1764    2.1992 H         1 RES1    0.0000
     42 C19        6.7531   12.2027    2.2170 C.ar      1 RES1    0.0000
     43 H20        7.4223   11.9740    2.8211 H         1 RES1    0.0000
@<TRIPOS>BOND
     1    1    4 1
     2    2    3 1
     3    4    6 2
     4    5    2 1
     5    6    7 1
     6    7    8 1
     7    8    9 1
     8   10    8 1
     9   11    4 1
    10   12   11 1
    11   13    6 1
    12   14   13 ar
    13   15   14 1
    14   16   14 ar
    15   17   16 1
    16   18   16 ar
    17   19   18 1
    18   20   18 ar
    19   21   20 1
    20   22   13 ar
    21   23   22 1
    22   24    7 1
    23   25   24 1
    24   26   24 1
    25   27   24 1
    26   28    7 1
    27   29   28 1
    28   30   28 1
    29   31   28 1
    30   32    5 2
    31   33   32 1
    32   34   33 ar
    33   35   34 1
    34   36   34 ar
    35   37   36 1
    36   38   36 ar
    37   39   38 1
    38   40   38 ar
    39   41   40 1
    40   42   33 ar
    41   43   42 1
    42    8   11 1
    43   11   32 1
    44   20   22 ar
    45   40   42 ar
@<TRIPOS>SUBSTRUCTURE
     1 RES1 1

@<TRIPOS>CRYSIN
  12.1536   17.3010    7.9360  90.0000 102.9070  90.0000  14 1

